@<TRIPOS>MOLECULE
3R540
247   249    1
SMALL
USER_CHARGES


@<TRIPOS>ATOM
      1 CA         -4.3840  -13.2423  -50.4734 C.3       0 UNK        -0.1800 
      2 C          -2.8774  -13.4256  -50.5836 C.2       0 UNK         0.5000 
      3 O          -2.2056  -12.6363  -51.2481 O.2       0 UNK        -0.5000 
      4 N          -2.3452  -14.4678  -49.9369 N.am      1 UNK        -0.5000 
      5 CA         -0.9336  -14.8659  -49.9105 C.3       1 UNK         0.1400 
      6 C6         -0.8295  -16.3465  -49.4680 C.3       23 UNK        -0.0398 
      7 S7          0.7039  -17.1833  -49.9634 S.3       23 UNK        -0.2404 
      8 C8          0.3985  -18.7571  -49.1140 C.3       23 UNK        -0.0205 
      9 C9          1.3501  -19.8440  -49.5720 C.ar      23 UNK        -0.0193 
     10 C10         0.9179  -20.8143  -50.4771 C.ar      23 UNK        -0.1150 
     11 C11         1.7506  -21.8795  -50.8297 C.ar      23 UNK        -0.0193 
     12 C12         3.0423  -21.9454  -50.2992 C.ar      23 UNK        -0.1150 
     13 C13         3.4942  -20.9638  -49.4104 C.ar      23 UNK        -0.0193 
     14 C14         2.6436  -19.9135  -49.0529 C.ar      23 UNK        -0.1150 
     15 C15         4.8872  -21.0591  -48.8041 C.3       23 UNK        -0.0205 
     16 S16         4.8409  -21.1718  -46.9857 S.3       23 UNK        -0.2404 
     17 C17         3.6981  -22.5756  -46.7463 C.3       23 UNK        -0.0398 
     18 CA          3.8821  -23.2397  -45.3644 C.3       11 UNK         0.1400 
     19 N           3.5574  -22.3180  -44.2689 N.am      11 UNK        -0.5000 
     20 C           4.0560  -22.4192  -43.0304 C.2       10 UNK         0.5000 
     21 O           4.8552  -23.2895  -42.6822 O.2       10 UNK        -0.5000 
     22 CA          3.5637  -21.3874  -42.0006 C.3       10 UNK         0.1400 
     23 CB          4.2726  -20.0388  -42.1992 C.3       10 UNK        -0.1800 
     24 N           2.1122  -21.1959  -42.0323 N.am      10 UNK        -0.5000 
     25 C           1.2148  -22.1377  -41.7050 C.2       9 UNK         0.5000 
     26 O           1.5164  -23.2746  -41.3415 O.2       9 UNK        -0.5000 
     27 CA         -0.2721  -21.7566  -41.8120 C.3       9 UNK         0.1400 
     28 CB         -0.7233  -20.9880  -40.5610 C.3       9 UNK        -0.1800 
     29 N          -0.5731  -20.9716  -43.0083 N.am      9 UNK        -0.5000 
     30 C          -0.5047  -21.4423  -44.2619 C.2       8 UNK         0.5000 
     31 O          -0.2233  -22.6067  -44.5400 O.2       8 UNK        -0.5000 
     32 CA         -0.7543  -20.4341  -45.3969 C.3       8 UNK         0.1400 
     33 CB         -2.2584  -20.1916  -45.5855 C.3       8 UNK        -0.1800 
     34 N          -0.0824  -19.1562  -45.1741 N.am      8 UNK        -0.5000 
     35 C           1.2417  -18.9973  -45.0387 C.2       7 UNK         0.5000 
     36 O           2.0599  -19.9144  -45.1140 O.2       7 UNK        -0.5000 
     37 CA          1.7182  -17.5752  -44.7030 C.3       7 UNK         0.1400 
     38 CB          1.7576  -16.6975  -45.9636 C.3       7 UNK        -0.1800 
     39 N           0.8691  -16.9501  -43.6866 N.am      7 UNK        -0.5000 
     40 C           0.8292  -17.3330  -42.4018 C.2       6 UNK         0.5000 
     41 O           1.5312  -18.2291  -41.9344 O.2       6 UNK        -0.5000 
     42 CA         -0.1956  -16.6267  -41.4952 C.3       6 UNK         0.1400 
     43 CB          0.3474  -15.2802  -40.9988 C.3       6 UNK        -0.1800 
     44 N          -1.4832  -16.4184  -42.1571 N.am      6 UNK        -0.5000 
     45 C          -2.3210  -17.4101  -42.4900 C.2       5 UNK         0.5000 
     46 O          -2.1027  -18.5967  -42.2516 O.2       5 UNK        -0.5000 
     47 CA         -3.5958  -17.0199  -43.2598 C.3       5 UNK         0.1400 
     48 CB         -4.7304  -16.6706  -42.2862 C.3       5 UNK        -0.1800 
     49 N          -3.4072  -15.9123  -44.1983 N.am      5 UNK        -0.5000 
     50 C          -2.5200  -15.8893  -45.2015 C.2       4 UNK         0.5000 
     51 O          -1.7128  -16.7925  -45.4237 O.2       4 UNK        -0.5000 
     52 CA         -2.5224  -14.6597  -46.1191 C.3       4 UNK         0.1400 
     53 CB         -3.8104  -13.8098  -46.0600 C.3       4 UNK        -0.1800 
     54 N          -1.3366  -13.8343  -45.9025 N.am      4 UNK        -0.5000 
     55 C          -0.9871  -13.1438  -44.8072 C.2       3 UNK         0.5000 
     56 O          -1.5999  -13.1948  -43.7401 O.2       3 UNK        -0.5000 
     57 CA          0.2574  -12.2331  -44.9253 C.3       3 UNK         0.1400 
     58 CB          1.4150  -12.7712  -44.0710 C.3       3 UNK        -0.1800 
     59 N           0.7242  -12.0793  -46.3064 N.am      3 UNK        -0.5000 
     60 C           0.1249  -11.3400  -47.2503 C.2       2 UNK         0.5000 
     61 O          -0.8220  -10.5846  -47.0294 O.2       2 UNK        -0.5000 
     62 CA          0.6330  -11.5170  -48.6963 C.3       2 UNK         0.1400 
     63 CB          2.1673  -11.6649  -48.7873 C.3       2 UNK        -0.1800 
     64 N          -0.0454  -12.6225  -49.3864 N.am      2 UNK        -0.5000 
     65 C          -0.0701  -13.9184  -49.0426 C.2       1 UNK         0.5000 
     66 O           0.5187  -14.3610  -48.0564 O.2       1 UNK        -0.5000 
     67 C           3.0772  -24.5550  -45.2825 C.2       11 UNK         0.5000 
     68 O           3.4737  -25.5377  -45.9102 O.2       11 UNK        -0.5000 
     69 N           1.9717  -24.5495  -44.5227 N.am      12 UNK        -0.5000 
     70 CA          1.0066  -25.6362  -44.3254 C.3       12 UNK         0.1400 
     71 CB          1.6625  -26.8370  -43.6124 C.3       12 UNK        -0.1800 
     72 C           0.2607  -26.0278  -45.6204 C.2       12 UNK         0.5000 
     73 O          -0.1195  -27.1884  -45.7872 O.2       12 UNK        -0.5000 
     74 N           0.0547  -25.0499  -46.5096 N.am      13 UNK        -0.5000 
     75 CA         -0.6161  -25.1795  -47.7978 C.3       13 UNK         0.1400 
     76 CB          0.2802  -25.9332  -48.7996 C.3       13 UNK        -0.1800 
     77 C          -0.9323  -23.7758  -48.3266 C.2       13 UNK         0.5000 
     78 O          -0.1679  -22.8469  -48.0623 O.2       13 UNK        -0.5000 
     79 N          -2.0251  -23.6651  -49.0882 N.am      14 UNK        -0.5000 
     80 CA         -2.4924  -22.4770  -49.7986 C.3       14 UNK         0.1400 
     81 CB         -2.8295  -21.3292  -48.8270 C.3       14 UNK        -0.1800 
     82 C          -3.7264  -22.8584  -50.6265 C.2       14 UNK         0.5000 
     83 O          -4.3092  -23.9242  -50.4051 O.2       14 UNK        -0.5000 
     84 N          -4.1082  -21.9733  -51.5521 N.am      15 UNK        -0.5000 
     85 CA         -5.3949  -22.0201  -52.2451 C.3       15 UNK         0.1400 
     86 CB         -5.2471  -21.3479  -53.6184 C.3       15 UNK        -0.1800 
     87 C          -6.4875  -21.3404  -51.3972 C.2       15 UNK         0.5000 
     88 O          -6.1761  -20.7095  -50.3821 O.2       15 UNK        -0.5000 
     89 N          -7.7471  -21.4791  -51.8349 N.am      16 UNK        -0.5000 
     90 CA         -8.9523  -20.9482  -51.1885 C.3       16 UNK         0.1400 
     91 CB        -10.1650  -21.2198  -52.0917 C.3       16 UNK        -0.1800 
     92 C          -8.8623  -19.4474  -50.8458 C.2       16 UNK         0.5000 
     93 O          -8.3639  -18.6641  -51.6562 O.2       16 UNK        -0.5000 
     94 N          -9.3326  -19.0981  -49.6396 N.am      17 UNK        -0.5000 
     95 CA         -9.2259  -17.7824  -48.9927 C.3       17 UNK         0.1400 
     96 CB         -9.9616  -16.6921  -49.8012 C.3       17 UNK        -0.1800 
     97 C          -7.7727  -17.3930  -48.6333 C.2       17 UNK         0.5000 
     98 O          -7.4723  -16.2043  -48.5129 O.2       17 UNK        -0.5000 
     99 N          -6.9111  -18.4071  -48.4473 N.am      18 UNK        -0.5000 
    100 CA        -5.4798  -18.3260  -48.1381 C.3       18 UNK         0.1400 
    101 CB        -5.2545  -17.7617  -46.7226 C.3       18 UNK        -0.1800 
    102 C         -4.6970  -17.5730  -49.2319 C.2       18 UNK         0.5000 
    103 O         -3.9948  -16.6001  -48.9452 O.2       18 UNK        -0.5000 
    104 N         -4.8755  -18.0295  -50.4764 N.am      19 UNK        -0.5000 
    105 CA        -4.2895  -17.4506  -51.6817 C.3       19 UNK         0.1400 
    106 CB        -5.3493  -17.4548  -52.7933 C.3       19 UNK        -0.1800 
    107 C         -3.0244  -18.2101  -52.1189 C.2       19 UNK         0.5000 
    108 O         -2.8592  -19.3929  -51.8073 O.2       19 UNK        -0.5000 
    109 N         -2.1617  -17.5052  -52.8606 N.am      20 UNK        -0.5000 
    110 CA        -0.8332  -17.9523  -53.2925 C.3       20 UNK         0.1400 
    111 CB         0.0146  -16.7071  -53.6051 C.3       20 UNK        -0.1800 
    112 C         -0.8274  -18.9138  -54.4985 C.2       20 UNK         0.5000 
    113 O          0.2524  -19.3112  -54.9362 O.2       20 UNK        -0.5000 
    114 N         -2.0048  -19.2559  -55.0408 N.am      21 UNK        -0.5000 
    115 CA        -2.1501  -20.1656  -56.1831 C.3       21 UNK         0.1400 
    116 CB        -3.5675  -20.0328  -56.7616 C.3       21 UNK        -0.1800 
    117 C         -1.8136  -21.6368  -55.8543 C.2       21 UNK         0.5000 
    118 O         -1.4739  -22.3910  -56.7674 O.2       21 UNK        -0.5000 
    119 N         -1.8877  -22.0002  -54.5657 N.am      22 UNK        -0.5000 
    120 CA        -1.5612  -23.3215  -53.9993 C.3       22 UNK         0.1400 
    121 C         -2.5111  -24.4717  -54.4623 C.2       22 UNK         0.5000 
    122 N         -2.2360  -25.7156  -54.0905 N.am      22 UNK        -0.7600 
    123 O         -3.5270  -24.2571  -55.1192 O.2       22 UNK        -0.5000 
    124 C124       -0.0510  -23.6822  -54.1406 C.3       23 UNK        -0.0398 
    125 S125        1.0521  -22.4001  -53.4527 S.3       23 UNK        -0.2404 
    126 C126        1.2275  -22.9794  -51.7398 C.3       23 UNK        -0.0205 
    127 H127       -4.8407  -13.2853  -51.4620 H         1 UNK         0.0600 
    128 H128       -4.6124  -12.2725  -50.0314 H         1 UNK         0.0600 
    129 H129       -4.8421  -14.0143  -49.8538 H         1 UNK         0.0600 
    130 H130       -2.9730  -15.0964  -49.4393 H         1 UNK         0.3000 
    131 H131       -0.5563  -14.7873  -50.9307 H         1 UNK         0.0600 
    132 H132       -1.6307  -16.9198  -49.9307 H         1 UNK         0.0800 
    133 H133       -0.9765  -16.4560  -48.3918 H         1 UNK         0.0800 
    134 H134        0.4938  -18.6133  -48.0373 H         1 UNK         0.0800 
    135 H135       -0.6317  -19.0717  -49.2896 H         1 UNK         0.0800 
    136 H136       -0.0782  -20.7524  -50.8883 H         1 UNK         0.1150 
    137 H137        3.6880  -22.7709  -50.5632 H         1 UNK         0.1150 
    138 H138        2.9782  -19.1673  -48.3460 H         1 UNK         0.1150 
    139 H139        5.4252  -21.9227  -49.1980 H         1 UNK         0.0800 
    140 H140        5.4629  -20.1785  -49.0915 H         1 UNK         0.0800 
    141 H141        2.6724  -22.2216  -46.8724 H         1 UNK         0.0800 
    142 H142        3.8762  -23.2987  -47.5447 H         1 UNK         0.0800 
    143 H143        4.9341  -23.5202  -45.2758 H         1 UNK         0.0600 
    144 H144        2.9484  -21.5358  -44.4982 H         1 UNK         0.3000 
    145 H145        3.8269  -21.7606  -41.0087 H         1 UNK         0.0600 
    146 H146        4.0115  -19.3366  -41.4076 H         1 UNK         0.0600 
    147 H147        4.0098  -19.5811  -43.1532 H         1 UNK         0.0600 
    148 H148        5.3564  -20.1600  -42.1806 H         1 UNK         0.0600 
    149 H149        1.7840  -20.2695  -42.2830 H         1 UNK         0.3000 
    150 H150       -0.8484  -22.6828  -41.8651 H         1 UNK         0.0600 
    151 H151       -0.5051  -21.5527  -39.6538 H         1 UNK         0.0600 
    152 H152       -1.7977  -20.8048  -40.5784 H         1 UNK         0.0600 
    153 H153       -0.2208  -20.0235  -40.4782 H         1 UNK         0.0600 
    154 H154       -0.8747  -20.0138  -42.8569 H         1 UNK         0.3000 
    155 H155       -0.3520  -20.8584  -46.3182 H         1 UNK         0.0600 
    156 H156       -2.7790  -21.1260  -45.7965 H         1 UNK         0.0600 
    157 H157       -2.4461  -19.5125  -46.4169 H         1 UNK         0.0600 
    158 H158       -2.7117  -19.7612  -44.6936 H         1 UNK         0.0600 
    159 H159       -0.6756  -18.3313  -45.1259 H         1 UNK         0.3000 
    160 H160        2.7336  -17.6462  -44.3074 H         1 UNK         0.0600 
    161 H161        0.7661  -16.5591  -46.3948 H         1 UNK         0.0600 
    162 H162        2.3855  -17.1477  -46.7335 H         1 UNK         0.0600 
    163 H163        2.1678  -15.7114  -45.7492 H         1 UNK         0.0600 
    164 H164        0.1985  -16.2694  -44.0121 H         1 UNK         0.3000 
    165 H165       -0.3606  -17.2652  -40.6246 H         1 UNK         0.0600 
    166 H166       -0.3302  -14.8240  -40.2771 H         1 UNK         0.0600 
    167 H167        1.3130  -15.4038  -40.5065 H         1 UNK         0.0600 
    168 H168        0.4827  -14.5785  -41.8203 H         1 UNK         0.0600 
    169 H169       -1.7270  -15.4704  -42.4108 H         1 UNK         0.3000 
    170 H170       -3.9064  -17.8895  -43.8410 H         1 UNK         0.0600 
    171 H171       -4.9084  -17.4870  -41.5849 H         1 UNK         0.0600 
    172 H172       -4.4991  -15.7793  -41.7016 H         1 UNK         0.0600 
    173 H173       -5.6651  -16.4916  -42.8179 H         1 UNK         0.0600 
    174 H174       -4.0070  -15.1098  -44.0744 H         1 UNK         0.3000 
    175 H175       -2.4457  -15.0489  -47.1333 H         1 UNK         0.0600 
    176 H176       -3.7811  -13.0159  -46.8067 H         1 UNK         0.0600 
    177 H177       -4.6907  -14.4164  -46.2759 H         1 UNK         0.0600 
    178 H178       -3.9587  -13.3395  -45.0877 H         1 UNK         0.0600 
    179 H179       -0.6800  -13.8186  -46.6771 H         1 UNK         0.3000 
    180 H180       -0.0190  -11.2479  -44.5445 H         1 UNK         0.0600 
    181 H181        2.3150  -12.1694  -44.1986 H         1 UNK         0.0600 
    182 H182        1.6611  -13.8029  -44.3235 H         1 UNK         0.0600 
    183 H183        1.1588  -12.7387  -43.0124 H         1 UNK         0.0600 
    184 H184        1.4467  -12.7192  -46.6079 H         1 UNK         0.3000 
    185 H185        0.3618  -10.6069  -49.2336 H         1 UNK         0.0600 
    186 H186        2.4970  -11.6424  -49.8259 H         1 UNK         0.0600 
    187 H187        2.6689  -10.8448  -48.2721 H         1 UNK         0.0600 
    188 H188        2.5272  -12.5965  -48.3503 H         1 UNK         0.0600 
    189 H189       -0.6361  -12.3543  -50.1695 H         1 UNK         0.3000 
    190 H190        1.7074  -23.6718  -44.0940 H         1 UNK         0.3000 
    191 H191        0.2457  -25.2373  -43.6531 H         1 UNK         0.0600 
    192 H192        0.9141  -27.5751  -43.3219 H         1 UNK         0.0600 
    193 H193        2.1750  -26.5217  -42.7034 H         1 UNK         0.0600 
    194 H194        2.3880  -27.3423  -44.2502 H         1 UNK         0.0600 
    195 H195        0.3353  -24.1033  -46.2762 H         1 UNK         0.3000 
    196 H196       -1.5515  -25.7246  -47.6553 H         1 UNK         0.0600 
    197 H197       -0.1953  -25.9988  -49.7789 H         1 UNK         0.0600 
    198 H198        0.4812  -26.9526  -48.4708 H         1 UNK         0.0600 
    199 H199        1.2390  -25.4299  -48.9328 H         1 UNK         0.0600 
    200 H200       -2.6115  -24.4752  -49.2527 H         1 UNK         0.3000 
    201 H201       -1.7147  -22.1590  -50.4905 H         1 UNK         0.0600 
    202 H202       -3.5569  -21.6414  -48.0774 H         1 UNK         0.0600 
    203 H203       -3.2492  -20.4730  -49.3545 H         1 UNK         0.0600 
    204 H204       -1.9394  -20.9708  -48.3139 H         1 UNK         0.0600 
    205 H205       -3.6145  -21.0848  -51.6056 H         1 UNK         0.3000 
    206 H206       -5.6945  -23.0583  -52.4034 H         1 UNK         0.0600 
    207 H207       -4.6538  -21.9706  -54.2849 H         1 UNK         0.0600 
    208 H208       -6.2105  -21.1963  -54.1062 H         1 UNK         0.0600 
    209 H209       -4.7562  -20.3796  -53.5472 H         1 UNK         0.0600 
    210 H210       -7.9020  -21.9914  -52.6904 H         1 UNK         0.3000 
    211 H211       -9.0844  -21.5081  -50.2605 H         1 UNK         0.0600 
    212 H212      -10.0649  -20.7214  -53.0569 H         1 UNK         0.0600 
    213 H213      -11.0855  -20.8592  -51.6306 H         1 UNK         0.0600 
    214 H214      -10.2919  -22.2869  -52.2752 H         1 UNK         0.0600 
    215 H215       -9.7397  -19.8216  -49.0626 H         1 UNK         0.3000 
    216 H216       -9.7463  -17.8792  -48.0389 H         1 UNK         0.0600 
    217 H217      -10.0411  -15.7684  -49.2269 H         1 UNK         0.0600 
    218 H218      -10.9751  -17.0034  -50.0538 H         1 UNK         0.0600 
    219 H219       -9.4418  -16.4516  -50.7288 H         1 UNK         0.0600 
    220 H220       -7.2498  -19.3410  -48.6330 H         1 UNK         0.3000 
    221 H221       -5.1067  -19.3507  -48.1410 H         1 UNK         0.0600 
    222 H222       -4.2018  -17.8280  -46.4537 H         1 UNK         0.0600 
    223 H223       -5.5511  -16.7156  -46.6463 H         1 UNK         0.0600 
    224 H224       -5.8143  -18.3256  -45.9768 H         1 UNK         0.0600 
    225 H225       -5.4337  -18.8685  -50.5999 H         1 UNK         0.3000 
    226 H226       -4.0098  -16.4126  -51.4908 H         1 UNK         0.0600 
    227 H227       -6.1773  -16.7930  -52.5375 H         1 UNK         0.0600 
    228 H228       -4.9397  -17.1074  -53.7425 H         1 UNK         0.0600 
    229 H229       -5.7693  -18.4468  -52.9535 H         1 UNK         0.0600 
    230 H230       -2.4002  -16.5562  -53.1098 H         1 UNK         0.3000 
    231 H231       -0.3648  -18.4872  -52.4639 H         1 UNK         0.0600 
    232 H232        1.0395  -16.9813  -53.8587 H         1 UNK         0.0600 
    233 H233        0.0704  -16.0376  -52.7493 H         1 UNK         0.0600 
    234 H234       -0.3925  -16.1439  -54.4456 H         1 UNK         0.0600 
    235 H235       -2.8486  -18.8730  -54.6433 H         1 UNK         0.3000 
    236 H236       -1.4481  -19.8461  -56.9564 H         1 UNK         0.0600 
    237 H237       -4.3327  -20.2885  -56.0308 H         1 UNK         0.0600 
    238 H238       -3.7586  -19.0155  -57.1034 H         1 UNK         0.0600 
    239 H239       -3.7019  -20.6925  -57.6198 H         1 UNK         0.0600 
    240 H240       -2.1778  -21.2988  -53.9016 H         1 UNK         0.3000 
    241 H241       -1.7676  -23.2186  -52.9348 H         1 UNK         0.0600 
    242 H242       -2.8613  -26.4522  -54.3789 H         1 UNK         0.3800 
    243 H243       -1.4333  -25.9480  -53.5282 H         1 UNK         0.3800 
    244 H244        0.2073  -23.8250  -55.1907 H         1 UNK         0.0800 
    245 H245        0.1805  -24.6263  -53.6466 H         1 UNK         0.0800 
    246 H246        0.2625  -23.3186  -51.3618 H         1 UNK         0.0800 
    247 H247        1.8878  -23.8477  -51.7197 H         1 UNK         0.0800 
@<TRIPOS>BOND
     1    1    2 1    
     2    1  127 1    
     3    1  128 1    
     4    1  129 1    
     5    2    3 2    
     6    2    4 am   BACKBONE|DICT|INTERRES
     7    4    5 1    
     8    4  130 1    
     9    5    6 1    
    10    5   65 1    
    11    5  131 1    
    12    6    7 1    
    13    6  132 1    
    14    6  133 1    
    15    7    8 1    
    16    8    9 1    
    17    8  134 1    
    18    8  135 1    
    19    9   10 ar   
    20    9   14 ar   
    21   10   11 ar   
    22   10  136 1    
    23   11   12 ar   
    24   11  126 1    
    25   12   13 ar   
    26   12  137 1    
    27   13   14 ar   
    28   13   15 1    
    29   14  138 1    
    30   15   16 1    
    31   15  139 1    
    32   15  140 1    
    33   16   17 1    
    34   17   18 1    
    35   17  141 1    
    36   17  142 1    
    37   18   19 1    
    38   18   67 1    
    39   18  143 1    
    40   19   20 am   BACKBONE|DICT|INTERRES
    41   19  144 1    
    42   20   21 2    
    43   20   22 1    
    44   22   23 1    
    45   22   24 1    
    46   22  145 1    
    47   23  146 1    
    48   23  147 1    
    49   23  148 1    
    50   24   25 am   BACKBONE|DICT|INTERRES
    51   24  149 1    
    52   25   26 2    
    53   25   27 1    
    54   27   28 1    
    55   27   29 1    
    56   27  150 1    
    57   28  151 1    
    58   28  152 1    
    59   28  153 1    
    60   29   30 am   BACKBONE|DICT|INTERRES
    61   29  154 1    
    62   30   31 2    
    63   30   32 1    
    64   32   33 1    
    65   32   34 1    
    66   32  155 1    
    67   33  156 1    
    68   33  157 1    
    69   33  158 1    
    70   34   35 am   BACKBONE|DICT|INTERRES
    71   34  159 1    
    72   35   36 2    
    73   35   37 1    
    74   37   38 1    
    75   37   39 1    
    76   37  160 1    
    77   38  161 1    
    78   38  162 1    
    79   38  163 1    
    80   39   40 am   BACKBONE|DICT|INTERRES
    81   39  164 1    
    82   40   41 2    
    83   40   42 1    
    84   42   43 1    
    85   42   44 1    
    86   42  165 1    
    87   43  166 1    
    88   43  167 1    
    89   43  168 1    
    90   44   45 am   BACKBONE|DICT|INTERRES
    91   44  169 1    
    92   45   46 2    
    93   45   47 1    
    94   47   48 1    
    95   47   49 1    
    96   47  170 1    
    97   48  171 1    
    98   48  172 1    
    99   48  173 1    
   100   49   50 am   BACKBONE|DICT|INTERRES
   101   49  174 1    
   102   50   51 2    
   103   50   52 1    
   104   52   53 1    
   105   52   54 1    
   106   52  175 1    
   107   53  176 1    
   108   53  177 1    
   109   53  178 1    
   110   54   55 am   BACKBONE|DICT|INTERRES
   111   54  179 1    
   112   55   56 2    
   113   55   57 1    
   114   57   58 1    
   115   57   59 1    
   116   57  180 1    
   117   58  181 1    
   118   58  182 1    
   119   58  183 1    
   120   59   60 am   BACKBONE|DICT|INTERRES
   121   59  184 1    
   122   60   61 2    
   123   60   62 1    
   124   62   63 1    
   125   62   64 1    
   126   62  185 1    
   127   63  186 1    
   128   63  187 1    
   129   63  188 1    
   130   64   65 am   BACKBONE|DICT|INTERRES
   131   64  189 1    
   132   65   66 2    
   133   67   68 2    
   134   67   69 am   BACKBONE|DICT|INTERRES
   135   69   70 1    
   136   69  190 1    
   137   70   71 1    
   138   70   72 1    
   139   70  191 1    
   140   71  192 1    
   141   71  193 1    
   142   71  194 1    
   143   72   73 2    
   144   72   74 am   BACKBONE|DICT|INTERRES
   145   74   75 1    
   146   74  195 1    
   147   75   76 1    
   148   75   77 1    
   149   75  196 1    
   150   76  197 1    
   151   76  198 1    
   152   76  199 1    
   153   77   78 2    
   154   77   79 am   BACKBONE|DICT|INTERRES
   155   79   80 1    
   156   79  200 1    
   157   80   81 1    
   158   80   82 1    
   159   80  201 1    
   160   81  202 1    
   161   81  203 1    
   162   81  204 1    
   163   82   83 2    
   164   82   84 am   BACKBONE|DICT|INTERRES
   165   84   85 1    
   166   84  205 1    
   167   85   86 1    
   168   85   87 1    
   169   85  206 1    
   170   86  207 1    
   171   86  208 1    
   172   86  209 1    
   173   87   88 2    
   174   87   89 am   BACKBONE|DICT|INTERRES
   175   89   90 1    
   176   89  210 1    
   177   90   91 1    
   178   90   92 1    
   179   90  211 1    
   180   91  212 1    
   181   91  213 1    
   182   91  214 1    
   183   92   93 2    
   184   92   94 am   BACKBONE|DICT|INTERRES
   185   94   95 1    
   186   94  215 1    
   187   95   96 1    
   188   95   97 1    
   189   95  216 1    
   190   96  217 1    
   191   96  218 1    
   192   96  219 1    
   193   97   98 2    
   194   97   99 am   BACKBONE|DICT|INTERRES
   195   99  100 1    
   196   99  220 1    
   197  100  101 1    
   198  100  102 1    
   199  100  221 1    
   200  101  222 1    
   201  101  223 1    
   202  101  224 1    
   203  102  103 2    
   204  102  104 am   BACKBONE|DICT|INTERRES
   205  104  105 1    
   206  104  225 1    
   207  105  106 1    
   208  105  107 1    
   209  105  226 1    
   210  106  227 1    
   211  106  228 1    
   212  106  229 1    
   213  107  108 2    
   214  107  109 am   BACKBONE|DICT|INTERRES
   215  109  110 1    
   216  109  230 1    
   217  110  111 1    
   218  110  112 1    
   219  110  231 1    
   220  111  232 1    
   221  111  233 1    
   222  111  234 1    
   223  112  113 2    
   224  112  114 am   BACKBONE|DICT|INTERRES
   225  114  115 1    
   226  114  235 1    
   227  115  116 1    
   228  115  117 1    
   229  115  236 1    
   230  116  237 1    
   231  116  238 1    
   232  116  239 1    
   233  117  118 2    
   234  117  119 am   BACKBONE|DICT|INTERRES
   235  119  120 1    
   236  119  240 1    
   237  120  121 1    
   238  120  124 1    
   239  120  241 1    
   240  121  122 am   BACKBONE|DICT|INTERRES
   241  121  123 2    
   242  122  242 1    
   243  122  243 1    
   244  124  125 1    
   245  124  244 1    
   246  124  245 1    
   247  125  126 1    
   248  126  246 1    
   249  126  247 1    
@<TRIPOS>SUBSTRUCTURE
     1 UNK         1 GROUP             0       ****    0 ROOT    
