@<TRIPOS>MOLECULE
3R540
247   249    1
SMALL
USER_CHARGES


@<TRIPOS>ATOM
      1 CA          4.6194  -19.5504  -47.4586 C.3       0 UNK        -0.1800 
      2 C           4.5050  -18.0416  -47.6206 C.2       0 UNK         0.5000 
      3 O           4.0223  -17.3590  -46.7177 O.2       0 UNK        -0.5000 
      4 N           4.9711  -17.5180  -48.7616 N.am      1 UNK        -0.5000 
      5 CA          4.8713  -16.1086  -49.1693 C.3       1 UNK         0.1400 
      6 C6          5.3904  -15.8841  -50.6126 C.3       23 UNK        -0.0398 
      7 S7          4.7013  -17.0361  -51.8533 S.3       23 UNK        -0.2404 
      8 C8          3.4594  -16.0072  -52.6959 C.3       23 UNK        -0.0205 
      9 C9          2.0840  -16.1701  -52.0704 C.ar      23 UNK        -0.0193 
     10 C10         1.1980  -17.1241  -52.5799 C.ar      23 UNK        -0.1150 
     11 C11        -0.0765  -17.2688  -52.0290 C.ar      23 UNK        -0.0193 
     12 C12        -0.4621  -16.4551  -50.9620 C.ar      23 UNK        -0.1150 
     13 C13         0.4181  -15.5086  -50.4313 C.ar      23 UNK        -0.0193 
     14 C14         1.6894  -15.3654  -50.9966 C.ar      23 UNK        -0.1150 
     15 C15        -0.0130  -14.6228  -49.2699 C.3       23 UNK        -0.0205 
     16 S16         0.2119  -15.4333  -47.6517 S.3       23 UNK        -0.2404 
     17 C17        -1.2222  -16.5600  -47.5785 C.3       23 UNK        -0.0398 
     18 CA         -0.7826  -18.0421  -47.6067 C.3       11 UNK         0.1400 
     19 N          -0.1697  -18.4632  -46.3415 N.am      11 UNK        -0.5000 
     20 C           0.5970  -19.5536  -46.2139 C.2       10 UNK         0.5000 
     21 O           0.8684  -20.3082  -47.1462 O.2       10 UNK        -0.5000 
     22 CA          1.0890  -19.8919  -44.7990 C.3       10 UNK         0.1400 
     23 CB          2.2995  -19.0404  -44.4094 C.3       10 UNK        -0.1800 
     24 N           0.0597  -19.7342  -43.7751 N.am      10 UNK        -0.5000 
     25 C          -1.0035  -20.5379  -43.6405 C.2       9 UNK         0.5000 
     26 O          -1.3532  -21.3365  -44.5091 O.2       9 UNK        -0.5000 
     27 CA         -1.8043  -20.4298  -42.3219 C.3       9 UNK         0.1400 
     28 CB         -2.4043  -21.7845  -41.8906 C.3       9 UNK        -0.1800 
     29 N          -1.0439  -19.8079  -41.2218 N.am      9 UNK        -0.5000 
     30 C           0.0798  -20.2886  -40.6625 C.2       8 UNK         0.5000 
     31 O           0.5898  -21.3607  -40.9911 O.2       8 UNK        -0.5000 
     32 CA          0.7707  -19.4358  -39.5823 C.3       8 UNK         0.1400 
     33 CB          2.3028  -19.6357  -39.5827 C.3       8 UNK        -0.1800 
     34 N           0.4671  -18.0048  -39.6905 N.am      8 UNK        -0.5000 
     35 C           0.5626  -17.1594  -38.6534 C.2       7 UNK         0.5000 
     36 O           0.7679  -17.5184  -37.4928 O.2       7 UNK        -0.5000 
     37 CA          0.4325  -15.6595  -38.9583 C.3       7 UNK         0.1400 
     38 CB          1.6679  -15.1435  -39.7144 C.3       7 UNK        -0.1800 
     39 N          -0.7784  -15.3565  -39.7152 N.am      7 UNK        -0.5000 
     40 C          -2.0012  -15.2597  -39.1743 C.2       6 UNK         0.5000 
     41 O          -2.2329  -15.4092  -37.9741 O.2       6 UNK        -0.5000 
     42 CA         -3.1640  -14.9250  -40.1296 C.3       6 UNK         0.1400 
     43 CB         -3.4690  -13.4195  -40.0944 C.3       6 UNK        -0.1800 
     44 N          -2.9086  -15.3234  -41.5149 N.am      6 UNK        -0.5000 
     45 C          -2.8656  -16.5925  -41.9398 C.2       5 UNK         0.5000 
     46 O          -3.0423  -17.5668  -41.2102 O.2       5 UNK        -0.5000 
     47 CA         -2.4965  -16.8036  -43.4190 C.3       5 UNK         0.1400 
     48 CB         -3.7265  -16.6178  -44.3204 C.3       5 UNK        -0.1800 
     49 N          -1.4061  -15.9264  -43.8518 N.am      5 UNK        -0.5000 
     50 C          -0.1584  -15.9792  -43.3656 C.2       4 UNK         0.5000 
     51 O           0.2308  -16.8335  -42.5599 O.2       4 UNK        -0.5000 
     52 CA          0.7859  -14.8628  -43.8245 C.3       4 UNK         0.1400 
     53 CB          0.4544  -13.5410  -43.1069 C.3       4 UNK        -0.1800 
     54 N           2.1676  -15.2443  -43.5554 N.am      4 UNK        -0.5000 
     55 C           3.2343  -14.7577  -44.1997 C.2       3 UNK         0.5000 
     56 O           3.1517  -13.9195  -45.1003 O.2       3 UNK        -0.5000 
     57 CA          4.6260  -15.2447  -43.7491 C.3       3 UNK         0.1400 
     58 CB          4.6228  -16.5843  -42.9876 C.3       3 UNK        -0.1800 
     59 N           5.4982  -15.3673  -44.9145 N.am      3 UNK        -0.5000 
     60 C           6.5776  -14.6125  -45.1570 C.2       2 UNK         0.5000 
     61 O           6.9930  -13.7464  -44.3852 O.2       2 UNK        -0.5000 
     62 CA          7.3456  -14.8668  -46.4709 C.3       2 UNK         0.1400 
     63 CB          8.6549  -15.6207  -46.1886 C.3       2 UNK        -0.1800 
     64 N           6.5796  -15.6210  -47.4635 N.am      2 UNK        -0.5000 
     65 C           5.5849  -15.1249  -48.2126 C.2       1 UNK         0.5000 
     66 O           5.2341  -13.9451  -48.1840 O.2       1 UNK        -0.5000 
     67 C          -1.9447  -18.9708  -48.0202 C.2       11 UNK         0.5000 
     68 O          -2.2008  -19.1101  -49.2147 O.2       11 UNK        -0.5000 
     69 N          -2.6022  -19.6216  -47.0475 N.am      12 UNK        -0.5000 
     70 CA         -3.6076  -20.6535  -47.3055 C.3       12 UNK         0.1400 
     71 CB         -4.4635  -20.8911  -46.0525 C.3       12 UNK        -0.1800 
     72 C          -2.9505  -21.9557  -47.7921 C.2       12 UNK         0.5000 
     73 O          -3.4140  -22.5361  -48.7737 O.2       12 UNK        -0.5000 
     74 N          -1.8547  -22.3641  -47.1363 N.am      13 UNK        -0.5000 
     75 CA         -1.0273  -23.5118  -47.5136 C.3       13 UNK         0.1400 
     76 CB          0.0438  -23.7525  -46.4400 C.3       13 UNK        -0.1800 
     77 C          -0.3881  -23.3527  -48.9055 C.2       13 UNK         0.5000 
     78 O          -0.4050  -24.3019  -49.6892 O.2       13 UNK        -0.5000 
     79 N           0.0967  -22.1414  -49.2168 N.am      14 UNK        -0.5000 
     80 CA          0.6137  -21.7551  -50.5340 C.3       14 UNK         0.1400 
     81 CB          1.2357  -20.3530  -50.4468 C.3       14 UNK        -0.1800 
     82 C          -0.4507  -21.8067  -51.6499 C.2       14 UNK         0.5000 
     83 O          -0.1030  -22.0384  -52.8072 O.2       14 UNK        -0.5000 
     84 N          -1.7259  -21.6298  -51.2796 N.am      15 UNK        -0.5000 
     85 CA         -2.8952  -21.7926  -52.1434 C.3       15 UNK         0.1400 
     86 CB         -3.9646  -20.7584  -51.7452 C.3       15 UNK        -0.1800 
     87 C          -3.4541  -23.2312  -52.1156 C.2       15 UNK         0.5000 
     88 O          -4.6076  -23.4279  -52.4917 O.2       15 UNK        -0.5000 
     89 N          -2.6553  -24.2094  -51.6598 N.am      16 UNK        -0.5000 
     90 CA         -2.9695  -25.6402  -51.5683 C.3       16 UNK         0.1400 
     91 CB         -3.1254  -26.2562  -52.9747 C.3       16 UNK        -0.1800 
     92 C          -4.1683  -25.9263  -50.6407 C.2       16 UNK         0.5000 
     93 O          -5.0755  -26.6743  -51.0083 O.2       16 UNK        -0.5000 
     94 N          -4.1393  -25.3001  -49.4557 N.am      17 UNK        -0.5000 
     95 CA         -5.1906  -25.2742  -48.4338 C.3       17 UNK         0.1400 
     96 CB         -5.5197  -26.6871  -47.9064 C.3       17 UNK        -0.1800 
     97 C          -6.4230  -24.4832  -48.9158 C.2       17 UNK         0.5000 
     98 O          -7.5569  -24.9445  -48.7744 O.2       17 UNK        -0.5000 
     99 N          -6.1519  -23.2922  -49.4710 N.am      18 UNK        -0.5000 
    100 CA        -7.1057  -22.3095  -49.9936 C.3       18 UNK         0.1400 
    101 CB        -7.9072  -21.6737  -48.8391 C.3       18 UNK        -0.1800 
    102 C         -7.9996  -22.8661  -51.1220 C.2       18 UNK         0.5000 
    103 O         -9.2185  -22.6792  -51.1031 O.2       18 UNK        -0.5000 
    104 N         -7.3773  -23.5257  -52.1072 N.am      19 UNK        -0.5000 
    105 CA        -8.0175  -24.1075  -53.2879 C.3       19 UNK         0.1400 
    106 CB        -7.1222  -25.2326  -53.8368 C.3       19 UNK        -0.1800 
    107 C         -8.3426  -23.0339  -54.3490 C.2       19 UNK         0.5000 
    108 O         -7.8549  -23.1013  -55.4782 O.2       19 UNK        -0.5000 
    109 N         -9.1567  -22.0492  -53.9485 N.am      20 UNK        -0.5000 
    110 CA        -9.7060  -20.9162  -54.7040 C.3       20 UNK         0.1400 
    111 CB       -10.5420  -21.3985  -55.9052 C.3       20 UNK        -0.1800 
    112 C         -8.6919  -19.8373  -55.1374 C.2       20 UNK         0.5000 
    113 O         -9.0558  -18.6602  -55.1455 O.2       20 UNK        -0.5000 
    114 N         -7.4595  -20.2207  -55.4868 N.am      21 UNK        -0.5000 
    115 CA        -6.4111  -19.3261  -55.9716 C.3       21 UNK         0.1400 
    116 CB        -6.6407  -19.0251  -57.4659 C.3       21 UNK        -0.1800 
    117 C         -5.0225  -19.9409  -55.7433 C.2       21 UNK         0.5000 
    118 O         -4.9075  -21.1394  -55.4788 O.2       21 UNK        -0.5000 
    119 N         -3.9920  -19.0984  -55.8756 N.am      22 UNK        -0.5000 
    120 CA        -2.5687  -19.4640  -55.7591 C.3       22 UNK         0.1400 
    121 C         -1.9680  -20.1378  -57.0288 C.2       22 UNK         0.5000 
    122 N         -2.6877  -20.2373  -58.1399 N.am      22 UNK        -0.7600 
    123 O         -0.8259  -20.5873  -57.0039 O.2       22 UNK        -0.5000 
    124 C124       -1.7063  -18.2542  -55.3111 C.3       23 UNK        -0.0398 
    125 S125       -2.2530  -17.5821  -53.7044 S.3       23 UNK        -0.2404 
    126 C126       -1.0397  -18.3128  -52.5629 C.3       23 UNK        -0.0205 
    127 H127        5.1486  -19.7911  -46.5367 H         1 UNK         0.0600 
    128 H128        5.1586  -20.0073  -48.2887 H         1 UNK         0.0600 
    129 H129        3.6270  -19.9981  -47.4130 H         1 UNK         0.0600 
    130 H130        5.3519  -18.1353  -49.4650 H         1 UNK         0.3000 
    131 H131        3.8106  -15.8542  -49.1426 H         1 UNK         0.0600 
    132 H132        5.2008  -14.8566  -50.9270 H         1 UNK         0.0800 
    133 H133        6.4751  -16.0042  -50.6417 H         1 UNK         0.0800 
    134 H134        3.4212  -16.3051  -53.7449 H         1 UNK         0.0800 
    135 H135        3.7570  -14.9579  -52.6985 H         1 UNK         0.0800 
    136 H136        1.5000  -17.7527  -53.4058 H         1 UNK         0.1150 
    137 H137       -1.4547  -16.5664  -50.5521 H         1 UNK         0.1150 
    138 H138        2.3708  -14.6241  -50.6038 H         1 UNK         0.1150 
    139 H139        0.5706  -13.7010  -49.2749 H         1 UNK         0.0800 
    140 H140       -1.0529  -14.3168  -49.3937 H         1 UNK         0.0800 
    141 H141       -1.9031  -16.3279  -48.3973 H         1 UNK         0.0800 
    142 H142       -1.7818  -16.3412  -46.6713 H         1 UNK         0.0800 
    143 H143       -0.0275  -18.1429  -48.3894 H         1 UNK         0.0600 
    144 H144       -0.3424  -17.8907  -45.5303 H         1 UNK         0.3000 
    145 H145        1.4004  -20.9388  -44.7957 H         1 UNK         0.0600 
    146 H146        2.6014  -19.2273  -43.3785 H         1 UNK         0.0600 
    147 H147        3.1548  -19.2761  -45.0398 H         1 UNK         0.0600 
    148 H148        2.0944  -17.9750  -44.5149 H         1 UNK         0.0600 
    149 H149        0.2517  -19.0632  -43.0433 H         1 UNK         0.3000 
    150 H150       -2.6498  -19.7776  -42.5321 H         1 UNK         0.0600 
    151 H151       -3.1032  -22.1577  -42.6401 H         1 UNK         0.0600 
    152 H152       -2.9549  -21.6915  -40.9545 H         1 UNK         0.0600 
    153 H153       -1.6378  -22.5479  -41.7563 H         1 UNK         0.0600 
    154 H154       -1.4319  -18.9382  -40.8743 H         1 UNK         0.3000 
    155 H155        0.3794  -19.8073  -38.6330 H         1 UNK         0.0600 
    156 H156        2.7463  -19.3005  -40.5211 H         1 UNK         0.0600 
    157 H157        2.5687  -20.6847  -39.4474 H         1 UNK         0.0600 
    158 H158        2.7803  -19.0844  -38.7728 H         1 UNK         0.0600 
    159 H159        0.3150  -17.6352  -40.6230 H         1 UNK         0.3000 
    160 H160        0.3890  -15.1287  -38.0045 H         1 UNK         0.0600 
    161 H161        1.7716  -15.6083  -40.6938 H         1 UNK         0.0600 
    162 H162        2.5809  -15.3551  -39.1564 H         1 UNK         0.0600 
    163 H163        1.6206  -14.0638  -39.8558 H         1 UNK         0.0600 
    164 H164       -0.6829  -15.2527  -40.7129 H         1 UNK         0.3000 
    165 H165       -4.0466  -15.4617  -39.7749 H         1 UNK         0.0600 
    166 H166       -4.3356  -13.1777  -40.7101 H         1 UNK         0.0600 
    167 H167       -3.6920  -13.0894  -39.0789 H         1 UNK         0.0600 
    168 H168       -2.6251  -12.8289  -40.4535 H         1 UNK         0.0600 
    169 H169       -2.7533  -14.5805  -42.1800 H         1 UNK         0.3000 
    170 H170       -2.1547  -17.8295  -43.5358 H         1 UNK         0.0600 
    171 H171       -4.5687  -17.2089  -43.9575 H         1 UNK         0.0600 
    172 H172       -4.0497  -15.5769  -44.3563 H         1 UNK         0.0600 
    173 H173       -3.5297  -16.9467  -45.3396 H         1 UNK         0.0600 
    174 H174       -1.6517  -15.1817  -44.4889 H         1 UNK         0.3000 
    175 H175        0.6533  -14.7319  -44.8985 H         1 UNK         0.0600 
    176 H176        0.5742  -13.6250  -42.0272 H         1 UNK         0.0600 
    177 H177        1.1010  -12.7330  -43.4495 H         1 UNK         0.0600 
    178 H178       -0.5726  -13.2297  -43.3006 H         1 UNK         0.0600 
    179 H179        2.2789  -15.9716  -42.8618 H         1 UNK         0.3000 
    180 H180        5.0010  -14.4805  -43.0658 H         1 UNK         0.0600 
    181 H181        4.2933  -17.4025  -43.6245 H         1 UNK         0.0600 
    182 H182        3.9843  -16.5556  -42.1041 H         1 UNK         0.0600 
    183 H183        5.6268  -16.8298  -42.6411 H         1 UNK         0.0600 
    184 H184        5.1731  -16.0044  -45.6345 H         1 UNK         0.3000 
    185 H185        7.5982  -13.8928  -46.8953 H         1 UNK         0.0600 
    186 H186        9.2765  -15.0739  -45.4783 H         1 UNK         0.0600 
    187 H187        8.4670  -16.6090  -45.7669 H         1 UNK         0.0600 
    188 H188        9.2413  -15.7487  -47.0988 H         1 UNK         0.0600 
    189 H189        6.7964  -16.6030  -47.5526 H         1 UNK         0.3000 
    190 H190       -2.3030  -19.5044  -46.0919 H         1 UNK         0.3000 
    191 H191       -4.2722  -20.3008  -48.0975 H         1 UNK         0.0600 
    192 H192       -3.8743  -21.2645  -45.2156 H         1 UNK         0.0600 
    193 H193       -5.2454  -21.6249  -46.2527 H         1 UNK         0.0600 
    194 H194       -4.9553  -19.9725  -45.7324 H         1 UNK         0.0600 
    195 H195       -1.5722  -21.8646  -46.2968 H         1 UNK         0.3000 
    196 H196       -1.6760  -24.3894  -47.5455 H         1 UNK         0.0600 
    197 H197        0.6505  -24.6258  -46.6823 H         1 UNK         0.0600 
    198 H198       -0.4098  -23.9312  -45.4648 H         1 UNK         0.0600 
    199 H199        0.7173  -22.9012  -46.3427 H         1 UNK         0.0600 
    200 H200        0.1460  -21.4353  -48.4864 H         1 UNK         0.3000 
    201 H201        1.4024  -22.4615  -50.8004 H         1 UNK         0.0600 
    202 H202        2.0369  -20.3184  -49.7084 H         1 UNK         0.0600 
    203 H203        0.4938  -19.6041  -50.1714 H         1 UNK         0.0600 
    204 H204        1.6637  -20.0525  -51.4040 H         1 UNK         0.0600 
    205 H205       -1.9231  -21.4480  -50.3043 H         1 UNK         0.3000 
    206 H206       -2.6132  -21.5962  -53.1777 H         1 UNK         0.0600 
    207 H207       -3.6030  -19.7407  -51.8760 H         1 UNK         0.0600 
    208 H208       -4.8599  -20.8517  -52.3613 H         1 UNK         0.0600 
    209 H209       -4.2611  -20.8688  -50.7031 H         1 UNK         0.0600 
    210 H210       -1.7430  -23.9516  -51.3032 H         1 UNK         0.3000 
    211 H211       -2.1051  -26.1131  -51.1002 H         1 UNK         0.0600 
    212 H212       -3.9975  -25.8629  -53.4970 H         1 UNK         0.0600 
    213 H213       -3.2417  -27.3388  -52.9155 H         1 UNK         0.0600 
    214 H214       -2.2484  -26.0577  -53.5907 H         1 UNK         0.0600 
    215 H215       -3.3879  -24.6391  -49.3025 H         1 UNK         0.3000 
    216 H216       -4.7804  -24.7097  -47.5951 H         1 UNK         0.0600 
    217 H217       -6.1840  -26.6317  -47.0434 H         1 UNK         0.0600 
    218 H218       -4.6176  -27.2094  -47.5884 H         1 UNK         0.0600 
    219 H219       -6.0175  -27.3012  -48.6569 H         1 UNK         0.0600 
    220 H220       -5.1744  -23.0219  -49.5152 H         1 UNK         0.3000 
    221 H221       -6.5137  -21.5161  -50.4485 H         1 UNK         0.0600 
    222 H222       -8.5553  -22.3999  -48.3475 H         1 UNK         0.0600 
    223 H223       -7.2431  -21.2518  -48.0847 H         1 UNK         0.0600 
    224 H224       -8.5402  -20.8632  -49.2022 H         1 UNK         0.0600 
    225 H225       -6.3590  -23.5761  -52.0976 H         1 UNK         0.3000 
    226 H226       -8.9635  -24.5606  -52.9846 H         1 UNK         0.0600 
    227 H227       -6.9156  -25.9817  -53.0722 H         1 UNK         0.0600 
    228 H228       -7.6032  -25.7431  -54.6717 H         1 UNK         0.0600 
    229 H229       -6.1666  -24.8475  -54.1939 H         1 UNK         0.0600 
    230 H230       -9.4442  -22.0892  -52.9747 H         1 UNK         0.3000 
    231 H231      -10.3925  -20.4242  -54.0132 H         1 UNK         0.0600 
    232 H232      -11.3123  -22.1036  -55.5929 H         1 UNK         0.0600 
    233 H233       -9.9263  -21.8856  -56.6617 H         1 UNK         0.0600 
    234 H234      -11.0458  -20.5607  -56.3888 H         1 UNK         0.0600 
    235 H235       -7.2171  -21.2078  -55.4550 H         1 UNK         0.3000 
    236 H236       -6.4511  -18.3932  -55.4050 H         1 UNK         0.0600 
    237 H237       -5.8781  -18.3519  -57.8588 H         1 UNK         0.0600 
    238 H238       -6.6166  -19.9367  -58.0643 H         1 UNK         0.0600 
    239 H239       -7.6048  -18.5441  -57.6312 H         1 UNK         0.0600 
    240 H240       -4.1762  -18.1293  -56.0902 H         1 UNK         0.3000 
    241 H241       -2.4873  -20.2184  -54.9766 H         1 UNK         0.0600 
    242 H242       -3.6285  -19.8808  -58.1770 H         1 UNK         0.3800 
    243 H243       -2.2867  -20.6798  -58.9521 H         1 UNK         0.3800 
    244 H244       -0.6504  -18.5227  -55.2483 H         1 UNK         0.0800 
    245 H245       -1.7652  -17.4551  -56.0517 H         1 UNK         0.0800 
    246 H246       -1.5709  -18.7583  -51.7238 H         1 UNK         0.0800 
    247 H247       -0.4985  -19.1308  -53.0391 H         1 UNK         0.0800 
@<TRIPOS>BOND
     1    1    2 1    
     2    1  127 1    
     3    1  128 1    
     4    1  129 1    
     5    2    3 2    
     6    2    4 am   BACKBONE|DICT|INTERRES
     7    4    5 1    
     8    4  130 1    
     9    5    6 1    
    10    5   65 1    
    11    5  131 1    
    12    6    7 1    
    13    6  132 1    
    14    6  133 1    
    15    7    8 1    
    16    8    9 1    
    17    8  134 1    
    18    8  135 1    
    19    9   10 ar   
    20    9   14 ar   
    21   10   11 ar   
    22   10  136 1    
    23   11   12 ar   
    24   11  126 1    
    25   12   13 ar   
    26   12  137 1    
    27   13   14 ar   
    28   13   15 1    
    29   14  138 1    
    30   15   16 1    
    31   15  139 1    
    32   15  140 1    
    33   16   17 1    
    34   17   18 1    
    35   17  141 1    
    36   17  142 1    
    37   18   19 1    
    38   18   67 1    
    39   18  143 1    
    40   19   20 am   BACKBONE|DICT|INTERRES
    41   19  144 1    
    42   20   21 2    
    43   20   22 1    
    44   22   23 1    
    45   22   24 1    
    46   22  145 1    
    47   23  146 1    
    48   23  147 1    
    49   23  148 1    
    50   24   25 am   BACKBONE|DICT|INTERRES
    51   24  149 1    
    52   25   26 2    
    53   25   27 1    
    54   27   28 1    
    55   27   29 1    
    56   27  150 1    
    57   28  151 1    
    58   28  152 1    
    59   28  153 1    
    60   29   30 am   BACKBONE|DICT|INTERRES
    61   29  154 1    
    62   30   31 2    
    63   30   32 1    
    64   32   33 1    
    65   32   34 1    
    66   32  155 1    
    67   33  156 1    
    68   33  157 1    
    69   33  158 1    
    70   34   35 am   BACKBONE|DICT|INTERRES
    71   34  159 1    
    72   35   36 2    
    73   35   37 1    
    74   37   38 1    
    75   37   39 1    
    76   37  160 1    
    77   38  161 1    
    78   38  162 1    
    79   38  163 1    
    80   39   40 am   BACKBONE|DICT|INTERRES
    81   39  164 1    
    82   40   41 2    
    83   40   42 1    
    84   42   43 1    
    85   42   44 1    
    86   42  165 1    
    87   43  166 1    
    88   43  167 1    
    89   43  168 1    
    90   44   45 am   BACKBONE|DICT|INTERRES
    91   44  169 1    
    92   45   46 2    
    93   45   47 1    
    94   47   48 1    
    95   47   49 1    
    96   47  170 1    
    97   48  171 1    
    98   48  172 1    
    99   48  173 1    
   100   49   50 am   BACKBONE|DICT|INTERRES
   101   49  174 1    
   102   50   51 2    
   103   50   52 1    
   104   52   53 1    
   105   52   54 1    
   106   52  175 1    
   107   53  176 1    
   108   53  177 1    
   109   53  178 1    
   110   54   55 am   BACKBONE|DICT|INTERRES
   111   54  179 1    
   112   55   56 2    
   113   55   57 1    
   114   57   58 1    
   115   57   59 1    
   116   57  180 1    
   117   58  181 1    
   118   58  182 1    
   119   58  183 1    
   120   59   60 am   BACKBONE|DICT|INTERRES
   121   59  184 1    
   122   60   61 2    
   123   60   62 1    
   124   62   63 1    
   125   62   64 1    
   126   62  185 1    
   127   63  186 1    
   128   63  187 1    
   129   63  188 1    
   130   64   65 am   BACKBONE|DICT|INTERRES
   131   64  189 1    
   132   65   66 2    
   133   67   68 2    
   134   67   69 am   BACKBONE|DICT|INTERRES
   135   69   70 1    
   136   69  190 1    
   137   70   71 1    
   138   70   72 1    
   139   70  191 1    
   140   71  192 1    
   141   71  193 1    
   142   71  194 1    
   143   72   73 2    
   144   72   74 am   BACKBONE|DICT|INTERRES
   145   74   75 1    
   146   74  195 1    
   147   75   76 1    
   148   75   77 1    
   149   75  196 1    
   150   76  197 1    
   151   76  198 1    
   152   76  199 1    
   153   77   78 2    
   154   77   79 am   BACKBONE|DICT|INTERRES
   155   79   80 1    
   156   79  200 1    
   157   80   81 1    
   158   80   82 1    
   159   80  201 1    
   160   81  202 1    
   161   81  203 1    
   162   81  204 1    
   163   82   83 2    
   164   82   84 am   BACKBONE|DICT|INTERRES
   165   84   85 1    
   166   84  205 1    
   167   85   86 1    
   168   85   87 1    
   169   85  206 1    
   170   86  207 1    
   171   86  208 1    
   172   86  209 1    
   173   87   88 2    
   174   87   89 am   BACKBONE|DICT|INTERRES
   175   89   90 1    
   176   89  210 1    
   177   90   91 1    
   178   90   92 1    
   179   90  211 1    
   180   91  212 1    
   181   91  213 1    
   182   91  214 1    
   183   92   93 2    
   184   92   94 am   BACKBONE|DICT|INTERRES
   185   94   95 1    
   186   94  215 1    
   187   95   96 1    
   188   95   97 1    
   189   95  216 1    
   190   96  217 1    
   191   96  218 1    
   192   96  219 1    
   193   97   98 2    
   194   97   99 am   BACKBONE|DICT|INTERRES
   195   99  100 1    
   196   99  220 1    
   197  100  101 1    
   198  100  102 1    
   199  100  221 1    
   200  101  222 1    
   201  101  223 1    
   202  101  224 1    
   203  102  103 2    
   204  102  104 am   BACKBONE|DICT|INTERRES
   205  104  105 1    
   206  104  225 1    
   207  105  106 1    
   208  105  107 1    
   209  105  226 1    
   210  106  227 1    
   211  106  228 1    
   212  106  229 1    
   213  107  108 2    
   214  107  109 am   BACKBONE|DICT|INTERRES
   215  109  110 1    
   216  109  230 1    
   217  110  111 1    
   218  110  112 1    
   219  110  231 1    
   220  111  232 1    
   221  111  233 1    
   222  111  234 1    
   223  112  113 2    
   224  112  114 am   BACKBONE|DICT|INTERRES
   225  114  115 1    
   226  114  235 1    
   227  115  116 1    
   228  115  117 1    
   229  115  236 1    
   230  116  237 1    
   231  116  238 1    
   232  116  239 1    
   233  117  118 2    
   234  117  119 am   BACKBONE|DICT|INTERRES
   235  119  120 1    
   236  119  240 1    
   237  120  121 1    
   238  120  124 1    
   239  120  241 1    
   240  121  122 am   BACKBONE|DICT|INTERRES
   241  121  123 2    
   242  122  242 1    
   243  122  243 1    
   244  124  125 1    
   245  124  244 1    
   246  124  245 1    
   247  125  126 1    
   248  126  246 1    
   249  126  247 1    
@<TRIPOS>SUBSTRUCTURE
     1 UNK         1 GROUP             0       ****    0 ROOT    
