@<TRIPOS>MOLECULE
3R540
247   249    1
SMALL
USER_CHARGES


@<TRIPOS>ATOM
      1 CA          0.9571  -10.7451  -52.7671 C.3       0 UNK        -0.1800 
      2 C           0.6338  -11.4209  -51.4419 C.2       0 UNK         0.5000 
      3 O          -0.5395  -11.6323  -51.1366 O.2       0 UNK        -0.5000 
      4 N           1.6708  -11.7584  -50.6626 N.am      1 UNK        -0.5000 
      5 CA          1.5966  -12.3942  -49.3414 C.3       1 UNK         0.1400 
      6 C6          1.0216  -13.8360  -49.3913 C.3       23 UNK        -0.0398 
      7 S7          1.5443  -14.8215  -47.9479 S.3       23 UNK        -0.2404 
      8 C8          0.3328  -16.1767  -47.9822 C.3       23 UNK        -0.0205 
      9 C9          0.7552  -17.2876  -48.9307 C.ar      23 UNK        -0.0193 
     10 C10         0.1017  -17.4568  -50.1523 C.ar      23 UNK        -0.1150 
     11 C11         0.4574  -18.5000  -51.0121 C.ar      23 UNK        -0.0193 
     12 C12         1.4983  -19.3639  -50.6505 C.ar      23 UNK        -0.1150 
     13 C13         2.1797  -19.1895  -49.4402 C.ar      23 UNK        -0.0193 
     14 C14         1.7924  -18.1568  -48.5806 C.ar      23 UNK        -0.1150 
     15 C15         3.3810  -20.0629  -49.0921 C.3       23 UNK        -0.0205 
     16 S16         2.9423  -21.7585  -48.5878 S.3       23 UNK        -0.2404 
     17 C17         2.1460  -21.4927  -46.9636 C.3       23 UNK        -0.0398 
     18 CA          0.8768  -22.3547  -46.7492 C.3       11 UNK         0.1400 
     19 N           0.3318  -22.2233  -45.3951 N.am      11 UNK        -0.5000 
     20 C          -0.6825  -22.9524  -44.9044 C.2       10 UNK         0.5000 
     21 O          -1.2188  -23.8762  -45.5167 O.2       10 UNK        -0.5000 
     22 CA         -1.2260  -22.5542  -43.5197 C.3       10 UNK         0.1400 
     23 CB         -0.3710  -23.1632  -42.3993 C.3       10 UNK        -0.1800 
     24 N          -1.3166  -21.1034  -43.3459 N.am      10 UNK        -0.5000 
     25 C          -2.1114  -20.3028  -44.0722 C.2       9 UNK         0.5000 
     26 O          -2.9045  -20.7136  -44.9182 O.2       9 UNK        -0.5000 
     27 CA         -1.9508  -18.7859  -43.8650 C.3       9 UNK         0.1400 
     28 CB         -2.7108  -18.3128  -42.6173 C.3       9 UNK        -0.1800 
     29 N          -0.5484  -18.3852  -43.7664 N.am      9 UNK        -0.5000 
     30 C           0.3593  -18.5384  -44.7390 C.2       8 UNK         0.5000 
     31 O           0.0905  -18.9813  -45.8539 O.2       8 UNK        -0.5000 
     32 CA          1.8191  -18.2043  -44.3845 C.3       8 UNK         0.1400 
     33 CB          2.0899  -16.6948  -44.4580 C.3       8 UNK        -0.1800 
     34 N           2.1695  -18.6958  -43.0536 N.am      8 UNK        -0.5000 
     35 C           2.3385  -19.9883  -42.7461 C.2       7 UNK         0.5000 
     36 O           2.2520  -20.9002  -43.5682 O.2       7 UNK        -0.5000 
     37 CA          2.6220  -20.3160  -41.2680 C.3       7 UNK         0.1400 
     38 CB          4.1278  -20.2344  -40.9774 C.3       7 UNK        -0.1800 
     39 N           1.9031  -19.4339  -40.3458 N.am      7 UNK        -0.5000 
     40 C           0.5741  -19.4473  -40.1720 C.2       6 UNK         0.5000 
     41 O          -0.1812  -20.2295  -40.7490 O.2       6 UNK        -0.5000 
     42 CA         -0.0125  -18.3669  -39.2406 C.3       6 UNK         0.1400 
     43 CB          0.0732  -18.8128  -37.7734 C.3       6 UNK        -0.1800 
     44 N           0.6204  -17.0496  -39.3894 N.am      6 UNK        -0.5000 
     45 C           0.6616  -16.3567  -40.5351 C.2       5 UNK         0.5000 
     46 O           0.2012  -16.7852  -41.5945 O.2       5 UNK        -0.5000 
     47 CA          1.3781  -14.9918  -40.5060 C.3       5 UNK         0.1400 
     48 CB          2.8986  -15.1880  -40.3929 C.3       5 UNK        -0.1800 
     49 N           1.1076  -14.2182  -41.7182 N.am      5 UNK        -0.5000 
     50 C          -0.0673  -13.6726  -42.0516 C.2       4 UNK         0.5000 
     51 O          -1.0258  -13.5990  -41.2797 O.2       4 UNK        -0.5000 
     52 CA         -0.1730  -13.1189  -43.4900 C.3       4 UNK         0.1400 
     53 CB         -1.5804  -12.5957  -43.8271 C.3       4 UNK        -0.1800 
     54 N           0.7953  -12.0560  -43.7611 N.am      4 UNK        -0.5000 
     55 C           2.1050  -12.2152  -43.9827 C.2       3 UNK         0.5000 
     56 O           2.6708  -13.3098  -43.9486 O.2       3 UNK        -0.5000 
     57 CA          2.8947  -10.9353  -44.3258 C.3       3 UNK         0.1400 
     58 CB          4.4115  -11.1816  -44.4156 C.3       3 UNK        -0.1800 
     59 N           2.4362  -10.3670  -45.5933 N.am      3 UNK        -0.5000 
     60 C           1.3370   -9.6195  -45.7655 C.2       2 UNK         0.5000 
     61 O           0.6073   -9.2604  -44.8400 O.2       2 UNK        -0.5000 
     62 CA          0.9759   -9.2400  -47.2162 C.3       2 UNK         0.1400 
     63 CB          1.5731   -7.8727  -47.5818 C.3       2 UNK        -0.1800 
     64 N           1.4212  -10.2371  -48.1950 N.am      2 UNK        -0.5000 
     65 C           0.9112  -11.4732  -48.3032 C.2       1 UNK         0.5000 
     66 O          -0.0453  -11.8706  -47.6354 O.2       1 UNK        -0.5000 
     67 C          -0.2052  -22.0924  -47.8160 C.2       11 UNK         0.5000 
     68 O          -0.4064  -22.9404  -48.6841 O.2       11 UNK        -0.5000 
     69 N          -0.9167  -20.9638  -47.6966 N.am      12 UNK        -0.5000 
     70 CA         -2.0147  -20.5905  -48.5863 C.3       12 UNK         0.1400 
     71 CB         -2.5426  -19.2007  -48.1981 C.3       12 UNK        -0.1800 
     72 C          -3.1568  -21.6239  -48.5899 C.2       12 UNK         0.5000 
     73 O          -3.6289  -22.0066  -49.6584 O.2       12 UNK        -0.5000 
     74 N          -3.5708  -22.0603  -47.3935 N.am      13 UNK        -0.5000 
     75 CA         -4.6681  -23.0006  -47.1944 C.3       13 UNK         0.1400 
     76 CB         -5.0730  -23.0081  -45.7122 C.3       13 UNK        -0.1800 
     77 C          -4.3628  -24.4288  -47.6784 C.2       13 UNK         0.5000 
     78 O          -5.1971  -25.0084  -48.3733 O.2       13 UNK        -0.5000 
     79 N          -3.2140  -24.9855  -47.2703 N.am      14 UNK        -0.5000 
     80 CA         -2.8893  -26.3989  -47.4602 C.3       14 UNK         0.1400 
     81 CB         -2.3639  -26.9888  -46.1398 C.3       14 UNK        -0.1800 
     82 C          -1.8866  -26.6172  -48.6006 C.2       14 UNK         0.5000 
     83 O          -2.2103  -27.3155  -49.5623 O.2       14 UNK        -0.5000 
     84 N          -0.6789  -26.0491  -48.4702 N.am      15 UNK        -0.5000 
     85 CA          0.4503  -26.3003  -49.3751 C.3       15 UNK         0.1400 
     86 CB          1.7355  -25.6977  -48.7884 C.3       15 UNK        -0.1800 
     87 C           0.2111  -25.7909  -50.8078 C.2       15 UNK         0.5000 
     88 O           0.5969  -26.4591  -51.7671 O.2       15 UNK        -0.5000 
     89 N          -0.4646  -24.6430  -50.9213 N.am      16 UNK        -0.5000 
     90 CA         -0.8776  -24.0121  -52.1733 C.3       16 UNK         0.1400 
     91 CB         -0.8053  -22.4884  -51.9924 C.3       16 UNK        -0.1800 
     92 C          -2.2711  -24.4880  -52.6474 C.2       16 UNK         0.5000 
     93 O          -2.9041  -23.8061  -53.4544 O.2       16 UNK        -0.5000 
     94 N          -2.7210  -25.6498  -52.1482 N.am      17 UNK        -0.5000 
     95 CA         -3.9449  -26.3986  -52.4596 C.3       17 UNK         0.1400 
     96 CB         -4.0555  -26.7192  -53.9630 C.3       17 UNK        -0.1800 
     97 C          -5.2405  -25.7660  -51.9217 C.2       17 UNK         0.5000 
     98 O          -6.0441  -26.4749  -51.3144 O.2       17 UNK        -0.5000 
     99 N          -5.4233  -24.4634  -52.1470 N.am      18 UNK        -0.5000 
    100 CA        -6.5340  -23.6531  -51.6628 C.3       18 UNK         0.1400 
    101 CB        -7.8378  -23.9963  -52.4089 C.3       18 UNK        -0.1800 
    102 C         -6.1643  -22.1871  -51.8907 C.2       18 UNK         0.5000 
    103 O         -5.6912  -21.8542  -52.9788 O.2       18 UNK        -0.5000 
    104 N         -6.4177  -21.3308  -50.8936 N.am      19 UNK        -0.5000 
    105 CA        -6.0007  -19.9234  -50.8771 C.3       19 UNK         0.1400 
    106 CB        -6.2704  -19.3413  -49.4808 C.3       19 UNK        -0.1800 
    107 C         -6.6582  -19.0507  -51.9645 C.2       19 UNK         0.5000 
    108 O         -6.0967  -18.0209  -52.3379 O.2       19 UNK        -0.5000 
    109 N         -7.8252  -19.4828  -52.4620 N.am      20 UNK        -0.5000 
    110 CA        -8.5473  -18.8536  -53.5684 C.3       20 UNK         0.1400 
    111 CB        -9.9698  -19.4316  -53.6257 C.3       20 UNK        -0.1800 
    112 C         -7.8423  -19.0234  -54.9295 C.2       20 UNK         0.5000 
    113 O         -8.0258  -18.1806  -55.8089 O.2       20 UNK        -0.5000 
    114 N         -7.0582  -20.0994  -55.0792 N.am      21 UNK        -0.5000 
    115 CA        -6.2543  -20.3871  -56.2653 C.3       21 UNK         0.1400 
    116 CB        -6.3863  -21.8790  -56.6169 C.3       21 UNK        -0.1800 
    117 C         -4.7882  -20.0086  -56.0090 C.2       21 UNK         0.5000 
    118 O         -4.2060  -19.2473  -56.7820 O.2       21 UNK        -0.5000 
    119 N         -4.2365  -20.5354  -54.9096 N.am      22 UNK        -0.5000 
    120 CA        -2.8679  -20.3375  -54.4180 C.3       22 UNK         0.1400 
    121 C         -1.7442  -20.8260  -55.3856 C.2       22 UNK         0.5000 
    122 N         -2.0020  -21.8174  -56.2299 N.am      22 UNK        -0.7600 
    123 O         -0.6238  -20.3243  -55.3677 O.2       22 UNK        -0.5000 
    124 C124       -2.6468  -18.9071  -53.8417 C.3       23 UNK        -0.0398 
    125 S125       -2.0479  -18.9473  -52.1184 S.3       23 UNK        -0.2404 
    126 C126       -0.2639  -18.6602  -52.3436 C.3       23 UNK        -0.0205 
    127 H127        0.5683  -11.3377  -53.5951 H         1 UNK         0.0600 
    128 H128        2.0312  -10.6244  -52.9107 H         1 UNK         0.0600 
    129 H129        0.4961   -9.7581  -52.8068 H         1 UNK         0.0600 
    130 H130        2.6056  -11.5523  -50.9872 H         1 UNK         0.3000 
    131 H131        2.6363  -12.4748  -49.0194 H         1 UNK         0.0600 
    132 H132        1.3813  -14.3530  -50.2819 H         1 UNK         0.0800 
    133 H133       -0.0669  -13.8224  -49.4680 H         1 UNK         0.0800 
    134 H134       -0.6532  -15.7907  -48.2447 H         1 UNK         0.0800 
    135 H135        0.2288  -16.5838  -46.9783 H         1 UNK         0.0800 
    136 H136       -0.6976  -16.7847  -50.4316 H         1 UNK         0.1150 
    137 H137        1.7958  -20.1600  -51.3184 H         1 UNK         0.1150 
    138 H138        2.3085  -18.0132  -47.6422 H         1 UNK         0.1150 
    139 H139        4.0342  -20.1218  -49.9637 H         1 UNK         0.0800 
    140 H140        3.9773  -19.6009  -48.3037 H         1 UNK         0.0800 
    141 H141        1.9142  -20.4367  -46.8440 H         1 UNK         0.0800 
    142 H142        2.8818  -21.7251  -46.1928 H         1 UNK         0.0800 
    143 H143        1.1776  -23.3989  -46.8489 H         1 UNK         0.0600 
    144 H144        0.7536  -21.5158  -44.8037 H         1 UNK         0.3000 
    145 H145       -2.2353  -22.9616  -43.4324 H         1 UNK         0.0600 
    146 H146       -0.7934  -22.9445  -41.4185 H         1 UNK         0.0600 
    147 H147        0.6496  -22.7814  -42.4163 H         1 UNK         0.0600 
    148 H148       -0.3173  -24.2483  -42.4960 H         1 UNK         0.0600 
    149 H149       -0.7352  -20.6922  -42.6226 H         1 UNK         0.3000 
    150 H150       -2.3784  -18.2843  -44.7356 H         1 UNK         0.0600 
    151 H151       -3.7691  -18.5674  -42.6855 H         1 UNK         0.0600 
    152 H152       -2.6413  -17.2310  -42.5009 H         1 UNK         0.0600 
    153 H153       -2.3197  -18.7712  -41.7090 H         1 UNK         0.0600 
    154 H154       -0.2550  -17.9553  -42.8910 H         1 UNK         0.3000 
    155 H155        2.4676  -18.6982  -45.1109 H         1 UNK         0.0600 
    156 H156        2.0199  -16.3387  -45.4835 H         1 UNK         0.0600 
    157 H157        3.0923  -16.4510  -44.1059 H         1 UNK         0.0600 
    158 H158        1.3786  -16.1214  -43.8653 H         1 UNK         0.0600 
    159 H159        2.1891  -18.0144  -42.3101 H         1 UNK         0.3000 
    160 H160        2.2947  -21.3418  -41.0859 H         1 UNK         0.0600 
    161 H161        4.5129  -19.2240  -41.1209 H         1 UNK         0.0600 
    162 H162        4.6887  -20.8967  -41.6384 H         1 UNK         0.0600 
    163 H163        4.3486  -20.5362  -39.9534 H         1 UNK         0.0600 
    164 H164        2.4512  -18.7583  -39.8340 H         1 UNK         0.3000 
    165 H165       -1.0674  -18.2539  -39.4988 H         1 UNK         0.0600 
    166 H166       -0.4313  -18.1047  -37.1157 H         1 UNK         0.0600 
    167 H167       -0.4054  -19.7829  -37.6317 H         1 UNK         0.0600 
    168 H168        1.1072  -18.9048  -37.4389 H         1 UNK         0.0600 
    169 H169        1.0270  -16.6482  -38.5567 H         1 UNK         0.3000 
    170 H170        1.0208  -14.4286  -39.6417 H         1 UNK         0.0600 
    171 H171        3.2947  -15.7566  -41.2356 H         1 UNK         0.0600 
    172 H172        3.4172  -14.2293  -40.3657 H         1 UNK         0.0600 
    173 H173        3.1642  -15.7228  -39.4804 H         1 UNK         0.0600 
    174 H174        1.8395  -14.1995  -42.4217 H         1 UNK         0.3000 
    175 H175        0.0345  -13.9509  -44.1665 H         1 UNK         0.0600 
    176 H176       -1.8543  -11.7446  -43.2025 H         1 UNK         0.0600 
    177 H177       -1.6421  -12.2806  -44.8694 H         1 UNK         0.0600 
    178 H178       -2.3328  -13.3713  -43.6790 H         1 UNK         0.0600 
    179 H179        0.4226  -11.1162  -43.8320 H         1 UNK         0.3000 
    180 H180        2.7208  -10.2147  -43.5238 H         1 UNK         0.0600 
    181 H181        4.9502  -10.2541  -44.6100 H         1 UNK         0.0600 
    182 H182        4.6605  -11.8868  -45.2097 H         1 UNK         0.0600 
    183 H183        4.7967  -11.5898  -43.4803 H         1 UNK         0.0600 
    184 H184        2.9554  -10.6375  -46.4149 H         1 UNK         0.3000 
    185 H185       -0.1119   -9.1646  -47.2766 H         1 UNK         0.0600 
    186 H186        2.6634   -7.8886  -47.5560 H         1 UNK         0.0600 
    187 H187        1.2643   -7.5615  -48.5799 H         1 UNK         0.0600 
    188 H188        1.2394   -7.1026  -46.8849 H         1 UNK         0.0600 
    189 H189        2.1817   -9.9686  -48.8027 H         1 UNK         0.3000 
    190 H190       -0.6707  -20.3007  -46.9654 H         1 UNK         0.3000 
    191 H191       -1.6055  -20.5310  -49.5958 H         1 UNK         0.0600 
    192 H192       -3.0117  -19.2042  -47.2141 H         1 UNK         0.0600 
    193 H193       -3.2842  -18.8536  -48.9181 H         1 UNK         0.0600 
    194 H194       -1.7408  -18.4647  -48.1775 H         1 UNK         0.0600 
    195 H195       -3.1495  -21.6679  -46.5553 H         1 UNK         0.3000 
    196 H196       -5.5223  -22.6357  -47.7687 H         1 UNK         0.0600 
    197 H197       -5.3997  -22.0196  -45.3887 H         1 UNK         0.0600 
    198 H198       -4.2449  -23.3123  -45.0708 H         1 UNK         0.0600 
    199 H199       -5.8988  -23.6980  -45.5342 H         1 UNK         0.0600 
    200 H200       -2.5618  -24.4402  -46.7113 H         1 UNK         0.3000 
    201 H201       -3.7912  -26.9599  -47.7150 H         1 UNK         0.0600 
    202 H202       -3.1041  -26.8909  -45.3456 H         1 UNK         0.0600 
    203 H203       -1.4497  -26.5001  -45.8030 H         1 UNK         0.0600 
    204 H204       -2.1441  -28.0515  -46.2492 H         1 UNK         0.0600 
    205 H205       -0.5099  -25.4381  -47.6839 H         1 UNK         0.3000 
    206 H206        0.5859  -27.3825  -49.4308 H         1 UNK         0.0600 
    207 H207        2.6045  -25.9970  -49.3755 H         1 UNK         0.0600 
    208 H208        1.7072  -24.6090  -48.7907 H         1 UNK         0.0600 
    209 H209        1.9036  -26.0320  -47.7646 H         1 UNK         0.0600 
    210 H210       -0.6816  -24.1302  -50.0678 H         1 UNK         0.3000 
    211 H211       -0.1655  -24.2827  -52.9553 H         1 UNK         0.0600 
    212 H212       -1.6554  -22.1089  -51.4271 H         1 UNK         0.0600 
    213 H213       -0.7957  -21.9884  -52.9579 H         1 UNK         0.0600 
    214 H214        0.1037  -22.1863  -51.4716 H         1 UNK         0.0600 
    215 H215       -2.1460  -26.0894  -51.4402 H         1 UNK         0.3000 
    216 H216       -3.8304  -27.3508  -51.9391 H         1 UNK         0.0600 
    217 H217       -4.9011  -27.3804  -54.1555 H         1 UNK         0.0600 
    218 H218       -3.1595  -27.2226  -54.3261 H         1 UNK         0.0600 
    219 H219       -4.2046  -25.8219  -54.5642 H         1 UNK         0.0600 
    220 H220       -4.7049  -23.9539  -52.6574 H         1 UNK         0.3000 
    221 H221       -6.6604  -23.8329  -50.5932 H         1 UNK         0.0600 
    222 H222       -7.7266  -23.8718  -53.4870 H         1 UNK         0.0600 
    223 H223       -8.1495  -25.0236  -52.2220 H         1 UNK         0.0600 
    224 H224       -8.6544  -23.3498  -52.0856 H         1 UNK         0.0600 
    225 H225       -6.8261  -21.6832  -50.0409 H         1 UNK         0.3000 
    226 H226       -4.9232  -19.8980  -51.0545 H         1 UNK         0.0600 
    227 H227       -5.7453  -19.9036  -48.7086 H         1 UNK         0.0600 
    228 H228       -5.9283  -18.3076  -49.4161 H         1 UNK         0.0600 
    229 H229       -7.3340  -19.3516  -49.2398 H         1 UNK         0.0600 
    230 H230       -8.2176  -20.3328  -52.0853 H         1 UNK         0.3000 
    231 H231       -8.6203  -17.7832  -53.3647 H         1 UNK         0.0600 
    232 H232      -10.5486  -18.9660  -54.4245 H         1 UNK         0.0600 
    233 H233      -10.5057  -19.2552  -52.6929 H         1 UNK         0.0600 
    234 H234       -9.9605  -20.5066  -53.8108 H         1 UNK         0.0600 
    235 H235       -6.9130  -20.7068  -54.2821 H         1 UNK         0.3000 
    236 H236       -6.6088  -19.8085  -57.1209 H         1 UNK         0.0600 
    237 H237       -6.0739  -22.5233  -55.7938 H         1 UNK         0.0600 
    238 H238       -7.4177  -22.1323  -56.8625 H         1 UNK         0.0600 
    239 H239       -5.7746  -22.1313  -57.4839 H         1 UNK         0.0600 
    240 H240       -4.8068  -21.1343  -54.3143 H         1 UNK         0.3000 
    241 H241       -2.8174  -21.0417  -53.5886 H         1 UNK         0.0600 
    242 H242       -1.2797  -22.1404  -56.8535 H         1 UNK         0.3800 
    243 H243       -2.9021  -22.2697  -56.2231 H         1 UNK         0.3800 
    244 H244       -1.9839  -18.3048  -54.4645 H         1 UNK         0.0800 
    245 H245       -3.5872  -18.3544  -53.8197 H         1 UNK         0.0800 
    246 H246       -0.1112  -17.7583  -52.9377 H         1 UNK         0.0800 
    247 H247        0.1606  -19.4876  -52.9134 H         1 UNK         0.0800 
@<TRIPOS>BOND
     1    1    2 1    
     2    1  127 1    
     3    1  128 1    
     4    1  129 1    
     5    2    3 2    
     6    2    4 am   BACKBONE|DICT|INTERRES
     7    4    5 1    
     8    4  130 1    
     9    5    6 1    
    10    5   65 1    
    11    5  131 1    
    12    6    7 1    
    13    6  132 1    
    14    6  133 1    
    15    7    8 1    
    16    8    9 1    
    17    8  134 1    
    18    8  135 1    
    19    9   10 ar   
    20    9   14 ar   
    21   10   11 ar   
    22   10  136 1    
    23   11   12 ar   
    24   11  126 1    
    25   12   13 ar   
    26   12  137 1    
    27   13   14 ar   
    28   13   15 1    
    29   14  138 1    
    30   15   16 1    
    31   15  139 1    
    32   15  140 1    
    33   16   17 1    
    34   17   18 1    
    35   17  141 1    
    36   17  142 1    
    37   18   19 1    
    38   18   67 1    
    39   18  143 1    
    40   19   20 am   BACKBONE|DICT|INTERRES
    41   19  144 1    
    42   20   21 2    
    43   20   22 1    
    44   22   23 1    
    45   22   24 1    
    46   22  145 1    
    47   23  146 1    
    48   23  147 1    
    49   23  148 1    
    50   24   25 am   BACKBONE|DICT|INTERRES
    51   24  149 1    
    52   25   26 2    
    53   25   27 1    
    54   27   28 1    
    55   27   29 1    
    56   27  150 1    
    57   28  151 1    
    58   28  152 1    
    59   28  153 1    
    60   29   30 am   BACKBONE|DICT|INTERRES
    61   29  154 1    
    62   30   31 2    
    63   30   32 1    
    64   32   33 1    
    65   32   34 1    
    66   32  155 1    
    67   33  156 1    
    68   33  157 1    
    69   33  158 1    
    70   34   35 am   BACKBONE|DICT|INTERRES
    71   34  159 1    
    72   35   36 2    
    73   35   37 1    
    74   37   38 1    
    75   37   39 1    
    76   37  160 1    
    77   38  161 1    
    78   38  162 1    
    79   38  163 1    
    80   39   40 am   BACKBONE|DICT|INTERRES
    81   39  164 1    
    82   40   41 2    
    83   40   42 1    
    84   42   43 1    
    85   42   44 1    
    86   42  165 1    
    87   43  166 1    
    88   43  167 1    
    89   43  168 1    
    90   44   45 am   BACKBONE|DICT|INTERRES
    91   44  169 1    
    92   45   46 2    
    93   45   47 1    
    94   47   48 1    
    95   47   49 1    
    96   47  170 1    
    97   48  171 1    
    98   48  172 1    
    99   48  173 1    
   100   49   50 am   BACKBONE|DICT|INTERRES
   101   49  174 1    
   102   50   51 2    
   103   50   52 1    
   104   52   53 1    
   105   52   54 1    
   106   52  175 1    
   107   53  176 1    
   108   53  177 1    
   109   53  178 1    
   110   54   55 am   BACKBONE|DICT|INTERRES
   111   54  179 1    
   112   55   56 2    
   113   55   57 1    
   114   57   58 1    
   115   57   59 1    
   116   57  180 1    
   117   58  181 1    
   118   58  182 1    
   119   58  183 1    
   120   59   60 am   BACKBONE|DICT|INTERRES
   121   59  184 1    
   122   60   61 2    
   123   60   62 1    
   124   62   63 1    
   125   62   64 1    
   126   62  185 1    
   127   63  186 1    
   128   63  187 1    
   129   63  188 1    
   130   64   65 am   BACKBONE|DICT|INTERRES
   131   64  189 1    
   132   65   66 2    
   133   67   68 2    
   134   67   69 am   BACKBONE|DICT|INTERRES
   135   69   70 1    
   136   69  190 1    
   137   70   71 1    
   138   70   72 1    
   139   70  191 1    
   140   71  192 1    
   141   71  193 1    
   142   71  194 1    
   143   72   73 2    
   144   72   74 am   BACKBONE|DICT|INTERRES
   145   74   75 1    
   146   74  195 1    
   147   75   76 1    
   148   75   77 1    
   149   75  196 1    
   150   76  197 1    
   151   76  198 1    
   152   76  199 1    
   153   77   78 2    
   154   77   79 am   BACKBONE|DICT|INTERRES
   155   79   80 1    
   156   79  200 1    
   157   80   81 1    
   158   80   82 1    
   159   80  201 1    
   160   81  202 1    
   161   81  203 1    
   162   81  204 1    
   163   82   83 2    
   164   82   84 am   BACKBONE|DICT|INTERRES
   165   84   85 1    
   166   84  205 1    
   167   85   86 1    
   168   85   87 1    
   169   85  206 1    
   170   86  207 1    
   171   86  208 1    
   172   86  209 1    
   173   87   88 2    
   174   87   89 am   BACKBONE|DICT|INTERRES
   175   89   90 1    
   176   89  210 1    
   177   90   91 1    
   178   90   92 1    
   179   90  211 1    
   180   91  212 1    
   181   91  213 1    
   182   91  214 1    
   183   92   93 2    
   184   92   94 am   BACKBONE|DICT|INTERRES
   185   94   95 1    
   186   94  215 1    
   187   95   96 1    
   188   95   97 1    
   189   95  216 1    
   190   96  217 1    
   191   96  218 1    
   192   96  219 1    
   193   97   98 2    
   194   97   99 am   BACKBONE|DICT|INTERRES
   195   99  100 1    
   196   99  220 1    
   197  100  101 1    
   198  100  102 1    
   199  100  221 1    
   200  101  222 1    
   201  101  223 1    
   202  101  224 1    
   203  102  103 2    
   204  102  104 am   BACKBONE|DICT|INTERRES
   205  104  105 1    
   206  104  225 1    
   207  105  106 1    
   208  105  107 1    
   209  105  226 1    
   210  106  227 1    
   211  106  228 1    
   212  106  229 1    
   213  107  108 2    
   214  107  109 am   BACKBONE|DICT|INTERRES
   215  109  110 1    
   216  109  230 1    
   217  110  111 1    
   218  110  112 1    
   219  110  231 1    
   220  111  232 1    
   221  111  233 1    
   222  111  234 1    
   223  112  113 2    
   224  112  114 am   BACKBONE|DICT|INTERRES
   225  114  115 1    
   226  114  235 1    
   227  115  116 1    
   228  115  117 1    
   229  115  236 1    
   230  116  237 1    
   231  116  238 1    
   232  116  239 1    
   233  117  118 2    
   234  117  119 am   BACKBONE|DICT|INTERRES
   235  119  120 1    
   236  119  240 1    
   237  120  121 1    
   238  120  124 1    
   239  120  241 1    
   240  121  122 am   BACKBONE|DICT|INTERRES
   241  121  123 2    
   242  122  242 1    
   243  122  243 1    
   244  124  125 1    
   245  124  244 1    
   246  124  245 1    
   247  125  126 1    
   248  126  246 1    
   249  126  247 1    
@<TRIPOS>SUBSTRUCTURE
     1 UNK         1 GROUP             0       ****    0 ROOT    
