@<TRIPOS>MOLECULE
3R540
247   249    1
SMALL
USER_CHARGES


@<TRIPOS>ATOM
      1 CA          7.5704  -18.5800  -46.2257 C.3       0 UNK        -0.1800 
      2 C           6.3441  -17.7236  -45.9457 C.2       0 UNK         0.5000 
      3 O           5.8504  -17.7092  -44.8183 O.2       0 UNK        -0.5000 
      4 N           5.8529  -17.0067  -46.9636 N.am      1 UNK        -0.5000 
      5 CA          4.6791  -16.1295  -46.8981 C.3       1 UNK         0.1400 
      6 C6          3.9952  -15.9671  -48.2805 C.3       23 UNK        -0.0398 
      7 S7          3.4403  -17.5586  -48.9850 S.3       23 UNK        -0.2404 
      8 C8          3.2353  -17.1168  -50.7416 C.3       23 UNK        -0.0205 
      9 C9          1.7958  -17.2881  -51.2030 C.ar      23 UNK        -0.0193 
     10 C10         1.4644  -18.2749  -52.1364 C.ar      23 UNK        -0.1150 
     11 C11         0.1439  -18.4307  -52.5701 C.ar      23 UNK        -0.0193 
     12 C12        -0.8508  -17.5950  -52.0550 C.ar      23 UNK        -0.1150 
     13 C13        -0.5307  -16.6031  -51.1230 C.ar      23 UNK        -0.0193 
     14 C14         0.7947  -16.4487  -50.7077 C.ar      23 UNK        -0.1150 
     15 C15        -1.6186  -15.7065  -50.5539 C.3       23 UNK        -0.0205 
     16 S16        -2.7047  -16.6066  -49.4044 S.3       23 UNK        -0.2404 
     17 C17        -1.5402  -17.1024  -48.0831 C.3       23 UNK        -0.0398 
     18 CA         -0.9869  -18.5477  -48.2013 C.3       11 UNK         0.1400 
     19 N          -0.0722  -18.8628  -47.1031 N.am      11 UNK        -0.5000 
     20 C           0.6471  -19.9884  -46.9870 C.2       10 UNK         0.5000 
     21 O           0.6676  -20.8836  -47.8302 O.2       10 UNK        -0.5000 
     22 CA          1.4289  -20.1772  -45.6760 C.3       10 UNK         0.1400 
     23 CB          2.7394  -19.3803  -45.7035 C.3       10 UNK        -0.1800 
     24 N           0.6462  -19.8047  -44.4962 N.am      10 UNK        -0.5000 
     25 C          -0.4857  -20.4141  -44.1135 C.2       9 UNK         0.5000 
     26 O          -0.9713  -21.3831  -44.6972 O.2       9 UNK        -0.5000 
     27 CA         -1.2238  -19.8178  -42.9011 C.3       9 UNK         0.1400 
     28 CB         -0.5337  -20.2166  -41.5884 C.3       9 UNK        -0.1800 
     29 N          -1.3463  -18.3613  -42.9737 N.am      9 UNK        -0.5000 
     30 C          -2.0263  -17.7040  -43.9248 C.2       8 UNK         0.5000 
     31 O          -2.6560  -18.2585  -44.8253 O.2       8 UNK        -0.5000 
     32 CA         -1.9434  -16.1671  -43.9001 C.3       8 UNK         0.1400 
     33 CB         -2.8806  -15.5773  -42.8359 C.3       8 UNK        -0.1800 
     34 N          -0.5809  -15.6887  -43.6743 N.am      8 UNK        -0.5000 
     35 C           0.4560  -15.9226  -44.4908 C.2       7 UNK         0.5000 
     36 O           0.3727  -16.5222  -45.5608 O.2       7 UNK        -0.5000 
     37 CA          1.8280  -15.4442  -44.0002 C.3       7 UNK         0.1400 
     38 CB          1.9955  -13.9385  -44.2673 C.3       7 UNK        -0.1800 
     39 N           2.0213  -15.7544  -42.5832 N.am      7 UNK        -0.5000 
     40 C           2.1653  -17.0001  -42.1022 C.2       6 UNK         0.5000 
     41 O           2.1881  -18.0040  -42.8127 O.2       6 UNK        -0.5000 
     42 CA          2.2237  -17.1710  -40.5728 C.3       6 UNK         0.1400 
     43 CB          3.6682  -17.1453  -40.0584 C.3       6 UNK        -0.1800 
     44 N           1.4307  -16.1628  -39.8728 N.am      6 UNK        -0.5000 
     45 C           0.0900  -16.1477  -39.8686 C.2       5 UNK         0.5000 
     46 O          -0.6023  -17.0170  -40.3990 O.2       5 UNK        -0.5000 
     47 CA         -0.5904  -14.9291  -39.2175 C.3       5 UNK         0.1400 
     48 CB         -0.8176  -15.1731  -37.7186 C.3       5 UNK        -0.1800 
     49 N           0.1640  -13.6867  -39.3974 N.am      5 UNK        -0.5000 
     50 C           0.4533  -13.1322  -40.5824 C.2       4 UNK         0.5000 
     51 O           0.0747  -13.6013  -41.6551 O.2       4 UNK        -0.5000 
     52 CA          1.3189  -11.8563  -40.5794 C.3       4 UNK         0.1400 
     53 CB          1.1698  -11.0284  -39.2841 C.3       4 UNK        -0.1800 
     54 N           2.7425  -12.0999  -40.8553 N.am      4 UNK        -0.5000 
     55 C           3.5795  -12.9184  -40.1981 C.2       3 UNK         0.5000 
     56 O           3.2159  -13.7582  -39.3722 O.2       3 UNK        -0.5000 
     57 CA          5.0805  -12.7092  -40.4942 C.3       3 UNK         0.1400 
     58 CB          6.0124  -13.6021  -39.6460 C.3       3 UNK        -0.1800 
     59 N           5.4108  -12.7794  -41.9232 N.am      3 UNK        -0.5000 
     60 C           5.4045  -13.8661  -42.7074 C.2       2 UNK         0.5000 
     61 O           5.1073  -14.9984  -42.3254 O.2       2 UNK        -0.5000 
     62 CA          5.8105  -13.6417  -44.1728 C.3       2 UNK         0.1400 
     63 CB          7.3297  -13.4350  -44.3046 C.3       2 UNK        -0.1800 
     64 N           5.4106  -14.7948  -44.9738 N.am      2 UNK        -0.5000 
     65 C           5.0539  -14.7712  -46.2619 C.2       1 UNK         0.5000 
     66 O           5.0380  -13.7431  -46.9411 O.2       1 UNK        -0.5000 
     67 C          -2.1002  -19.6075  -48.3193 C.2       11 UNK         0.5000 
     68 O          -2.2828  -20.1659  -49.3995 O.2       11 UNK        -0.5000 
     69 N          -2.7852  -19.9042  -47.2045 N.am      12 UNK        -0.5000 
     70 CA         -3.8441  -20.9120  -47.1299 C.3       12 UNK         0.1400 
     71 CB         -4.4781  -20.8967  -45.7316 C.3       12 UNK        -0.1800 
     72 C          -3.3622  -22.3270  -47.4953 C.2       12 UNK         0.5000 
     73 O          -4.0676  -23.0357  -48.2137 O.2       12 UNK        -0.5000 
     74 N          -2.1628  -22.6995  -47.0289 N.am      13 UNK        -0.5000 
     75 CA         -1.5048  -23.9615  -47.3607 C.3       13 UNK         0.1400 
     76 CB         -0.2684  -24.1524  -46.4690 C.3       13 UNK        -0.1800 
     77 C          -1.1328  -24.0558  -48.8513 C.2       13 UNK         0.5000 
     78 O          -1.4595  -25.0540  -49.4938 O.2       13 UNK        -0.5000 
     79 N          -0.4891  -23.0081  -49.3841 N.am      14 UNK        -0.5000 
     80 CA         -0.0539  -22.9210  -50.7798 C.3       14 UNK         0.1400 
     81 CB          0.8895  -21.7217  -50.9409 C.3       14 UNK        -0.1800 
     82 C          -1.2242  -22.8448  -51.7796 C.2       14 UNK         0.5000 
     83 O          -1.1316  -23.4133  -52.8675 O.2       14 UNK        -0.5000 
     84 N          -2.3174  -22.1801  -51.3830 N.am      15 UNK        -0.5000 
     85 CA         -3.5771  -22.1082  -52.1243 C.3       15 UNK         0.1400 
     86 CB         -4.3495  -20.8595  -51.6729 C.3       15 UNK        -0.1800 
     87 C          -4.4552  -23.3672  -51.9731 C.2       15 UNK         0.5000 
     88 O          -5.5151  -23.4275  -52.6024 O.2       15 UNK        -0.5000 
     89 N          -4.0239  -24.3292  -51.1430 N.am      16 UNK        -0.5000 
     90 CA         -4.6724  -25.6065  -50.8341 C.3       16 UNK         0.1400 
     91 CB         -4.6565  -26.5297  -52.0704 C.3       16 UNK        -0.1800 
     92 C          -6.0821  -25.4163  -50.2429 C.2       16 UNK         0.5000 
     93 O          -7.0452  -25.9995  -50.7387 O.2       16 UNK        -0.5000 
     94 N          -6.1877  -24.5421  -49.2314 N.am      17 UNK        -0.5000 
     95 CA         -7.4284  -24.0962  -48.5821 C.3       17 UNK         0.1400 
     96 CB         -8.0815  -25.2490  -47.7918 C.3       17 UNK        -0.1800 
     97 C          -8.3993  -23.4115  -49.5704 C.2       17 UNK         0.5000 
     98 O          -9.6172  -23.5477  -49.4461 O.2       17 UNK        -0.5000 
     99 N          -7.8149  -22.7055  -50.5492 N.am      18 UNK        -0.5000 
    100 CA        -8.4442  -22.0256  -51.6836 C.3       18 UNK         0.1400 
    101 CB        -9.4510  -20.9532  -51.2185 C.3       18 UNK        -0.1800 
    102 C         -9.0292  -22.9747  -52.7520 C.2       18 UNK         0.5000 
    103 O         -9.7566  -22.5050  -53.6280 O.2       18 UNK        -0.5000 
    104 N         -8.6858  -24.2724  -52.7091 N.am      19 UNK        -0.5000 
    105 CA        -9.0596  -25.2419  -53.7428 C.3       19 UNK         0.1400 
    106 CB        -8.9248  -26.6732  -53.2032 C.3       19 UNK        -0.1800 
    107 C         -8.2230  -25.0672  -55.0230 C.2       19 UNK         0.5000 
    108 O         -8.7638  -25.2055  -56.1209 O.2       19 UNK        -0.5000 
    109 N         -6.9309  -24.7472  -54.8612 N.am      20 UNK        -0.5000 
    110 CA        -6.0287  -24.3962  -55.9596 C.3       20 UNK         0.1400 
    111 CB        -4.6088  -24.8890  -55.6380 C.3       20 UNK        -0.1800 
    112 C         -6.0302  -22.8792  -56.2140 C.2       20 UNK         0.5000 
    113 O         -5.7905  -22.4539  -57.3449 O.2       20 UNK        -0.5000 
    114 N         -6.2812  -22.0912  -55.1546 N.am      21 UNK        -0.5000 
    115 CA        -6.4279  -20.6273  -55.1410 C.3       21 UNK         0.1400 
    116 CB        -7.6907  -20.2102  -55.9216 C.3       21 UNK        -0.1800 
    117 C         -5.1697  -19.8598  -55.6064 C.2       21 UNK         0.5000 
    118 O         -5.2682  -18.6932  -55.9887 O.2       21 UNK        -0.5000 
    119 N         -4.0128  -20.5345  -55.5718 N.am      22 UNK        -0.5000 
    120 CA        -2.7311  -20.0888  -56.1382 C.3       22 UNK         0.1400 
    121 C         -2.7062  -20.0411  -57.7005 C.2       22 UNK         0.5000 
    122 N         -3.6218  -20.7052  -58.3988 N.am      22 UNK        -0.7600 
    123 O         -1.8343  -19.4170  -58.2985 O.2       22 UNK        -0.5000 
    124 C124       -2.1900  -18.7968  -55.4562 C.3       23 UNK        -0.0398 
    125 S125       -0.3755  -18.8309  -55.2618 S.3       23 UNK        -0.2404 
    126 C126       -0.2037  -19.5108  -53.5831 C.3       23 UNK        -0.0205 
    127 H127        8.3967  -18.2723  -45.5848 H         1 UNK         0.0600 
    128 H128        7.8948  -18.4974  -47.2633 H         1 UNK         0.0600 
    129 H129        7.3498  -19.6276  -46.0207 H         1 UNK         0.0600 
    130 H130        6.3097  -17.0514  -47.8631 H         1 UNK         0.3000 
    131 H131        3.9473  -16.5929  -46.2383 H         1 UNK         0.0600 
    132 H132        3.1228  -15.3159  -48.2013 H         1 UNK         0.0800 
    133 H133        4.6800  -15.4868  -48.9816 H         1 UNK         0.0800 
    134 H134        3.9059  -17.7403  -51.3347 H         1 UNK         0.0800 
    135 H135        3.5422  -16.0863  -50.9235 H         1 UNK         0.0800 
    136 H136        2.2356  -18.9235  -52.5274 H         1 UNK         0.1150 
    137 H137       -1.8763  -17.7187  -52.3723 H         1 UNK         0.1150 
    138 H138        1.0491  -15.6859  -49.9853 H         1 UNK         0.1150 
    139 H139       -1.1875  -14.8435  -50.0439 H         1 UNK         0.0800 
    140 H140       -2.2208  -15.3090  -51.3720 H         1 UNK         0.0800 
    141 H141       -2.0574  -16.9784  -47.1316 H         1 UNK         0.0800 
    142 H142       -0.7118  -16.3934  -48.0600 H         1 UNK         0.0800 
    143 H143       -0.3975  -18.6066  -49.1179 H         1 UNK         0.0600 
    144 H144        0.0133  -18.1544  -46.3784 H         1 UNK         0.3000 
    145 H145        1.6788  -21.2365  -45.5886 H         1 UNK         0.0600 
    146 H146        3.3495  -19.5874  -44.8242 H         1 UNK         0.0600 
    147 H147        3.3365  -19.6313  -46.5810 H         1 UNK         0.0600 
    148 H148        2.5461  -18.3090  -45.7303 H         1 UNK         0.0600 
    149 H149        1.0110  -19.0385  -43.9369 H         1 UNK         0.3000 
    150 H150       -2.2334  -20.2337  -42.8912 H         1 UNK         0.0600 
    151 H151       -0.4697  -21.3015  -41.4959 H         1 UNK         0.0600 
    152 H152       -1.0865  -19.8480  -40.7242 H         1 UNK         0.0600 
    153 H153        0.4805  -19.8222  -41.5301 H         1 UNK         0.0600 
    154 H154       -0.8937  -17.8282  -42.2384 H         1 UNK         0.3000 
    155 H155       -2.2656  -15.7999  -44.8765 H         1 UNK         0.0600 
    156 H156       -2.6099  -15.9026  -41.8316 H         1 UNK         0.0600 
    157 H157       -3.9121  -15.8844  -43.0130 H         1 UNK         0.0600 
    158 H158       -2.8575  -14.4875  -42.8511 H         1 UNK         0.0600 
    159 H159       -0.4155  -15.1413  -42.8354 H         1 UNK         0.3000 
    160 H160        2.5978  -15.9786  -44.5554 H         1 UNK         0.0600 
    161 H161        2.8596  -13.5264  -43.7540 H         1 UNK         0.0600 
    162 H162        1.1262  -13.3613  -43.9543 H         1 UNK         0.0600 
    163 H163        2.1301  -13.7536  -45.3336 H         1 UNK         0.0600 
    164 H164        1.9521  -14.9858  -41.9327 H         1 UNK         0.3000 
    165 H165        1.8100  -18.1537  -40.3378 H         1 UNK         0.0600 
    166 H166        3.7127  -17.3806  -38.9952 H         1 UNK         0.0600 
    167 H167        4.2843  -17.8768  -40.5830 H         1 UNK         0.0600 
    168 H168        4.1251  -16.1686  -40.2031 H         1 UNK         0.0600 
    169 H169        1.9374  -15.3845  -39.4624 H         1 UNK         0.3000 
    170 H170       -1.5636  -14.8005  -39.6956 H         1 UNK         0.0600 
    171 H171       -1.3954  -16.0837  -37.5548 H         1 UNK         0.0600 
    172 H172        0.1254  -15.2808  -37.1810 H         1 UNK         0.0600 
    173 H173       -1.3720  -14.3516  -37.2645 H         1 UNK         0.0600 
    174 H174        0.5432  -13.2608  -38.5642 H         1 UNK         0.3000 
    175 H175        0.9475  -11.2421  -41.4012 H         1 UNK         0.0600 
    176 H176        1.6066  -11.5287  -38.4192 H         1 UNK         0.0600 
    177 H177        1.6619  -10.0609  -39.3844 H         1 UNK         0.0600 
    178 H178        0.1204  -10.8313  -39.0605 H         1 UNK         0.0600 
    179 H179        3.1472  -11.4894  -41.5508 H         1 UNK         0.3000 
    180 H180        5.2901  -11.6807  -40.1961 H         1 UNK         0.0600 
    181 H181        5.8713  -14.6625  -39.8501 H         1 UNK         0.0600 
    182 H182        5.8306  -13.4517  -38.5812 H         1 UNK         0.0600 
    183 H183        7.0596  -13.3638  -39.8317 H         1 UNK         0.0600 
    184 H184        5.6749  -11.8982  -42.3421 H         1 UNK         0.3000 
    185 H185        5.2894  -12.7513  -44.5308 H         1 UNK         0.0600 
    186 H186        7.6652  -12.5764  -43.7220 H         1 UNK         0.0600 
    187 H187        7.8830  -14.3074  -43.9544 H         1 UNK         0.0600 
    188 H188        7.6147  -13.2529  -45.3409 H         1 UNK         0.0600 
    189 H189        5.4004  -15.6798  -44.4729 H         1 UNK         0.3000 
    190 H190       -2.5873  -19.3916  -46.3486 H         1 UNK         0.3000 
    191 H191       -4.6126  -20.6321  -47.8532 H         1 UNK         0.0600 
    192 H192       -3.7470  -21.1259  -44.9557 H         1 UNK         0.0600 
    193 H193       -5.2802  -21.6321  -45.6571 H         1 UNK         0.0600 
    194 H194       -4.9089  -19.9211  -45.5058 H         1 UNK         0.0600 
    195 H195       -1.6651  -22.0749  -46.4008 H         1 UNK         0.3000 
    196 H196       -2.2050  -24.7704  -47.1418 H         1 UNK         0.0600 
    197 H197        0.2324  -25.0954  -46.6913 H         1 UNK         0.0600 
    198 H198       -0.5439  -24.1706  -45.4144 H         1 UNK         0.0600 
    199 H199        0.4589  -23.3524  -46.6086 H         1 UNK         0.0600 
    200 H200       -0.2424  -22.2216  -48.7865 H         1 UNK         0.3000 
    201 H201        0.5127  -23.8265  -51.0063 H         1 UNK         0.0600 
    202 H202        1.7343  -21.7890  -50.2554 H         1 UNK         0.0600 
    203 H203        0.3766  -20.7792  -50.7444 H         1 UNK         0.0600 
    204 H204        1.2995  -21.6816  -51.9494 H         1 UNK         0.0600 
    205 H205       -2.2847  -21.6637  -50.5055 H         1 UNK         0.3000 
    206 H206       -3.3493  -22.0015  -53.1857 H         1 UNK         0.0600 
    207 H207       -3.7585  -19.9556  -51.8236 H         1 UNK         0.0600 
    208 H208       -5.2737  -20.7373  -52.2346 H         1 UNK         0.0600 
    209 H209       -4.6150  -20.9137  -50.6163 H         1 UNK         0.0600 
    210 H210       -3.1524  -24.1684  -50.6539 H         1 UNK         0.3000 
    211 H211       -4.0721  -26.0806  -50.0565 H         1 UNK         0.0600 
    212 H212       -5.0331  -27.5221  -51.8204 H         1 UNK         0.0600 
    213 H213       -3.6445  -26.6536  -52.4558 H         1 UNK         0.0600 
    214 H214       -5.2762  -26.1410  -52.8779 H         1 UNK         0.0600 
    215 H215       -5.3398  -24.0755  -48.9075 H         1 UNK         0.3000 
    216 H216       -7.1359  -23.3287  -47.8640 H         1 UNK         0.0600 
    217 H217       -8.9205  -24.8880  -47.1961 H         1 UNK         0.0600 
    218 H218       -7.3704  -25.7071  -47.1044 H         1 UNK         0.0600 
    219 H219       -8.4618  -26.0297  -48.4511 H         1 UNK         0.0600 
    220 H220       -6.8052  -22.7160  -50.5711 H         1 UNK         0.3000 
    221 H221       -7.6324  -21.4989  -52.1846 H         1 UNK         0.0600 
    222 H222      -10.3503  -21.3968  -50.7911 H         1 UNK         0.0600 
    223 H223       -9.0102  -20.2958  -50.4692 H         1 UNK         0.0600 
    224 H224       -9.7657  -20.3252  -52.0528 H         1 UNK         0.0600 
    225 H225       -8.0921  -24.6109  -51.9603 H         1 UNK         0.3000 
    226 H226      -10.1089  -25.0826  -54.0007 H         1 UNK         0.0600 
    227 H227       -9.4698  -26.7979  -52.2673 H         1 UNK         0.0600 
    228 H228       -9.3285  -27.3941  -53.9150 H         1 UNK         0.0600 
    229 H229       -7.8834  -26.9429  -53.0258 H         1 UNK         0.0600 
    230 H230       -6.5717  -24.6178  -53.9221 H         1 UNK         0.3000 
    231 H231       -6.3524  -24.8889  -56.8788 H         1 UNK         0.0600 
    232 H232       -4.5955  -25.9661  -55.4709 H         1 UNK         0.0600 
    233 H233       -4.1973  -24.4090  -54.7510 H         1 UNK         0.0600 
    234 H234       -3.9292  -24.6811  -56.4654 H         1 UNK         0.0600 
    235 H235       -6.3737  -22.5497  -54.2559 H         1 UNK         0.3000 
    236 H236       -6.5850  -20.3422  -54.1014 H         1 UNK         0.0600 
    237 H237       -7.5861  -20.3979  -56.9906 H         1 UNK         0.0600 
    238 H238       -8.5679  -20.7538  -55.5702 H         1 UNK         0.0600 
    239 H239       -7.8990  -19.1472  -55.7951 H         1 UNK         0.0600 
    240 H240       -4.0469  -21.4973  -55.2748 H         1 UNK         0.3000 
    241 H241       -2.0497  -20.9028  -55.8881 H         1 UNK         0.0600 
    242 H242       -4.3535  -21.2423  -57.9439 H         1 UNK         0.3800 
    243 H243       -3.5885  -20.6722  -59.4053 H         1 UNK         0.3800 
    244 H244       -2.4734  -17.9067  -56.0203 H         1 UNK         0.0800 
    245 H245       -2.6365  -18.6651  -54.4702 H         1 UNK         0.0800 
    246 H246        0.5816  -20.2659  -53.6118 H         1 UNK         0.0800 
    247 H247       -1.1113  -20.0338  -53.2780 H         1 UNK         0.0800 
@<TRIPOS>BOND
     1    1    2 1    
     2    1  127 1    
     3    1  128 1    
     4    1  129 1    
     5    2    3 2    
     6    2    4 am   BACKBONE|DICT|INTERRES
     7    4    5 1    
     8    4  130 1    
     9    5    6 1    
    10    5   65 1    
    11    5  131 1    
    12    6    7 1    
    13    6  132 1    
    14    6  133 1    
    15    7    8 1    
    16    8    9 1    
    17    8  134 1    
    18    8  135 1    
    19    9   10 ar   
    20    9   14 ar   
    21   10   11 ar   
    22   10  136 1    
    23   11   12 ar   
    24   11  126 1    
    25   12   13 ar   
    26   12  137 1    
    27   13   14 ar   
    28   13   15 1    
    29   14  138 1    
    30   15   16 1    
    31   15  139 1    
    32   15  140 1    
    33   16   17 1    
    34   17   18 1    
    35   17  141 1    
    36   17  142 1    
    37   18   19 1    
    38   18   67 1    
    39   18  143 1    
    40   19   20 am   BACKBONE|DICT|INTERRES
    41   19  144 1    
    42   20   21 2    
    43   20   22 1    
    44   22   23 1    
    45   22   24 1    
    46   22  145 1    
    47   23  146 1    
    48   23  147 1    
    49   23  148 1    
    50   24   25 am   BACKBONE|DICT|INTERRES
    51   24  149 1    
    52   25   26 2    
    53   25   27 1    
    54   27   28 1    
    55   27   29 1    
    56   27  150 1    
    57   28  151 1    
    58   28  152 1    
    59   28  153 1    
    60   29   30 am   BACKBONE|DICT|INTERRES
    61   29  154 1    
    62   30   31 2    
    63   30   32 1    
    64   32   33 1    
    65   32   34 1    
    66   32  155 1    
    67   33  156 1    
    68   33  157 1    
    69   33  158 1    
    70   34   35 am   BACKBONE|DICT|INTERRES
    71   34  159 1    
    72   35   36 2    
    73   35   37 1    
    74   37   38 1    
    75   37   39 1    
    76   37  160 1    
    77   38  161 1    
    78   38  162 1    
    79   38  163 1    
    80   39   40 am   BACKBONE|DICT|INTERRES
    81   39  164 1    
    82   40   41 2    
    83   40   42 1    
    84   42   43 1    
    85   42   44 1    
    86   42  165 1    
    87   43  166 1    
    88   43  167 1    
    89   43  168 1    
    90   44   45 am   BACKBONE|DICT|INTERRES
    91   44  169 1    
    92   45   46 2    
    93   45   47 1    
    94   47   48 1    
    95   47   49 1    
    96   47  170 1    
    97   48  171 1    
    98   48  172 1    
    99   48  173 1    
   100   49   50 am   BACKBONE|DICT|INTERRES
   101   49  174 1    
   102   50   51 2    
   103   50   52 1    
   104   52   53 1    
   105   52   54 1    
   106   52  175 1    
   107   53  176 1    
   108   53  177 1    
   109   53  178 1    
   110   54   55 am   BACKBONE|DICT|INTERRES
   111   54  179 1    
   112   55   56 2    
   113   55   57 1    
   114   57   58 1    
   115   57   59 1    
   116   57  180 1    
   117   58  181 1    
   118   58  182 1    
   119   58  183 1    
   120   59   60 am   BACKBONE|DICT|INTERRES
   121   59  184 1    
   122   60   61 2    
   123   60   62 1    
   124   62   63 1    
   125   62   64 1    
   126   62  185 1    
   127   63  186 1    
   128   63  187 1    
   129   63  188 1    
   130   64   65 am   BACKBONE|DICT|INTERRES
   131   64  189 1    
   132   65   66 2    
   133   67   68 2    
   134   67   69 am   BACKBONE|DICT|INTERRES
   135   69   70 1    
   136   69  190 1    
   137   70   71 1    
   138   70   72 1    
   139   70  191 1    
   140   71  192 1    
   141   71  193 1    
   142   71  194 1    
   143   72   73 2    
   144   72   74 am   BACKBONE|DICT|INTERRES
   145   74   75 1    
   146   74  195 1    
   147   75   76 1    
   148   75   77 1    
   149   75  196 1    
   150   76  197 1    
   151   76  198 1    
   152   76  199 1    
   153   77   78 2    
   154   77   79 am   BACKBONE|DICT|INTERRES
   155   79   80 1    
   156   79  200 1    
   157   80   81 1    
   158   80   82 1    
   159   80  201 1    
   160   81  202 1    
   161   81  203 1    
   162   81  204 1    
   163   82   83 2    
   164   82   84 am   BACKBONE|DICT|INTERRES
   165   84   85 1    
   166   84  205 1    
   167   85   86 1    
   168   85   87 1    
   169   85  206 1    
   170   86  207 1    
   171   86  208 1    
   172   86  209 1    
   173   87   88 2    
   174   87   89 am   BACKBONE|DICT|INTERRES
   175   89   90 1    
   176   89  210 1    
   177   90   91 1    
   178   90   92 1    
   179   90  211 1    
   180   91  212 1    
   181   91  213 1    
   182   91  214 1    
   183   92   93 2    
   184   92   94 am   BACKBONE|DICT|INTERRES
   185   94   95 1    
   186   94  215 1    
   187   95   96 1    
   188   95   97 1    
   189   95  216 1    
   190   96  217 1    
   191   96  218 1    
   192   96  219 1    
   193   97   98 2    
   194   97   99 am   BACKBONE|DICT|INTERRES
   195   99  100 1    
   196   99  220 1    
   197  100  101 1    
   198  100  102 1    
   199  100  221 1    
   200  101  222 1    
   201  101  223 1    
   202  101  224 1    
   203  102  103 2    
   204  102  104 am   BACKBONE|DICT|INTERRES
   205  104  105 1    
   206  104  225 1    
   207  105  106 1    
   208  105  107 1    
   209  105  226 1    
   210  106  227 1    
   211  106  228 1    
   212  106  229 1    
   213  107  108 2    
   214  107  109 am   BACKBONE|DICT|INTERRES
   215  109  110 1    
   216  109  230 1    
   217  110  111 1    
   218  110  112 1    
   219  110  231 1    
   220  111  232 1    
   221  111  233 1    
   222  111  234 1    
   223  112  113 2    
   224  112  114 am   BACKBONE|DICT|INTERRES
   225  114  115 1    
   226  114  235 1    
   227  115  116 1    
   228  115  117 1    
   229  115  236 1    
   230  116  237 1    
   231  116  238 1    
   232  116  239 1    
   233  117  118 2    
   234  117  119 am   BACKBONE|DICT|INTERRES
   235  119  120 1    
   236  119  240 1    
   237  120  121 1    
   238  120  124 1    
   239  120  241 1    
   240  121  122 am   BACKBONE|DICT|INTERRES
   241  121  123 2    
   242  122  242 1    
   243  122  243 1    
   244  124  125 1    
   245  124  244 1    
   246  124  245 1    
   247  125  126 1    
   248  126  246 1    
   249  126  247 1    
@<TRIPOS>SUBSTRUCTURE
     1 UNK         1 GROUP             0       ****    0 ROOT    
