@<TRIPOS>MOLECULE
3R540
247   249    1
SMALL
USER_CHARGES


@<TRIPOS>ATOM
      1 CA         -3.9202  -12.0807  -46.4072 C.3       0 UNK        -0.1800 
      2 C          -2.5846  -12.1323  -47.1352 C.2       0 UNK         0.5000 
      3 O          -2.0724  -11.0931  -47.5514 O.2       0 UNK        -0.5000 
      4 N          -2.0180  -13.3364  -47.2869 N.am      1 UNK        -0.5000 
      5 CA         -0.7318  -13.5842  -47.9566 C.3       1 UNK         0.1400 
      6 C6         -0.5894  -15.0586  -48.4101 C.3       23 UNK        -0.0398 
      7 S7         -1.8756  -15.5167  -49.6243 S.3       23 UNK        -0.2404 
      8 C8         -0.9898  -15.2978  -51.2020 C.3       23 UNK        -0.0205 
      9 C9         -0.5352  -16.6300  -51.7788 C.ar      23 UNK        -0.0193 
     10 C10        -1.2182  -17.1961  -52.8599 C.ar      23 UNK        -0.1150 
     11 C11        -0.8199  -18.4279  -53.3861 C.ar      23 UNK        -0.0193 
     12 C12         0.2699  -19.0956  -52.8204 C.ar      23 UNK        -0.1150 
     13 C13         0.9588  -18.5425  -51.7386 C.ar      23 UNK        -0.0193 
     14 C14         0.5592  -17.3038  -51.2290 C.ar      23 UNK        -0.1150 
     15 C15         2.1136  -19.2997  -51.0998 C.3       23 UNK        -0.0205 
     16 S16         1.5480  -20.7892  -50.2157 S.3       23 UNK        -0.2404 
     17 C17         0.3674  -20.0722  -49.0237 C.3       23 UNK        -0.0398 
     18 CA         -0.1943  -21.1364  -48.0529 C.3       11 UNK         0.1400 
     19 N           0.8567  -21.7401  -47.2184 N.am      11 UNK        -0.5000 
     20 C           0.7244  -22.8510  -46.4812 C.2       10 UNK         0.5000 
     21 O          -0.3376  -23.4615  -46.3717 O.2       10 UNK        -0.5000 
     22 CA          1.9552  -23.3473  -45.6953 C.3       10 UNK         0.1400 
     23 CB          2.4678  -24.6634  -46.2997 C.3       10 UNK        -0.1800 
     24 N           3.0694  -22.3931  -45.6512 N.am      10 UNK        -0.5000 
     25 C           3.2035  -21.3010  -44.8829 C.2       9 UNK         0.5000 
     26 O           4.2304  -20.6232  -44.9249 O.2       9 UNK        -0.5000 
     27 CA          2.0766  -20.8938  -43.9005 C.3       9 UNK         0.1400 
     28 CB          2.3642  -21.4522  -42.4986 C.3       9 UNK        -0.1800 
     29 N           1.8987  -19.4436  -43.8041 N.am      9 UNK        -0.5000 
     30 C           1.6626  -18.6075  -44.8254 C.2       8 UNK         0.5000 
     31 O           1.5084  -18.9807  -45.9871 O.2       8 UNK        -0.5000 
     32 CA          1.5552  -17.1044  -44.5079 C.3       8 UNK         0.1400 
     33 CB          0.0834  -16.6616  -44.4857 C.3       8 UNK        -0.1800 
     34 N           2.1933  -16.7261  -43.2458 N.am      8 UNK        -0.5000 
     35 C           3.5177  -16.6383  -43.0547 C.2       7 UNK         0.5000 
     36 O           4.3523  -16.8528  -43.9337 O.2       7 UNK        -0.5000 
     37 CA          3.9900  -16.2523  -41.6415 C.3       7 UNK         0.1400 
     38 CB          4.0544  -14.7254  -41.4767 C.3       7 UNK        -0.1800 
     39 N           3.1182  -16.8131  -40.6103 N.am      7 UNK        -0.5000 
     40 C           3.2279  -18.0568  -40.1232 C.2       6 UNK         0.5000 
     41 O           4.1210  -18.8406  -40.4444 O.2       6 UNK        -0.5000 
     42 CA          2.1533  -18.5090  -39.1147 C.3       6 UNK         0.1400 
     43 CB          2.6146  -18.2292  -37.6764 C.3       6 UNK        -0.1800 
     44 N           0.8533  -17.8713  -39.3313 N.am      6 UNK        -0.5000 
     45 C           0.0707  -18.0838  -40.3984 C.2       5 UNK         0.5000 
     46 O           0.3509  -18.8663  -41.3037 O.2       5 UNK        -0.5000 
     47 CA         -1.2124  -17.2377  -40.4961 C.3       5 UNK         0.1400 
     48 CB         -2.3785  -17.9453  -39.7908 C.3       5 UNK        -0.1800 
     49 N          -1.0598  -15.8840  -39.9523 N.am      5 UNK        -0.5000 
     50 C          -0.2010  -14.9672  -40.4169 C.2       4 UNK         0.5000 
     51 O           0.5815  -15.1695  -41.3498 O.2       4 UNK        -0.5000 
     52 CA         -0.1688  -13.6257  -39.6773 C.3       4 UNK         0.1400 
     53 CB          0.7358  -13.7141  -38.4358 C.3       4 UNK        -0.1800 
     54 N           0.3403  -12.5995  -40.5794 N.am      4 UNK        -0.5000 
     55 C           0.0146  -11.3026  -40.5400 C.2       3 UNK         0.5000 
     56 O          -0.7435  -10.8190  -39.6976 O.2       3 UNK        -0.5000 
     57 CA          0.6381  -10.3762  -41.6057 C.3       3 UNK         0.1400 
     58 CB          1.7552   -9.5240  -40.9824 C.3       3 UNK        -0.1800 
     59 N           1.1799  -11.0711  -42.7776 N.am      3 UNK        -0.5000 
     60 C           0.4475  -11.6936  -43.7091 C.2       2 UNK         0.5000 
     61 O          -0.7836  -11.7789  -43.6709 O.2       2 UNK        -0.5000 
     62 CA          1.2286  -12.3343  -44.8677 C.3       2 UNK         0.1400 
     63 CB          2.1982  -13.4174  -44.3643 C.3       2 UNK        -0.1800 
     64 N           0.2711  -12.9044  -45.8076 N.am      2 UNK        -0.5000 
     65 C           0.4827  -13.1427  -47.1068 C.2       1 UNK         0.5000 
     66 O           1.5798  -13.0090  -47.6505 O.2       1 UNK        -0.5000 
     67 C          -1.4014  -20.5839  -47.2566 C.2       11 UNK         0.5000 
     68 O          -2.4239  -20.2617  -47.8582 O.2       11 UNK        -0.5000 
     69 N          -1.3032  -20.5271  -45.9227 N.am      12 UNK        -0.5000 
     70 CA         -2.4251  -20.2802  -45.0173 C.3       12 UNK         0.1400 
     71 CB         -1.8823  -20.1094  -43.5906 C.3       12 UNK        -0.1800 
     72 C          -3.4919  -21.3972  -45.0517 C.2       12 UNK         0.5000 
     73 O          -4.6564  -21.1243  -44.7579 O.2       12 UNK        -0.5000 
     74 N          -3.0871  -22.6290  -45.3979 N.am      13 UNK        -0.5000 
     75 CA         -3.9610  -23.7962  -45.4710 C.3       13 UNK         0.1400 
     76 CB         -3.1067  -25.0731  -45.4899 C.3       13 UNK        -0.1800 
     77 C          -4.8815  -23.7417  -46.7026 C.2       13 UNK         0.5000 
     78 O          -4.3905  -23.6759  -47.8331 O.2       13 UNK        -0.5000 
     79 N          -6.1973  -23.7981  -46.4495 N.am      14 UNK        -0.5000 
     80 CA         -7.2884  -23.9376  -47.4226 C.3       14 UNK         0.1400 
     81 CB         -7.3123  -25.3805  -47.9691 C.3       14 UNK        -0.1800 
     82 C          -7.2791  -22.8772  -48.5446 C.2       14 UNK         0.5000 
     83 O          -7.5593  -23.2063  -49.6979 O.2       14 UNK        -0.5000 
     84 N          -6.9281  -21.6310  -48.1902 N.am      15 UNK        -0.5000 
     85 CA         -6.7610  -20.4814  -49.0895 C.3       15 UNK         0.1400 
     86 CB         -8.1261  -20.0199  -49.6421 C.3       15 UNK        -0.1800 
     87 C          -5.7279  -20.7672  -50.1998 C.2       15 UNK         0.5000 
     88 O          -6.0373  -20.6553  -51.3876 O.2       15 UNK        -0.5000 
     89 N          -4.5298  -21.1904  -49.7752 N.am      16 UNK        -0.5000 
     90 CA         -3.3943  -21.6070  -50.6014 C.3       16 UNK         0.1400 
     91 CB         -2.8279  -20.4039  -51.3783 C.3       16 UNK        -0.1800 
     92 C          -3.7309  -22.8189  -51.4902 C.2       16 UNK         0.5000 
     93 O          -3.3819  -22.8388  -52.6728 O.2       16 UNK        -0.5000 
     94 N          -4.4347  -23.7922  -50.8905 N.am      17 UNK        -0.5000 
     95 CA         -5.0033  -24.9896  -51.5173 C.3       17 UNK         0.1400 
     96 CB         -3.8794  -25.9590  -51.9403 C.3       17 UNK        -0.1800 
     97 C          -5.9632  -24.6346  -52.6723 C.2       17 UNK         0.5000 
     98 O          -5.8018  -25.1332  -53.7853 O.2       17 UNK        -0.5000 
     99 N          -6.9132  -23.7286  -52.3979 N.am      18 UNK        -0.5000 
    100 CA        -7.8329  -23.0978  -53.3536 C.3       18 UNK         0.1400 
    101 CB        -8.8762  -24.1155  -53.8589 C.3       18 UNK        -0.1800 
    102 C         -7.0810  -22.3769  -54.4955 C.2       18 UNK         0.5000 
    103 O         -7.4317  -22.5198  -55.6681 O.2       18 UNK        -0.5000 
    104 N         -6.0270  -21.6459  -54.1095 N.am      19 UNK        -0.5000 
    105 CA        -5.0563  -20.9265  -54.9377 C.3       19 UNK         0.1400 
    106 CB        -5.7377  -19.7869  -55.7217 C.3       19 UNK        -0.1800 
    107 C         -4.1687  -21.8117  -55.8419 C.2       19 UNK         0.5000 
    108 O         -3.4409  -21.2684  -56.6739 O.2       19 UNK        -0.5000 
    109 N         -4.1957  -23.1421  -55.6688 N.am      20 UNK        -0.5000 
    110 CA        -3.3932  -24.0823  -56.4552 C.3       20 UNK         0.1400 
    111 CB        -3.9138  -25.5127  -56.2597 C.3       20 UNK        -0.1800 
    112 C         -1.8882  -24.0170  -56.1394 C.2       20 UNK         0.5000 
    113 O         -1.0825  -24.3223  -57.0201 O.2       20 UNK        -0.5000 
    114 N         -1.5237  -23.5945  -54.9179 N.am      21 UNK        -0.5000 
    115 CA        -0.1361  -23.5046  -54.4437 C.3       21 UNK         0.1400 
    116 CB        -0.1337  -23.2199  -52.9344 C.3       21 UNK        -0.1800 
    117 C          0.7396  -22.4761  -55.1934 C.2       21 UNK         0.5000 
    118 O          1.9634  -22.5250  -55.0639 O.2       21 UNK        -0.5000 
    119 N          0.1110  -21.5833  -55.9658 N.am      22 UNK        -0.5000 
    120 CA         0.7536  -20.6077  -56.8566 C.3       22 UNK         0.1400 
    121 C          0.3256  -20.7737  -58.3451 C.2       22 UNK         0.5000 
    122 N         -0.3005  -21.8790  -58.7370 N.am      22 UNK        -0.7600 
    123 O          0.5930  -19.9052  -59.1713 O.2       22 UNK        -0.5000 
    124 C124        0.6277  -19.1569  -56.3166 C.3       23 UNK        -0.0398 
    125 S125       -1.0801  -18.5145  -56.1728 S.3       23 UNK        -0.2404 
    126 C126       -1.6085  -19.0679  -54.5187 C.3       23 UNK        -0.0205 
    127 H127       -4.6778  -11.6234  -47.0436 H         1 UNK         0.0600 
    128 H128       -4.2676  -13.0751  -46.1258 H         1 UNK         0.0600 
    129 H129       -3.8283  -11.4833  -45.4999 H         1 UNK         0.0600 
    130 H130       -2.4977  -14.1567  -46.9445 H         1 UNK         0.3000 
    131 H131       -0.7049  -12.9649  -48.8560 H         1 UNK         0.0600 
    132 H132        0.3948  -15.2400  -48.8442 H         1 UNK         0.0800 
    133 H133       -0.6681  -15.7316  -47.5552 H         1 UNK         0.0800 
    134 H134       -1.6576  -14.7941  -51.9025 H         1 UNK         0.0800 
    135 H135       -0.1338  -14.6332  -51.0776 H         1 UNK         0.0800 
    136 H136       -2.0709  -16.6856  -53.2851 H         1 UNK         0.1150 
    137 H137        0.5705  -20.0599  -53.2047 H         1 UNK         0.1150 
    138 H138        1.0860  -16.8750  -50.3891 H         1 UNK         0.1150 
    139 H139        2.8228  -19.5946  -51.8743 H         1 UNK         0.0800 
    140 H140        2.6626  -18.6599  -50.4071 H         1 UNK         0.0800 
    141 H141       -0.4418  -19.6148  -49.5948 H         1 UNK         0.0800 
    142 H142        0.8534  -19.2618  -48.4799 H         1 UNK         0.0800 
    143 H143       -0.6010  -21.9453  -48.6628 H         1 UNK         0.0600 
    144 H144        1.7507  -21.2690  -47.2328 H         1 UNK         0.3000 
    145 H145        1.6300  -23.5594  -44.6753 H         1 UNK         0.0600 
    146 H146        2.8149  -24.5277  -47.3248 H         1 UNK         0.0600 
    147 H147        3.2937  -25.0709  -45.7162 H         1 UNK         0.0600 
    148 H148        1.6821  -25.4203  -46.3172 H         1 UNK         0.0600 
    149 H149        3.8331  -22.6124  -46.2739 H         1 UNK         0.3000 
    150 H150        1.1199  -21.2912  -44.2311 H         1 UNK         0.0600 
    151 H151        2.4966  -22.5344  -42.5241 H         1 UNK         0.0600 
    152 H152        1.5430  -21.2440  -41.8127 H         1 UNK         0.0600 
    153 H153        3.2721  -21.0208  -42.0750 H         1 UNK         0.0600 
    154 H154        1.9355  -19.0495  -42.8734 H         1 UNK         0.3000 
    155 H155        2.0534  -16.5698  -45.3194 H         1 UNK         0.0600 
    156 H156       -0.4392  -16.9809  -45.3882 H         1 UNK         0.0600 
    157 H157       -0.0063  -15.5776  -44.4259 H         1 UNK         0.0600 
    158 H158       -0.4466  -17.0836  -43.6341 H         1 UNK         0.0600 
    159 H159        1.5754  -16.4578  -42.4873 H         1 UNK         0.3000 
    160 H160        5.0013  -16.6437  -41.5105 H         1 UNK         0.0600 
    161 H161        3.0715  -14.2635  -41.5629 H         1 UNK         0.0600 
    162 H162        4.6964  -14.2781  -42.2365 H         1 UNK         0.0600 
    163 H163        4.4647  -14.4533  -40.5042 H         1 UNK         0.0600 
    164 H164        2.3285  -16.2483  -40.3312 H         1 UNK         0.3000 
    165 H165        2.0255  -19.5875  -39.2308 H         1 UNK         0.0600 
    166 H166        1.8982  -18.6140  -36.9503 H         1 UNK         0.0600 
    167 H167        3.5720  -18.7107  -37.4727 H         1 UNK         0.0600 
    168 H168        2.7386  -17.1610  -37.4937 H         1 UNK         0.0600 
    169 H169        0.5461  -17.2111  -38.6327 H         1 UNK         0.3000 
    170 H170       -1.4666  -17.1439  -41.5528 H         1 UNK         0.0600 
    171 H171       -2.2018  -18.0444  -38.7191 H         1 UNK         0.0600 
    172 H172       -3.3125  -17.4004  -39.9292 H         1 UNK         0.0600 
    173 H173       -2.5267  -18.9482  -40.1938 H         1 UNK         0.0600 
    174 H174       -1.6582  -15.6443  -39.1748 H         1 UNK         0.3000 
    175 H175       -1.1883  -13.3780  -39.3742 H         1 UNK         0.0600 
    176 H176        0.3816  -14.4778  -37.7425 H         1 UNK         0.0600 
    177 H177        1.7634  -13.9631  -38.7047 H         1 UNK         0.0600 
    178 H178        0.7534  -12.7689  -37.8929 H         1 UNK         0.0600 
    179 H179        0.9184  -12.9476  -41.3323 H         1 UNK         0.3000 
    180 H180       -0.1512   -9.7037  -41.9484 H         1 UNK         0.0600 
    181 H181        2.1491   -8.8028  -41.6989 H         1 UNK         0.0600 
    182 H182        2.5845  -10.1411  -40.6343 H         1 UNK         0.0600 
    183 H183        1.3856   -8.9583  -40.1260 H         1 UNK         0.0600 
    184 H184        2.1842  -11.0488  -42.8807 H         1 UNK         0.3000 
    185 H185        1.7907  -11.5457  -45.3722 H         1 UNK         0.0600 
    186 H186        3.0271  -12.9753  -43.8117 H         1 UNK         0.0600 
    187 H187        1.6935  -14.1122  -43.6956 H         1 UNK         0.0600 
    188 H188        2.6309  -13.9906  -45.1841 H         1 UNK         0.0600 
    189 H189       -0.6712  -12.9670  -45.4417 H         1 UNK         0.3000 
    190 H190       -0.4157  -20.7579  -45.5060 H         1 UNK         0.3000 
    191 H191       -2.9067  -19.3476  -45.3187 H         1 UNK         0.0600 
    192 H192       -1.3904  -21.0148  -43.2328 H         1 UNK         0.0600 
    193 H193       -2.6847  -19.8731  -42.8907 H         1 UNK         0.0600 
    194 H194       -1.1597  -19.2974  -43.5384 H         1 UNK         0.0600 
    195 H195       -2.1244  -22.7767  -45.6820 H         1 UNK         0.3000 
    196 H196       -4.5721  -23.8200  -44.5660 H         1 UNK         0.0600 
    197 H197       -3.7368  -25.9632  -45.4816 H         1 UNK         0.0600 
    198 H198       -2.4545  -25.1263  -44.6181 H         1 UNK         0.0600 
    199 H199       -2.4794  -25.1255  -46.3807 H         1 UNK         0.0600 
    200 H200       -6.4885  -23.8054  -45.4816 H         1 UNK         0.3000 
    201 H201       -8.2169  -23.7792  -46.8724 H         1 UNK         0.0600 
    202 H202       -7.4022  -26.1048  -47.1596 H         1 UNK         0.0600 
    203 H203       -6.4047  -25.6152  -48.5248 H         1 UNK         0.0600 
    204 H204       -8.1600  -25.5392  -48.6369 H         1 UNK         0.0600 
    205 H205       -6.6905  -21.4704  -47.2210 H         1 UNK         0.3000 
    206 H206       -6.3539  -19.6670  -48.4885 H         1 UNK         0.0600 
    207 H207       -8.5842  -20.7746  -50.2821 H         1 UNK         0.0600 
    208 H208       -8.8233  -19.7979  -48.8343 H         1 UNK         0.0600 
    209 H209       -8.0177  -19.1119  -50.2364 H         1 UNK         0.0600 
    210 H210       -4.3711  -21.2649  -48.7788 H         1 UNK         0.3000 
    211 H211       -2.6219  -21.9533  -49.9161 H         1 UNK         0.0600 
    212 H212       -3.5265  -20.0324  -52.1260 H         1 UNK         0.0600 
    213 H213       -1.9078  -20.6727  -51.8907 H         1 UNK         0.0600 
    214 H214       -2.5929  -19.5769  -50.7086 H         1 UNK         0.0600 
    215 H215       -4.6394  -23.6749  -49.9029 H         1 UNK         0.3000 
    216 H216       -5.6052  -25.4881  -50.7576 H         1 UNK         0.0600 
    217 H217       -4.2932  -26.8906  -52.3277 H         1 UNK         0.0600 
    218 H218       -3.2416  -26.2140  -51.0940 H         1 UNK         0.0600 
    219 H219       -3.2461  -25.5341  -52.7197 H         1 UNK         0.0600 
    220 H220       -6.9975  -23.4006  -51.4370 H         1 UNK         0.3000 
    221 H221       -8.3651  -22.3234  -52.7991 H         1 UNK         0.0600 
    222 H222       -8.4189  -24.9014  -54.4606 H         1 UNK         0.0600 
    223 H223       -9.3971  -24.5898  -53.0272 H         1 UNK         0.0600 
    224 H224       -9.6297  -23.6267  -54.4774 H         1 UNK         0.0600 
    225 H225       -5.8671  -21.5638  -53.1086 H         1 UNK         0.3000 
    226 H226       -4.3711  -20.4649  -54.2290 H         1 UNK         0.0600 
    227 H227       -6.3980  -20.1693  -56.5003 H         1 UNK         0.0600 
    228 H228       -6.3277  -19.1521  -55.0607 H         1 UNK         0.0600 
    229 H229       -4.9983  -19.1480  -56.2062 H         1 UNK         0.0600 
    230 H230       -4.7861  -23.5367  -54.9460 H         1 UNK         0.3000 
    231 H231       -3.5183  -23.8249  -57.5091 H         1 UNK         0.0600 
    232 H232       -3.4067  -26.2058  -56.9320 H         1 UNK         0.0600 
    233 H233       -4.9817  -25.5791  -56.4685 H         1 UNK         0.0600 
    234 H234       -3.7445  -25.8660  -55.2422 H         1 UNK         0.0600 
    235 H235       -2.2487  -23.3475  -54.2490 H         1 UNK         0.3000 
    236 H236        0.3234  -24.4826  -54.5993 H         1 UNK         0.0600 
    237 H237       -0.5634  -22.2449  -52.7149 H         1 UNK         0.0600 
    238 H238       -0.7033  -23.9711  -52.3869 H         1 UNK         0.0600 
    239 H239        0.8810  -23.2253  -52.5341 H         1 UNK         0.0600 
    240 H240       -0.8969  -21.6235  -56.0312 H         1 UNK         0.3000 
    241 H241        1.8229  -20.8227  -56.8868 H         1 UNK         0.0600 
    242 H242       -0.5630  -21.9763  -59.7050 H         1 UNK         0.3800 
    243 H243       -0.4822  -22.6387  -58.0923 H         1 UNK         0.3800 
    244 H244        1.1777  -18.4750  -56.9667 H         1 UNK         0.0800 
    245 H245        1.1308  -19.0811  -55.3549 H         1 UNK         0.0800 
    246 H246       -2.6626  -18.8146  -54.4028 H         1 UNK         0.0800 
    247 H247       -1.5590  -20.1542  -54.4497 H         1 UNK         0.0800 
@<TRIPOS>BOND
     1    1    2 1    
     2    1  127 1    
     3    1  128 1    
     4    1  129 1    
     5    2    3 2    
     6    2    4 am   BACKBONE|DICT|INTERRES
     7    4    5 1    
     8    4  130 1    
     9    5    6 1    
    10    5   65 1    
    11    5  131 1    
    12    6    7 1    
    13    6  132 1    
    14    6  133 1    
    15    7    8 1    
    16    8    9 1    
    17    8  134 1    
    18    8  135 1    
    19    9   10 ar   
    20    9   14 ar   
    21   10   11 ar   
    22   10  136 1    
    23   11   12 ar   
    24   11  126 1    
    25   12   13 ar   
    26   12  137 1    
    27   13   14 ar   
    28   13   15 1    
    29   14  138 1    
    30   15   16 1    
    31   15  139 1    
    32   15  140 1    
    33   16   17 1    
    34   17   18 1    
    35   17  141 1    
    36   17  142 1    
    37   18   19 1    
    38   18   67 1    
    39   18  143 1    
    40   19   20 am   BACKBONE|DICT|INTERRES
    41   19  144 1    
    42   20   21 2    
    43   20   22 1    
    44   22   23 1    
    45   22   24 1    
    46   22  145 1    
    47   23  146 1    
    48   23  147 1    
    49   23  148 1    
    50   24   25 am   BACKBONE|DICT|INTERRES
    51   24  149 1    
    52   25   26 2    
    53   25   27 1    
    54   27   28 1    
    55   27   29 1    
    56   27  150 1    
    57   28  151 1    
    58   28  152 1    
    59   28  153 1    
    60   29   30 am   BACKBONE|DICT|INTERRES
    61   29  154 1    
    62   30   31 2    
    63   30   32 1    
    64   32   33 1    
    65   32   34 1    
    66   32  155 1    
    67   33  156 1    
    68   33  157 1    
    69   33  158 1    
    70   34   35 am   BACKBONE|DICT|INTERRES
    71   34  159 1    
    72   35   36 2    
    73   35   37 1    
    74   37   38 1    
    75   37   39 1    
    76   37  160 1    
    77   38  161 1    
    78   38  162 1    
    79   38  163 1    
    80   39   40 am   BACKBONE|DICT|INTERRES
    81   39  164 1    
    82   40   41 2    
    83   40   42 1    
    84   42   43 1    
    85   42   44 1    
    86   42  165 1    
    87   43  166 1    
    88   43  167 1    
    89   43  168 1    
    90   44   45 am   BACKBONE|DICT|INTERRES
    91   44  169 1    
    92   45   46 2    
    93   45   47 1    
    94   47   48 1    
    95   47   49 1    
    96   47  170 1    
    97   48  171 1    
    98   48  172 1    
    99   48  173 1    
   100   49   50 am   BACKBONE|DICT|INTERRES
   101   49  174 1    
   102   50   51 2    
   103   50   52 1    
   104   52   53 1    
   105   52   54 1    
   106   52  175 1    
   107   53  176 1    
   108   53  177 1    
   109   53  178 1    
   110   54   55 am   BACKBONE|DICT|INTERRES
   111   54  179 1    
   112   55   56 2    
   113   55   57 1    
   114   57   58 1    
   115   57   59 1    
   116   57  180 1    
   117   58  181 1    
   118   58  182 1    
   119   58  183 1    
   120   59   60 am   BACKBONE|DICT|INTERRES
   121   59  184 1    
   122   60   61 2    
   123   60   62 1    
   124   62   63 1    
   125   62   64 1    
   126   62  185 1    
   127   63  186 1    
   128   63  187 1    
   129   63  188 1    
   130   64   65 am   BACKBONE|DICT|INTERRES
   131   64  189 1    
   132   65   66 2    
   133   67   68 2    
   134   67   69 am   BACKBONE|DICT|INTERRES
   135   69   70 1    
   136   69  190 1    
   137   70   71 1    
   138   70   72 1    
   139   70  191 1    
   140   71  192 1    
   141   71  193 1    
   142   71  194 1    
   143   72   73 2    
   144   72   74 am   BACKBONE|DICT|INTERRES
   145   74   75 1    
   146   74  195 1    
   147   75   76 1    
   148   75   77 1    
   149   75  196 1    
   150   76  197 1    
   151   76  198 1    
   152   76  199 1    
   153   77   78 2    
   154   77   79 am   BACKBONE|DICT|INTERRES
   155   79   80 1    
   156   79  200 1    
   157   80   81 1    
   158   80   82 1    
   159   80  201 1    
   160   81  202 1    
   161   81  203 1    
   162   81  204 1    
   163   82   83 2    
   164   82   84 am   BACKBONE|DICT|INTERRES
   165   84   85 1    
   166   84  205 1    
   167   85   86 1    
   168   85   87 1    
   169   85  206 1    
   170   86  207 1    
   171   86  208 1    
   172   86  209 1    
   173   87   88 2    
   174   87   89 am   BACKBONE|DICT|INTERRES
   175   89   90 1    
   176   89  210 1    
   177   90   91 1    
   178   90   92 1    
   179   90  211 1    
   180   91  212 1    
   181   91  213 1    
   182   91  214 1    
   183   92   93 2    
   184   92   94 am   BACKBONE|DICT|INTERRES
   185   94   95 1    
   186   94  215 1    
   187   95   96 1    
   188   95   97 1    
   189   95  216 1    
   190   96  217 1    
   191   96  218 1    
   192   96  219 1    
   193   97   98 2    
   194   97   99 am   BACKBONE|DICT|INTERRES
   195   99  100 1    
   196   99  220 1    
   197  100  101 1    
   198  100  102 1    
   199  100  221 1    
   200  101  222 1    
   201  101  223 1    
   202  101  224 1    
   203  102  103 2    
   204  102  104 am   BACKBONE|DICT|INTERRES
   205  104  105 1    
   206  104  225 1    
   207  105  106 1    
   208  105  107 1    
   209  105  226 1    
   210  106  227 1    
   211  106  228 1    
   212  106  229 1    
   213  107  108 2    
   214  107  109 am   BACKBONE|DICT|INTERRES
   215  109  110 1    
   216  109  230 1    
   217  110  111 1    
   218  110  112 1    
   219  110  231 1    
   220  111  232 1    
   221  111  233 1    
   222  111  234 1    
   223  112  113 2    
   224  112  114 am   BACKBONE|DICT|INTERRES
   225  114  115 1    
   226  114  235 1    
   227  115  116 1    
   228  115  117 1    
   229  115  236 1    
   230  116  237 1    
   231  116  238 1    
   232  116  239 1    
   233  117  118 2    
   234  117  119 am   BACKBONE|DICT|INTERRES
   235  119  120 1    
   236  119  240 1    
   237  120  121 1    
   238  120  124 1    
   239  120  241 1    
   240  121  122 am   BACKBONE|DICT|INTERRES
   241  121  123 2    
   242  122  242 1    
   243  122  243 1    
   244  124  125 1    
   245  124  244 1    
   246  124  245 1    
   247  125  126 1    
   248  126  246 1    
   249  126  247 1    
@<TRIPOS>SUBSTRUCTURE
     1 UNK         1 GROUP             0       ****    0 ROOT    
