@<TRIPOS>MOLECULE
3R540
247   249    1
SMALL
USER_CHARGES


@<TRIPOS>ATOM
      1 CA          4.2120  -14.9277  -46.6876 C.3       0 UNK        -0.1800 
      2 C           2.6963  -15.0084  -46.7833 C.2       0 UNK         0.5000 
      3 O           2.0044  -14.9574  -45.7634 O.2       0 UNK        -0.5000 
      4 N           2.1878  -15.1099  -48.0163 N.am      1 UNK        -0.5000 
      5 CA          0.7664  -15.1274  -48.3906 C.3       1 UNK         0.1400 
      6 C6          0.5593  -15.4493  -49.8969 C.3       23 UNK        -0.0398 
      7 S7          1.7493  -14.5970  -51.0074 S.3       23 UNK        -0.2404 
      8 C8          1.9814  -15.7559  -52.4048 C.3       23 UNK        -0.0205 
      9 C9          2.1164  -17.2144  -51.9843 C.ar      23 UNK        -0.0193 
     10 C10         1.2183  -18.1636  -52.4843 C.ar      23 UNK        -0.1150 
     11 C11         1.2706  -19.4872  -52.0436 C.ar      23 UNK        -0.0193 
     12 C12         2.2322  -19.8622  -51.1048 C.ar      23 UNK        -0.1150 
     13 C13         3.1301  -18.9246  -50.5915 C.ar      23 UNK        -0.0193 
     14 C14         3.0870  -17.6061  -51.0541 C.ar      23 UNK        -0.1150 
     15 C15         4.1003  -19.3360  -49.4942 C.3       23 UNK        -0.0205 
     16 S16         3.6362  -18.7018  -47.8425 S.3       23 UNK        -0.2404 
     17 C17         1.8194  -18.8958  -47.7650 C.3       23 UNK        -0.0398 
     18 CA          1.3497  -20.3587  -47.5814 C.3       11 UNK         0.1400 
     19 N           1.7867  -20.9343  -46.3073 N.am      11 UNK        -0.5000 
     20 C           1.5741  -22.1971  -45.9106 C.2       10 UNK         0.5000 
     21 O           1.0080  -23.0422  -46.6055 O.2       10 UNK        -0.5000 
     22 CA          2.0113  -22.5686  -44.4780 C.3       10 UNK         0.1400 
     23 CB          3.1117  -21.6448  -43.9127 C.3       10 UNK        -0.1800 
     24 N           0.8851  -22.6236  -43.5363 N.am      10 UNK        -0.5000 
     25 C          -0.0334  -21.6701  -43.3160 C.2       9 UNK         0.5000 
     26 O          -0.1293  -20.6438  -43.9875 O.2       9 UNK        -0.5000 
     27 CA         -1.0242  -21.8736  -42.1549 C.3       9 UNK         0.1400 
     28 CB         -1.1397  -23.3298  -41.6494 C.3       9 UNK        -0.1800 
     29 N          -0.7265  -20.9413  -41.0642 N.am      9 UNK        -0.5000 
     30 C           0.3686  -20.9188  -40.2873 C.2       8 UNK         0.5000 
     31 O           1.2592  -21.7695  -40.3314 O.2       8 UNK        -0.5000 
     32 CA          0.4805  -19.7436  -39.2962 C.3       8 UNK         0.1400 
     33 CB          1.9272  -19.4962  -38.8304 C.3       8 UNK        -0.1800 
     34 N          -0.0289  -18.5174  -39.9056 N.am      8 UNK        -0.5000 
     35 C          -1.0218  -17.7540  -39.4325 C.2       7 UNK         0.5000 
     36 O          -1.6360  -18.0049  -38.3948 O.2       7 UNK        -0.5000 
     37 CA         -1.4047  -16.4962  -40.2437 C.3       7 UNK         0.1400 
     38 CB         -0.9258  -15.2271  -39.5218 C.3       7 UNK        -0.1800 
     39 N          -0.8830  -16.4847  -41.6127 N.am      7 UNK        -0.5000 
     40 C          -1.2808  -17.3095  -42.5912 C.2       6 UNK         0.5000 
     41 O          -2.1806  -18.1393  -42.4556 O.2       6 UNK        -0.5000 
     42 CA         -0.5222  -17.2218  -43.9306 C.3       6 UNK         0.1400 
     43 CB         -1.2024  -16.2176  -44.8711 C.3       6 UNK        -0.1800 
     44 N           0.9007  -16.8845  -43.8148 N.am      6 UNK        -0.5000 
     45 C           1.8087  -17.5422  -43.0742 C.2       5 UNK         0.5000 
     46 O           1.5420  -18.4997  -42.3515 O.2       5 UNK        -0.5000 
     47 CA          3.2544  -17.0291  -43.1130 C.3       5 UNK         0.1400 
     48 CB          4.0192  -17.6603  -44.2837 C.3       5 UNK        -0.1800 
     49 N           3.2802  -15.5730  -43.2368 N.am      5 UNK        -0.5000 
     50 C           3.6737  -14.7395  -42.2687 C.2       4 UNK         0.5000 
     51 O           4.1590  -15.1054  -41.1971 O.2       4 UNK        -0.5000 
     52 CA          3.4826  -13.2339  -42.5293 C.3       4 UNK         0.1400 
     53 CB          4.6957  -12.6636  -43.2806 C.3       4 UNK        -0.1800 
     54 N           2.2593  -12.8532  -43.2456 N.am      4 UNK        -0.5000 
     55 C           1.0026  -13.2023  -42.9265 C.2       3 UNK         0.5000 
     56 O           0.7059  -14.0613  -42.0973 O.2       3 UNK        -0.5000 
     57 CA         -0.1160  -12.4350  -43.6442 C.3       3 UNK         0.1400 
     58 CB         -0.3563  -11.1101  -42.8855 C.3       3 UNK        -0.1800 
     59 N           0.2324  -12.2294  -45.0552 N.am      3 UNK        -0.5000 
     60 C          -0.4149  -11.4673  -45.9498 C.2       2 UNK         0.5000 
     61 O          -1.4246  -10.8072  -45.7044 O.2       2 UNK        -0.5000 
     62 CA          0.1564  -11.4461  -47.3810 C.3       2 UNK         0.1400 
     63 CB          1.2408  -10.3655  -47.5109 C.3       2 UNK        -0.1800 
     64 N           0.7107  -12.7317  -47.8044 N.am      2 UNK        -0.5000 
     65 C          -0.0041  -13.8511  -47.9877 C.2       1 UNK         0.5000 
     66 O          -1.2259  -13.9096  -47.8464 O.2       1 UNK        -0.5000 
     67 C          -0.1775  -20.4505  -47.7906 C.2       11 UNK         0.5000 
     68 O          -0.6081  -20.6860  -48.9174 O.2       11 UNK        -0.5000 
     69 N          -0.9712  -20.3083  -46.7173 N.am      12 UNK        -0.5000 
     70 CA         -2.4317  -20.4264  -46.7699 C.3       12 UNK         0.1400 
     71 CB         -3.0543  -19.8292  -45.5005 C.3       12 UNK        -0.1800 
     72 C          -2.9042  -21.8776  -46.9723 C.2       12 UNK         0.5000 
     73 O          -3.9309  -22.0963  -47.6184 O.2       12 UNK        -0.5000 
     74 N          -2.1360  -22.8422  -46.4457 N.am      13 UNK        -0.5000 
     75 CA         -2.3685  -24.2723  -46.6427 C.3       13 UNK         0.1400 
     76 CB         -1.6112  -25.0830  -45.5809 C.3       13 UNK        -0.1800 
     77 C          -1.9818  -24.7076  -48.0650 C.2       13 UNK         0.5000 
     78 O          -2.7462  -25.4311  -48.7024 O.2       13 UNK        -0.5000 
     79 N          -0.8417  -24.2041  -48.5618 N.am      14 UNK        -0.5000 
     80 CA         -0.3778  -24.3819  -49.9417 C.3       14 UNK         0.1400 
     81 CB          1.0248  -23.7741  -50.0877 C.3       14 UNK        -0.1800 
     82 C          -1.3434  -23.7742  -50.9784 C.2       14 UNK         0.5000 
     83 O          -1.5577  -24.3637  -52.0373 O.2       14 UNK        -0.5000 
     84 N          -1.9428  -22.6279  -50.6281 N.am      15 UNK        -0.5000 
     85 CA         -2.9750  -21.9406  -51.4015 C.3       15 UNK         0.1400 
     86 CB         -3.1188  -20.5053  -50.8688 C.3       15 UNK        -0.1800 
     87 C          -4.3451  -22.6397  -51.3610 C.2       15 UNK         0.5000 
     88 O          -5.2267  -22.2472  -52.1289 O.2       15 UNK        -0.5000 
     89 N          -4.5192  -23.6108  -50.4523 N.am      16 UNK        -0.5000 
     90 CA         -5.7557  -24.3349  -50.1493 C.3       16 UNK         0.1400 
     91 CB         -6.1547  -25.2414  -51.3327 C.3       16 UNK        -0.1800 
     92 C          -6.8820  -23.3793  -49.7084 C.2       16 UNK         0.5000 
     93 O          -7.9965  -23.4592  -50.2237 O.2       16 UNK        -0.5000 
     94 N          -6.5447  -22.4387  -48.8112 N.am      17 UNK        -0.5000 
     95 CA         -7.3919  -21.3308  -48.3480 C.3       17 UNK         0.1400 
     96 CB         -8.5716  -21.8548  -47.5028 C.3       17 UNK        -0.1800 
     97 C          -7.8349  -20.4016  -49.5021 C.2       17 UNK         0.5000 
     98 O          -8.9665  -19.9153  -49.5147 O.2       17 UNK        -0.5000 
     99 N          -6.9166  -20.1993  -50.4584 N.am      18 UNK        -0.5000 
    100 CA        -7.0461  -19.4308  -51.7007 C.3       18 UNK         0.1400 
    101 CB        -7.4136  -17.9581  -51.4250 C.3       18 UNK        -0.1800 
    102 C         -7.9476  -20.0858  -52.7687 C.2       18 UNK         0.5000 
    103 O         -8.2925  -19.4202  -53.7462 O.2       18 UNK        -0.5000 
    104 N         -8.2841  -21.3754  -52.6098 N.am      19 UNK        -0.5000 
    105 CA        -8.9979  -22.1552  -53.6246 C.3       19 UNK         0.1400 
    106 CB        -9.6099  -23.4117  -52.9888 C.3       19 UNK        -0.1800 
    107 C         -8.0883  -22.5382  -54.8072 C.2       19 UNK         0.5000 
    108 O         -8.5573  -22.5599  -55.9459 O.2       19 UNK        -0.5000 
    109 N         -6.8099  -22.8184  -54.5190 N.am      20 UNK        -0.5000 
    110 CA        -5.7748  -23.0984  -55.5149 C.3       20 UNK         0.1400 
    111 CB        -4.9011  -24.2653  -55.0268 C.3       20 UNK        -0.1800 
    112 C         -4.9124  -21.8520  -55.7707 C.2       20 UNK         0.5000 
    113 O         -4.5138  -21.6096  -56.9112 O.2       20 UNK        -0.5000 
    114 N         -4.6297  -21.0930  -54.6988 N.am      21 UNK        -0.5000 
    115 CA        -3.9023  -19.8152  -54.6677 C.3       21 UNK         0.1400 
    116 CB        -4.7409  -18.7167  -55.3516 C.3       21 UNK        -0.1800 
    117 C         -2.4562  -19.8696  -55.2131 C.2       21 UNK         0.5000 
    118 O         -1.8840  -18.8205  -55.5111 O.2       21 UNK        -0.5000 
    119 N         -1.8936  -21.0810  -55.3382 N.am      22 UNK        -0.5000 
    120 CA        -0.6261  -21.3801  -56.0309 C.3       22 UNK         0.1400 
    121 C         -0.6520  -21.0521  -57.5583 C.2       22 UNK         0.5000 
    122 N         -1.8151  -21.0097  -58.2009 N.am      22 UNK        -0.7600 
    123 O          0.3890  -20.8654  -58.1828 O.2       22 UNK        -0.5000 
    124 C124        0.6267  -20.8242  -55.2909 C.3       23 UNK        -0.0398 
    125 S125        0.9085  -21.6863  -53.7078 S.3       23 UNK        -0.2404 
    126 C126        0.2406  -20.5011  -52.5052 C.3       23 UNK        -0.0205 
    127 H127        4.5596  -15.2034  -45.6939 H         1 UNK         0.0600 
    128 H128        4.6837  -15.5982  -47.4064 H         1 UNK         0.0600 
    129 H129        4.5462  -13.9107  -46.8914 H         1 UNK         0.0600 
    130 H130        2.8208  -15.1336  -48.8038 H         1 UNK         0.3000 
    131 H131        0.3109  -15.9409  -47.8252 H         1 UNK         0.0600 
    132 H132        0.6465  -16.5267  -50.0169 H         1 UNK         0.0800 
    133 H133       -0.4558  -15.2176  -50.2257 H         1 UNK         0.0800 
    134 H134        2.8736  -15.4642  -52.9601 H         1 UNK         0.0800 
    135 H135        1.1421  -15.6320  -53.0909 H         1 UNK         0.0800 
    136 H136        0.4554  -17.8669  -53.1907 H         1 UNK         0.1150 
    137 H137        2.2562  -20.8822  -50.7502 H         1 UNK         0.1150 
    138 H138        3.7706  -16.8738  -50.6483 H         1 UNK         0.1150 
    139 H139        4.1758  -20.4231  -49.4407 H         1 UNK         0.0800 
    140 H140        5.0998  -18.9764  -49.7419 H         1 UNK         0.0800 
    141 H141        1.4590  -18.2826  -46.9368 H         1 UNK         0.0800 
    142 H142        1.3830  -18.4519  -48.6604 H         1 UNK         0.0800 
    143 H143        1.8070  -20.9611  -48.3671 H         1 UNK         0.0600 
    144 H144        2.2329  -20.3014  -45.6607 H         1 UNK         0.3000 
    145 H145        2.4231  -23.5770  -44.5375 H         1 UNK         0.0600 
    146 H146        3.5001  -22.0379  -42.9730 H         1 UNK         0.0600 
    147 H147        3.9550  -21.5605  -44.5995 H         1 UNK         0.0600 
    148 H148        2.7373  -20.6413  -43.7110 H         1 UNK         0.0600 
    149 H149        0.8648  -23.4346  -42.9350 H         1 UNK         0.3000 
    150 H150       -2.0042  -21.5871  -42.5391 H         1 UNK         0.0600 
    151 H151       -1.4371  -23.9999  -42.4552 H         1 UNK         0.0600 
    152 H152       -1.8998  -23.4094  -40.8723 H         1 UNK         0.0600 
    153 H153       -0.2069  -23.7109  -41.2343 H         1 UNK         0.0600 
    154 H154       -1.3585  -20.1554  -40.9909 H         1 UNK         0.3000 
    155 H155       -0.1158  -20.0168  -38.4237 H         1 UNK         0.0600 
    156 H156        2.3324  -20.3703  -38.3195 H         1 UNK         0.0600 
    157 H157        1.9781  -18.6611  -38.1316 H         1 UNK         0.0600 
    158 H158        2.5838  -19.2696  -39.6716 H         1 UNK         0.0600 
    159 H159        0.4008  -18.2768  -40.7954 H         1 UNK         0.3000 
    160 H160       -2.4948  -16.4660  -40.2981 H         1 UNK         0.0600 
    161 H161        0.1627  -15.1881  -39.4614 H         1 UNK         0.0600 
    162 H162       -1.2644  -14.3286  -40.0381 H         1 UNK         0.0600 
    163 H163       -1.3147  -15.1818  -38.5038 H         1 UNK         0.0600 
    164 H164       -0.1586  -15.8003  -41.8131 H         1 UNK         0.3000 
    165 H165       -0.5821  -18.2029  -44.3990 H         1 UNK         0.0600 
    166 H166       -0.8033  -16.2978  -45.8799 H         1 UNK         0.0600 
    167 H167       -2.2763  -16.3970  -44.9351 H         1 UNK         0.0600 
    168 H168       -1.0608  -15.1914  -44.5355 H         1 UNK         0.0600 
    169 H169        1.2186  -16.1147  -44.3928 H         1 UNK         0.3000 
    170 H170        3.7394  -17.3478  -42.1880 H         1 UNK         0.0600 
    171 H171        4.0789  -18.7429  -44.1760 H         1 UNK         0.0600 
    172 H172        3.5325  -17.4515  -45.2346 H         1 UNK         0.0600 
    173 H173        5.0410  -17.2850  -44.3372 H         1 UNK         0.0600 
    174 H174        2.8682  -15.1781  -44.0760 H         1 UNK         0.3000 
    175 H175        3.4351  -12.7489  -41.5523 H         1 UNK         0.0600 
    176 H176        4.7594  -13.0549  -44.2963 H         1 UNK         0.0600 
    177 H177        4.6473  -11.5763  -43.3423 H         1 UNK         0.0600 
    178 H178        5.6271  -12.9164  -42.7721 H         1 UNK         0.0600 
    179 H179        2.3745  -12.1225  -43.9316 H         1 UNK         0.3000 
    180 H180       -1.0245  -13.0371  -43.5980 H         1 UNK         0.0600 
    181 H181       -0.4205  -11.2783  -41.8093 H         1 UNK         0.0600 
    182 H182        0.4489  -10.3949  -43.0570 H         1 UNK         0.0600 
    183 H183       -1.2942  -10.6388  -43.1763 H         1 UNK         0.0600 
    184 H184        0.9914  -12.8067  -45.3951 H         1 UNK         0.3000 
    185 H185       -0.6604  -11.1928  -48.0602 H         1 UNK         0.0600 
    186 H186        0.8538   -9.3875  -47.2215 H         1 UNK         0.0600 
    187 H187        2.1017  -10.5789  -46.8760 H         1 UNK         0.0600 
    188 H188        1.5936  -10.2822  -48.5390 H         1 UNK         0.0600 
    189 H189        1.7063  -12.7707  -47.9646 H         1 UNK         0.3000 
    190 H190       -0.5530  -20.2058  -45.7955 H         1 UNK         0.3000 
    191 H191       -2.7902  -19.8410  -47.6185 H         1 UNK         0.0600 
    192 H192       -4.1429  -19.8906  -45.5341 H         1 UNK         0.0600 
    193 H193       -2.7956  -18.7769  -45.3930 H         1 UNK         0.0600 
    194 H194       -2.7264  -20.3493  -44.6010 H         1 UNK         0.0600 
    195 H195       -1.2751  -22.5793  -45.9882 H         1 UNK         0.3000 
    196 H196       -3.4351  -24.4698  -46.5135 H         1 UNK         0.0600 
    197 H197       -1.7742  -26.1525  -45.7199 H         1 UNK         0.0600 
    198 H198       -1.9583  -24.8321  -44.5797 H         1 UNK         0.0600 
    199 H199       -0.5362  -24.9095  -45.6184 H         1 UNK         0.0600 
    200 H200       -0.2459  -23.6565  -47.9469 H         1 UNK         0.3000 
    201 H201       -0.3106  -25.4539  -50.1373 H         1 UNK         0.0600 
    202 H202        1.7335  -24.2475  -49.4080 H         1 UNK         0.0600 
    203 H203        1.0196  -22.7063  -49.8740 H         1 UNK         0.0600 
    204 H204        1.4052  -23.9040  -51.1017 H         1 UNK         0.0600 
    205 H205       -1.6371  -22.1632  -49.7790 H         1 UNK         0.3000 
    206 H206       -2.6568  -21.8975  -52.4447 H         1 UNK         0.0600 
    207 H207       -2.1923  -19.9424  -50.9720 H         1 UNK         0.0600 
    208 H208       -3.8890  -19.9509  -51.4008 H         1 UNK         0.0600 
    209 H209       -3.3944  -20.4985  -49.8151 H         1 UNK         0.0600 
    210 H210       -3.7272  -23.8621  -49.8743 H         1 UNK         0.3000 
    211 H211       -5.5413  -24.9769  -49.2939 H         1 UNK         0.0600 
    212 H212       -6.4188  -24.6650  -52.2189 H         1 UNK         0.0600 
    213 H213       -7.0156  -25.8601  -51.0776 H         1 UNK         0.0600 
    214 H214       -5.3404  -25.9136  -51.6035 H         1 UNK         0.0600 
    215 H215       -5.5928  -22.4351  -48.4486 H         1 UNK         0.3000 
    216 H216       -6.7647  -20.7229  -47.6943 H         1 UNK         0.0600 
    217 H217       -8.2221  -22.4997  -46.6966 H         1 UNK         0.0600 
    218 H218       -9.2818  -22.4234  -48.1037 H         1 UNK         0.0600 
    219 H219       -9.1192  -21.0309  -47.0438 H         1 UNK         0.0600 
    220 H220       -6.0464  -20.7013  -50.3609 H         1 UNK         0.3000 
    221 H221       -6.0504  -19.4268  -52.1435 H         1 UNK         0.0600 
    222 H222       -8.4407  -17.8530  -51.0754 H         1 UNK         0.0600 
    223 H223       -6.7551  -17.5203  -50.6748 H         1 UNK         0.0600 
    224 H224       -7.3169  -17.3557  -52.3291 H         1 UNK         0.0600 
    225 H225       -7.9848  -21.8707  -51.7785 H         1 UNK         0.3000 
    226 H226       -9.8175  -21.5472  -54.0136 H         1 UNK         0.0600 
    227 H227      -10.2362  -23.1584  -52.1332 H         1 UNK         0.0600 
    228 H228      -10.2364  -23.9430  -53.7061 H         1 UNK         0.0600 
    229 H229       -8.8429  -24.1083  -52.6499 H         1 UNK         0.0600 
    230 H230       -6.5008  -22.7430  -53.5556 H         1 UNK         0.3000 
    231 H231       -6.2284  -23.3925  -56.4636 H         1 UNK         0.0600 
    232 H232       -4.3935  -24.0350  -54.0899 H         1 UNK         0.0600 
    233 H233       -5.4995  -25.1625  -54.8679 H         1 UNK         0.0600 
    234 H234       -4.1347  -24.5124  -55.7624 H         1 UNK         0.0600 
    235 H235       -4.9689  -21.4215  -53.7999 H         1 UNK         0.3000 
    236 H236       -3.8083  -19.5407  -53.6188 H         1 UNK         0.0600 
    237 H237       -5.7478  -18.6733  -54.9362 H         1 UNK         0.0600 
    238 H238       -4.2929  -17.7323  -55.2113 H         1 UNK         0.0600 
    239 H239       -4.8287  -18.8864  -56.4251 H         1 UNK         0.0600 
    240 H240       -2.4430  -21.8844  -55.0745 H         1 UNK         0.3000 
    241 H241       -0.5432  -22.4674  -56.0135 H         1 UNK         0.0600 
    242 H242       -1.8262  -20.8090  -59.1883 H         1 UNK         0.3800 
    243 H243       -2.6899  -21.1804  -57.7158 H         1 UNK         0.3800 
    244 H244        0.5566  -19.7475  -55.1347 H         1 UNK         0.0800 
    245 H245        1.5280  -20.9801  -55.8851 H         1 UNK         0.0800 
    246 H246       -0.6428  -20.0069  -52.9083 H         1 UNK         0.0800 
    247 H247       -0.0929  -21.0561  -51.6316 H         1 UNK         0.0800 
@<TRIPOS>BOND
     1    1    2 1    
     2    1  127 1    
     3    1  128 1    
     4    1  129 1    
     5    2    3 2    
     6    2    4 am   BACKBONE|DICT|INTERRES
     7    4    5 1    
     8    4  130 1    
     9    5    6 1    
    10    5   65 1    
    11    5  131 1    
    12    6    7 1    
    13    6  132 1    
    14    6  133 1    
    15    7    8 1    
    16    8    9 1    
    17    8  134 1    
    18    8  135 1    
    19    9   10 ar   
    20    9   14 ar   
    21   10   11 ar   
    22   10  136 1    
    23   11   12 ar   
    24   11  126 1    
    25   12   13 ar   
    26   12  137 1    
    27   13   14 ar   
    28   13   15 1    
    29   14  138 1    
    30   15   16 1    
    31   15  139 1    
    32   15  140 1    
    33   16   17 1    
    34   17   18 1    
    35   17  141 1    
    36   17  142 1    
    37   18   19 1    
    38   18   67 1    
    39   18  143 1    
    40   19   20 am   BACKBONE|DICT|INTERRES
    41   19  144 1    
    42   20   21 2    
    43   20   22 1    
    44   22   23 1    
    45   22   24 1    
    46   22  145 1    
    47   23  146 1    
    48   23  147 1    
    49   23  148 1    
    50   24   25 am   BACKBONE|DICT|INTERRES
    51   24  149 1    
    52   25   26 2    
    53   25   27 1    
    54   27   28 1    
    55   27   29 1    
    56   27  150 1    
    57   28  151 1    
    58   28  152 1    
    59   28  153 1    
    60   29   30 am   BACKBONE|DICT|INTERRES
    61   29  154 1    
    62   30   31 2    
    63   30   32 1    
    64   32   33 1    
    65   32   34 1    
    66   32  155 1    
    67   33  156 1    
    68   33  157 1    
    69   33  158 1    
    70   34   35 am   BACKBONE|DICT|INTERRES
    71   34  159 1    
    72   35   36 2    
    73   35   37 1    
    74   37   38 1    
    75   37   39 1    
    76   37  160 1    
    77   38  161 1    
    78   38  162 1    
    79   38  163 1    
    80   39   40 am   BACKBONE|DICT|INTERRES
    81   39  164 1    
    82   40   41 2    
    83   40   42 1    
    84   42   43 1    
    85   42   44 1    
    86   42  165 1    
    87   43  166 1    
    88   43  167 1    
    89   43  168 1    
    90   44   45 am   BACKBONE|DICT|INTERRES
    91   44  169 1    
    92   45   46 2    
    93   45   47 1    
    94   47   48 1    
    95   47   49 1    
    96   47  170 1    
    97   48  171 1    
    98   48  172 1    
    99   48  173 1    
   100   49   50 am   BACKBONE|DICT|INTERRES
   101   49  174 1    
   102   50   51 2    
   103   50   52 1    
   104   52   53 1    
   105   52   54 1    
   106   52  175 1    
   107   53  176 1    
   108   53  177 1    
   109   53  178 1    
   110   54   55 am   BACKBONE|DICT|INTERRES
   111   54  179 1    
   112   55   56 2    
   113   55   57 1    
   114   57   58 1    
   115   57   59 1    
   116   57  180 1    
   117   58  181 1    
   118   58  182 1    
   119   58  183 1    
   120   59   60 am   BACKBONE|DICT|INTERRES
   121   59  184 1    
   122   60   61 2    
   123   60   62 1    
   124   62   63 1    
   125   62   64 1    
   126   62  185 1    
   127   63  186 1    
   128   63  187 1    
   129   63  188 1    
   130   64   65 am   BACKBONE|DICT|INTERRES
   131   64  189 1    
   132   65   66 2    
   133   67   68 2    
   134   67   69 am   BACKBONE|DICT|INTERRES
   135   69   70 1    
   136   69  190 1    
   137   70   71 1    
   138   70   72 1    
   139   70  191 1    
   140   71  192 1    
   141   71  193 1    
   142   71  194 1    
   143   72   73 2    
   144   72   74 am   BACKBONE|DICT|INTERRES
   145   74   75 1    
   146   74  195 1    
   147   75   76 1    
   148   75   77 1    
   149   75  196 1    
   150   76  197 1    
   151   76  198 1    
   152   76  199 1    
   153   77   78 2    
   154   77   79 am   BACKBONE|DICT|INTERRES
   155   79   80 1    
   156   79  200 1    
   157   80   81 1    
   158   80   82 1    
   159   80  201 1    
   160   81  202 1    
   161   81  203 1    
   162   81  204 1    
   163   82   83 2    
   164   82   84 am   BACKBONE|DICT|INTERRES
   165   84   85 1    
   166   84  205 1    
   167   85   86 1    
   168   85   87 1    
   169   85  206 1    
   170   86  207 1    
   171   86  208 1    
   172   86  209 1    
   173   87   88 2    
   174   87   89 am   BACKBONE|DICT|INTERRES
   175   89   90 1    
   176   89  210 1    
   177   90   91 1    
   178   90   92 1    
   179   90  211 1    
   180   91  212 1    
   181   91  213 1    
   182   91  214 1    
   183   92   93 2    
   184   92   94 am   BACKBONE|DICT|INTERRES
   185   94   95 1    
   186   94  215 1    
   187   95   96 1    
   188   95   97 1    
   189   95  216 1    
   190   96  217 1    
   191   96  218 1    
   192   96  219 1    
   193   97   98 2    
   194   97   99 am   BACKBONE|DICT|INTERRES
   195   99  100 1    
   196   99  220 1    
   197  100  101 1    
   198  100  102 1    
   199  100  221 1    
   200  101  222 1    
   201  101  223 1    
   202  101  224 1    
   203  102  103 2    
   204  102  104 am   BACKBONE|DICT|INTERRES
   205  104  105 1    
   206  104  225 1    
   207  105  106 1    
   208  105  107 1    
   209  105  226 1    
   210  106  227 1    
   211  106  228 1    
   212  106  229 1    
   213  107  108 2    
   214  107  109 am   BACKBONE|DICT|INTERRES
   215  109  110 1    
   216  109  230 1    
   217  110  111 1    
   218  110  112 1    
   219  110  231 1    
   220  111  232 1    
   221  111  233 1    
   222  111  234 1    
   223  112  113 2    
   224  112  114 am   BACKBONE|DICT|INTERRES
   225  114  115 1    
   226  114  235 1    
   227  115  116 1    
   228  115  117 1    
   229  115  236 1    
   230  116  237 1    
   231  116  238 1    
   232  116  239 1    
   233  117  118 2    
   234  117  119 am   BACKBONE|DICT|INTERRES
   235  119  120 1    
   236  119  240 1    
   237  120  121 1    
   238  120  124 1    
   239  120  241 1    
   240  121  122 am   BACKBONE|DICT|INTERRES
   241  121  123 2    
   242  122  242 1    
   243  122  243 1    
   244  124  125 1    
   245  124  244 1    
   246  124  245 1    
   247  125  126 1    
   248  126  246 1    
   249  126  247 1    
@<TRIPOS>SUBSTRUCTURE
     1 UNK         1 GROUP             0       ****    0 ROOT    
