@<TRIPOS>MOLECULE
3R540
247   249    1
SMALL
USER_CHARGES


@<TRIPOS>ATOM
      1 CA         -0.6371  -15.5597  -48.4092 C.3       0 UNK        -0.1800 
      2 C          -0.6233  -14.2819  -49.2351 C.2       0 UNK         0.5000 
      3 O          -1.5378  -13.4676  -49.1133 O.2       0 UNK        -0.5000 
      4 N           0.4131  -14.0977  -50.0652 N.am      1 UNK        -0.5000 
      5 CA          0.6206  -12.9016  -50.8940 C.3       1 UNK         0.1400 
      6 C6          1.6999  -13.1142  -51.9886 C.3       23 UNK        -0.0398 
      7 S7          3.3405  -13.6330  -51.3574 S.3       23 UNK        -0.2404 
      8 C8          3.5348  -15.2971  -52.0711 C.3       23 UNK        -0.0205 
      9 C9          2.5732  -16.2999  -51.4533 C.ar      23 UNK        -0.0193 
     10 C10         1.4377  -16.7126  -52.1564 C.ar      23 UNK        -0.1150 
     11 C11         0.5449  -17.6249  -51.5885 C.ar      23 UNK        -0.0193 
     12 C12         0.8001  -18.1348  -50.3134 C.ar      23 UNK        -0.1150 
     13 C13         1.9357  -17.7352  -49.6045 C.ar      23 UNK        -0.0193 
     14 C14         2.8192  -16.8163  -50.1774 C.ar      23 UNK        -0.1150 
     15 C15         2.1812  -18.2752  -48.2078 C.3       23 UNK        -0.0205 
     16 S16         3.2043  -19.7776  -48.2413 S.3       23 UNK        -0.2404 
     17 C17         2.7959  -20.4698  -46.6008 C.3       23 UNK        -0.0398 
     18 CA          1.9378  -21.7638  -46.6120 C.3       11 UNK         0.1400 
     19 N           1.6091  -22.1647  -45.2419 N.am      11 UNK        -0.5000 
     20 C           1.0662  -23.3313  -44.8681 C.2       10 UNK         0.5000 
     21 O           0.6264  -24.1667  -45.6566 O.2       10 UNK        -0.5000 
     22 CA          1.0036  -23.6065  -43.3565 C.3       10 UNK         0.1400 
     23 CB          2.4122  -23.7944  -42.7700 C.3       10 UNK        -0.1800 
     24 N           0.3377  -22.5014  -42.6742 N.am      10 UNK        -0.5000 
     25 C          -0.8304  -22.5926  -42.0258 C.2       9 UNK         0.5000 
     26 O          -1.3820  -23.6624  -41.7663 O.2       9 UNK        -0.5000 
     27 CA         -1.5253  -21.2787  -41.6027 C.3       9 UNK         0.1400 
     28 CB         -1.4787  -21.1173  -40.0750 C.3       9 UNK        -0.1800 
     29 N          -0.9932  -20.0621  -42.2253 N.am      9 UNK        -0.5000 
     30 C          -0.9376  -19.8050  -43.5400 C.2       8 UNK         0.5000 
     31 O          -1.3698  -20.5639  -44.4079 O.2       8 UNK        -0.5000 
     32 CA         -0.1790  -18.5343  -43.9664 C.3       8 UNK         0.1400 
     33 CB         -1.1233  -17.3263  -44.0211 C.3       8 UNK        -0.1800 
     34 N           0.9644  -18.2242  -43.1047 N.am      8 UNK        -0.5000 
     35 C           2.0137  -19.0283  -42.8759 C.2       7 UNK         0.5000 
     36 O           2.1379  -20.1488  -43.3720 O.2       7 UNK        -0.5000 
     37 CA          3.0742  -18.5121  -41.8930 C.3       7 UNK         0.1400 
     38 CB          3.9705  -17.4512  -42.5508 C.3       7 UNK        -0.1800 
     39 N           2.4432  -17.9574  -40.6971 N.am      7 UNK        -0.5000 
     40 C           2.0200  -18.6933  -39.6598 C.2       6 UNK         0.5000 
     41 O           2.1910  -19.9091  -39.5704 O.2       6 UNK        -0.5000 
     42 CA          1.2712  -17.9540  -38.5332 C.3       6 UNK         0.1400 
     43 CB          2.2486  -17.5352  -37.4247 C.3       6 UNK        -0.1800 
     44 N           0.5400  -16.7725  -38.9948 N.am      6 UNK        -0.5000 
     45 C          -0.5374  -16.8056  -39.7912 C.2       5 UNK         0.5000 
     46 O          -1.0380  -17.8427  -40.2240 O.2       5 UNK        -0.5000 
     47 CA         -1.1142  -15.4433  -40.2235 C.3       5 UNK         0.1400 
     48 CB         -2.0788  -14.9028  -39.1575 C.3       5 UNK        -0.1800 
     49 N          -0.0922  -14.4306  -40.5155 N.am      5 UNK        -0.5000 
     50 C           0.8829  -14.5745  -41.4221 C.2       4 UNK         0.5000 
     51 O           1.0690  -15.6128  -42.0612 O.2       4 UNK        -0.5000 
     52 CA          1.8436  -13.3876  -41.6121 C.3       4 UNK         0.1400 
     53 CB          2.9556  -13.4331  -40.5526 C.3       4 UNK        -0.1800 
     54 N           2.4569  -13.4370  -42.9389 N.am      4 UNK        -0.5000 
     55 C           1.8100  -13.1658  -44.0781 C.2       3 UNK         0.5000 
     56 O           0.6819  -12.6680  -44.1300 O.2       3 UNK        -0.5000 
     57 CA          2.5301  -13.5815  -45.3713 C.3       3 UNK         0.1400 
     58 CB          2.1988  -15.0423  -45.7193 C.3       3 UNK        -0.1800 
     59 N           2.1461  -12.7393  -46.5005 N.am      3 UNK        -0.5000 
     60 C           2.6074  -11.5020  -46.7290 C.2       2 UNK         0.5000 
     61 O           3.4162  -10.9340  -45.9930 O.2       2 UNK        -0.5000 
     62 CA          2.1115  -10.8100  -48.0148 C.3       2 UNK         0.1400 
     63 CB          3.1524   -9.8374  -48.6055 C.3       2 UNK        -0.1800 
     64 N           1.7398  -11.8146  -49.0105 N.am      2 UNK        -0.5000 
     65 C           0.9030  -11.6449  -50.0399 C.2       1 UNK         0.5000 
     66 O           0.3460  -10.5792  -50.3078 O.2       1 UNK        -0.5000 
     67 C           0.6984  -21.6772  -47.5308 C.2       11 UNK         0.5000 
     68 O           0.6911  -22.2945  -48.5966 O.2       11 UNK        -0.5000 
     69 N          -0.3287  -20.9294  -47.1050 N.am      12 UNK        -0.5000 
     70 CA         -1.5717  -20.7709  -47.8613 C.3       12 UNK         0.1400 
     71 CB         -2.2563  -19.4493  -47.4816 C.3       12 UNK        -0.1800 
     72 C          -2.5131  -21.9630  -47.6400 C.2       12 UNK         0.5000 
     73 O          -3.2279  -22.3484  -48.5660 O.2       12 UNK        -0.5000 
     74 N          -2.4804  -22.5482  -46.4338 N.am      13 UNK        -0.5000 
     75 CA         -3.2433  -23.7385  -46.0490 C.3       13 UNK         0.1400 
     76 CB         -2.9952  -24.0484  -44.5699 C.3       13 UNK        -0.1800 
     77 C          -2.9355  -24.9711  -46.9199 C.2       13 UNK         0.5000 
     78 O          -3.8556  -25.7178  -47.2529 O.2       13 UNK        -0.5000 
     79 N          -1.6695  -25.1217  -47.3366 N.am      14 UNK        -0.5000 
     80 CA         -1.2109  -26.1377  -48.2897 C.3       14 UNK         0.1400 
     81 CB          0.3222  -26.0941  -48.3716 C.3       14 UNK        -0.1800 
     82 C          -1.8284  -25.9993  -49.6982 C.2       14 UNK         0.5000 
     83 O          -1.8929  -26.9894  -50.4271 O.2       14 UNK        -0.5000 
     84 N          -2.2972  -24.7924  -50.0415 N.am      15 UNK        -0.5000 
     85 CA         -3.0301  -24.4729  -51.2659 C.3       15 UNK         0.1400 
     86 CB         -2.4243  -23.2019  -51.8863 C.3       15 UNK        -0.1800 
     87 C          -4.5414  -24.3192  -50.9898 C.2       15 UNK         0.5000 
     88 O          -5.2224  -23.6047  -51.7267 O.2       15 UNK        -0.5000 
     89 N          -5.0359  -24.9705  -49.9243 N.am      16 UNK        -0.5000 
     90 CA         -6.4273  -25.0018  -49.4591 C.3       16 UNK         0.1400 
     91 CB         -7.3222  -25.7534  -50.4660 C.3       16 UNK        -0.1800 
     92 C          -6.9666  -23.6075  -49.0780 C.2       16 UNK         0.5000 
     93 O          -8.0957  -23.2614  -49.4265 O.2       16 UNK        -0.5000 
     94 N          -6.1273  -22.8376  -48.3702 N.am      17 UNK        -0.5000 
     95 CA         -6.3167  -21.4365  -47.9782 C.3       17 UNK         0.1400 
     96 CB         -7.5614  -21.2500  -47.0847 C.3       17 UNK        -0.1800 
     97 C          -6.2800  -20.5021  -49.2036 C.2       17 UNK         0.5000 
     98 O          -7.1177  -19.6076  -49.3306 O.2       17 UNK        -0.5000 
     99 N          -5.2911  -20.7474  -50.0776 N.am      18 UNK        -0.5000 
    100 CA        -5.0188  -20.0562  -51.3408 C.3       18 UNK         0.1400 
    101 CB        -4.5027  -18.6275  -51.0723 C.3       18 UNK        -0.1800 
    102 C         -6.2156  -20.1005  -52.3147 C.2       18 UNK         0.5000 
    103 O         -6.6815  -19.0588  -52.7824 O.2       18 UNK        -0.5000 
    104 N         -6.7021  -21.3162  -52.5957 N.am      19 UNK        -0.5000 
    105 CA        -7.8696  -21.6006  -53.4328 C.3       19 UNK         0.1400 
    106 CB        -8.3819  -23.0127  -53.1019 C.3       19 UNK        -0.1800 
    107 C         -7.5812  -21.4233  -54.9388 C.2       19 UNK         0.5000 
    108 O         -7.5875  -22.3995  -55.6914 O.2       19 UNK        -0.5000 
    109 N         -7.3117  -20.1755  -55.3453 N.am      20 UNK        -0.5000 
    110 CA        -7.0657  -19.6604  -56.7015 C.3       20 UNK         0.1400 
    111 CB        -8.2743  -19.9091  -57.6234 C.3       20 UNK        -0.1800 
    112 C         -5.7597  -20.1464  -57.3611 C.2       20 UNK         0.5000 
    113 O         -5.0612  -19.3400  -57.9767 O.2       20 UNK        -0.5000 
    114 N         -5.4238  -21.4319  -57.1942 N.am      21 UNK        -0.5000 
    115 CA        -4.2267  -22.0966  -57.7222 C.3       21 UNK         0.1400 
    116 CB        -4.3053  -23.5928  -57.3825 C.3       21 UNK        -0.1800 
    117 C         -2.8988  -21.4993  -57.2132 C.2       21 UNK         0.5000 
    118 O         -1.8740  -21.6306  -57.8834 O.2       21 UNK        -0.5000 
    119 N         -2.9525  -20.8392  -56.0507 N.am      22 UNK        -0.5000 
    120 CA        -1.8615  -20.0484  -55.4658 C.3       22 UNK         0.1400 
    121 C         -1.6011  -18.6857  -56.1823 C.2       22 UNK         0.5000 
    122 N         -2.4676  -18.2167  -57.0742 N.am      22 UNK        -0.7600 
    123 O         -0.5847  -18.0429  -55.9382 O.2       22 UNK        -0.5000 
    124 C124       -2.0936  -19.8720  -53.9428 C.3       23 UNK        -0.0398 
    125 S125       -0.5522  -19.7419  -52.9803 S.3       23 UNK        -0.2404 
    126 C126       -0.7041  -18.0472  -52.3419 C.3       23 UNK        -0.0205 
    127 H127        0.3746  -15.8988  -48.1937 H         1 UNK         0.0600 
    128 H128       -1.1655  -16.3485  -48.9442 H         1 UNK         0.0600 
    129 H129       -1.1420  -15.3947  -47.4572 H         1 UNK         0.0600 
    130 H130        1.1203  -14.8153  -50.1516 H         1 UNK         0.3000 
    131 H131       -0.3207  -12.7123  -51.4148 H         1 UNK         0.0600 
    132 H132        1.3409  -13.8515  -52.7065 H         1 UNK         0.0800 
    133 H133        1.8339  -12.1989  -52.5678 H         1 UNK         0.0800 
    134 H134        3.4054  -15.2479  -53.1535 H         1 UNK         0.0800 
    135 H135        4.5591  -15.6335  -51.9040 H         1 UNK         0.0800 
    136 H136        1.2442  -16.3198  -53.1449 H         1 UNK         0.1150 
    137 H137        0.1122  -18.8430  -49.8734 H         1 UNK         0.1150 
    138 H138        3.6963  -16.5000  -49.6298 H         1 UNK         0.1150 
    139 H139        2.6735  -17.5232  -47.5909 H         1 UNK         0.0800 
    140 H140        1.2225  -18.4849  -47.7309 H         1 UNK         0.0800 
    141 H141        2.3033  -19.6999  -46.0066 H         1 UNK         0.0800 
    142 H142        3.7374  -20.6688  -46.0870 H         1 UNK         0.0800 
    143 H143        2.5657  -22.5574  -47.0230 H         1 UNK         0.0600 
    144 H144        1.9110  -21.5177  -44.5165 H         1 UNK         0.3000 
    145 H145        0.4532  -24.5393  -43.2179 H         1 UNK         0.0600 
    146 H146        2.3620  -24.0657  -41.7154 H         1 UNK         0.0600 
    147 H147        2.9476  -24.5921  -43.2863 H         1 UNK         0.0600 
    148 H148        3.0125  -22.8872  -42.8504 H         1 UNK         0.0600 
    149 H149        0.7293  -21.5800  -42.8280 H         1 UNK         0.3000 
    150 H150       -2.5708  -21.3659  -41.9043 H         1 UNK         0.0600 
    151 H151       -1.8600  -22.0063  -39.5710 H         1 UNK         0.0600 
    152 H152       -2.0916  -20.2774  -39.7484 H         1 UNK         0.0600 
    153 H153       -0.4609  -20.9494  -39.7212 H         1 UNK         0.0600 
    154 H154       -0.6611  -19.3473  -41.5865 H         1 UNK         0.3000 
    155 H155        0.2093  -18.7031  -44.9722 H         1 UNK         0.0600 
    156 H156       -1.5452  -17.1049  -43.0408 H         1 UNK         0.0600 
    157 H157       -0.6039  -16.4338  -44.3708 H         1 UNK         0.0600 
    158 H158       -1.9539  -17.5089  -44.7041 H         1 UNK         0.0600 
    159 H159        0.9569  -17.3053  -42.6650 H         1 UNK         0.3000 
    160 H160        3.7080  -19.3554  -41.6101 H         1 UNK         0.0600 
    161 H161        3.4106  -16.5614  -42.8358 H         1 UNK         0.0600 
    162 H162        4.4428  -17.8444  -43.4519 H         1 UNK         0.0600 
    163 H163        4.7675  -17.1397  -41.8756 H         1 UNK         0.0600 
    164 H164        2.2001  -16.9767  -40.7285 H         1 UNK         0.3000 
    165 H165        0.5485  -18.6529  -38.1063 H         1 UNK         0.0600 
    166 H166        1.7219  -17.0830  -36.5841 H         1 UNK         0.0600 
    167 H167        2.7941  -18.3974  -37.0386 H         1 UNK         0.0600 
    168 H168        2.9846  -16.8164  -37.7872 H         1 UNK         0.0600 
    169 H169        0.8895  -15.8739  -38.6963 H         1 UNK         0.3000 
    170 H170       -1.6826  -15.6063  -41.1410 H         1 UNK         0.0600 
    171 H171       -1.5627  -14.6771  -38.2235 H         1 UNK         0.0600 
    172 H172       -2.5727  -13.9923  -39.4973 H         1 UNK         0.0600 
    173 H173       -2.8605  -15.6300  -38.9335 H         1 UNK         0.0600 
    174 H174       -0.1713  -13.5565  -40.0159 H         1 UNK         0.3000 
    175 H175        1.2856  -12.4546  -41.5088 H         1 UNK         0.0600 
    176 H176        3.6477  -12.5993  -40.6722 H         1 UNK         0.0600 
    177 H177        3.5318  -14.3579  -40.6110 H         1 UNK         0.0600 
    178 H178        2.5422  -13.3672  -39.5455 H         1 UNK         0.0600 
    179 H179        3.3649  -13.8741  -42.9892 H         1 UNK         0.3000 
    180 H180        3.6084  -13.4952  -45.2199 H         1 UNK         0.0600 
    181 H181        1.1286  -15.1876  -45.8703 H         1 UNK         0.0600 
    182 H182        2.5075  -15.7184  -44.9216 H         1 UNK         0.0600 
    183 H183        2.7141  -15.3536  -46.6275 H         1 UNK         0.0600 
    184 H184        1.4069  -13.0914  -47.0888 H         1 UNK         0.3000 
    185 H185        1.2201  -10.2432  -47.7390 H         1 UNK         0.0600 
    186 H186        3.4191   -9.0607  -47.8878 H         1 UNK         0.0600 
    187 H187        4.0688  -10.3578  -48.8862 H         1 UNK         0.0600 
    188 H188        2.7693   -9.3336  -49.4928 H         1 UNK         0.0600 
    189 H189        2.1827  -12.7167  -48.9045 H         1 UNK         0.3000 
    190 H190       -0.3213  -20.5578  -46.1639 H         1 UNK         0.3000 
    191 H191       -1.3395  -20.7272  -48.9279 H         1 UNK         0.0600 
    192 H192       -1.5926  -18.6000  -47.6440 H         1 UNK         0.0600 
    193 H193       -3.1472  -19.2867  -48.0891 H         1 UNK         0.0600 
    194 H194       -2.5711  -19.4353  -46.4385 H         1 UNK         0.0600 
    195 H195       -1.9037  -22.1240  -45.7163 H         1 UNK         0.3000 
    196 H196       -4.3021  -23.5031  -46.1695 H         1 UNK         0.0600 
    197 H197       -3.5978  -24.8956  -44.2401 H         1 UNK         0.0600 
    198 H198       -3.2568  -23.1983  -43.9397 H         1 UNK         0.0600 
    199 H199       -1.9505  -24.2987  -44.3855 H         1 UNK         0.0600 
    200 H200       -0.9573  -24.5009  -46.9664 H         1 UNK         0.3000 
    201 H201       -1.5047  -27.1149  -47.9012 H         1 UNK         0.0600 
    202 H202        0.7745  -26.3060  -47.4028 H         1 UNK         0.0600 
    203 H203        0.6782  -25.1173  -48.7013 H         1 UNK         0.0600 
    204 H204        0.7004  -26.8376  -49.0743 H         1 UNK         0.0600 
    205 H205       -2.2400  -24.0407  -49.3650 H         1 UNK         0.3000 
    206 H206       -2.9244  -25.2810  -51.9919 H         1 UNK         0.0600 
    207 H207       -1.3588  -23.3271  -52.0794 H         1 UNK         0.0600 
    208 H208       -2.8984  -22.9714  -52.8405 H         1 UNK         0.0600 
    209 H209       -2.5432  -22.3362  -51.2344 H         1 UNK         0.0600 
    210 H210       -4.3848  -25.4829  -49.3418 H         1 UNK         0.3000 
    211 H211       -6.4248  -25.5812  -48.5348 H         1 UNK         0.0600 
    212 H212       -7.3852  -25.2330  -51.4205 H         1 UNK         0.0600 
    213 H213       -8.3379  -25.8619  -50.0842 H         1 UNK         0.0600 
    214 H214       -6.9403  -26.7560  -50.6578 H         1 UNK         0.0600 
    215 H215       -5.1930  -23.1956  -48.2194 H         1 UNK         0.3000 
    216 H216       -5.4509  -21.1702  -47.3710 H         1 UNK         0.0600 
    217 H217       -7.5949  -20.2398  -46.6754 H         1 UNK         0.0600 
    218 H218       -7.5490  -21.9411  -46.2420 H         1 UNK         0.0600 
    219 H219       -8.4898  -21.4057  -47.6344 H         1 UNK         0.0600 
    220 H220       -4.6605  -21.5078  -49.8513 H         1 UNK         0.3000 
    221 H221       -4.2145  -20.6109  -51.8224 H         1 UNK         0.0600 
    222 H222       -5.2532  -18.0117  -50.5760 H         1 UNK         0.0600 
    223 H223       -3.6136  -18.6433  -50.4426 H         1 UNK         0.0600 
    224 H224       -4.2340  -18.1247  -52.0016 H         1 UNK         0.0600 
    225 H225       -6.2318  -22.1298  -52.2022 H         1 UNK         0.3000 
    226 H226       -8.6613  -20.8957  -53.1707 H         1 UNK         0.0600 
    227 H227       -8.6556  -23.0953  -52.0507 H         1 UNK         0.0600 
    228 H228       -9.2699  -23.2561  -53.6865 H         1 UNK         0.0600 
    229 H229       -7.6282  -23.7716  -53.3148 H         1 UNK         0.0600 
    230 H230       -7.2468  -19.4797  -54.6066 H         1 UNK         0.3000 
    231 H231       -6.9658  -18.5801  -56.5847 H         1 UNK         0.0600 
    232 H232       -8.4369  -20.9714  -57.8077 H         1 UNK         0.0600 
    233 H233       -8.1280  -19.4308  -58.5927 H         1 UNK         0.0600 
    234 H234       -9.1884  -19.4990  -57.1941 H         1 UNK         0.0600 
    235 H235       -6.0830  -22.0123  -56.6801 H         1 UNK         0.3000 
    236 H236       -4.2388  -21.9868  -58.8083 H         1 UNK         0.0600 
    237 H237       -5.1989  -24.0478  -57.8102 H         1 UNK         0.0600 
    238 H238       -3.4445  -24.1316  -57.7809 H         1 UNK         0.0600 
    239 H239       -4.3280  -23.7585  -56.3045 H         1 UNK         0.0600 
    240 H240       -3.8479  -20.7820  -55.5904 H         1 UNK         0.3000 
    241 H241       -0.9508  -20.6356  -55.5999 H         1 UNK         0.0600 
    242 H242       -3.3111  -18.7240  -57.3210 H         1 UNK         0.3800 
    243 H243       -2.2718  -17.3391  -57.5287 H         1 UNK         0.3800 
    244 H244       -2.7525  -19.0263  -53.7408 H         1 UNK         0.0800 
    245 H245       -2.6103  -20.7447  -53.5465 H         1 UNK         0.0800 
    246 H246       -0.8974  -17.3639  -53.1705 H         1 UNK         0.0800 
    247 H247       -1.5662  -17.9827  -51.6775 H         1 UNK         0.0800 
@<TRIPOS>BOND
     1    1    2 1    
     2    1  127 1    
     3    1  128 1    
     4    1  129 1    
     5    2    3 2    
     6    2    4 am   BACKBONE|DICT|INTERRES
     7    4    5 1    
     8    4  130 1    
     9    5    6 1    
    10    5   65 1    
    11    5  131 1    
    12    6    7 1    
    13    6  132 1    
    14    6  133 1    
    15    7    8 1    
    16    8    9 1    
    17    8  134 1    
    18    8  135 1    
    19    9   10 ar   
    20    9   14 ar   
    21   10   11 ar   
    22   10  136 1    
    23   11   12 ar   
    24   11  126 1    
    25   12   13 ar   
    26   12  137 1    
    27   13   14 ar   
    28   13   15 1    
    29   14  138 1    
    30   15   16 1    
    31   15  139 1    
    32   15  140 1    
    33   16   17 1    
    34   17   18 1    
    35   17  141 1    
    36   17  142 1    
    37   18   19 1    
    38   18   67 1    
    39   18  143 1    
    40   19   20 am   BACKBONE|DICT|INTERRES
    41   19  144 1    
    42   20   21 2    
    43   20   22 1    
    44   22   23 1    
    45   22   24 1    
    46   22  145 1    
    47   23  146 1    
    48   23  147 1    
    49   23  148 1    
    50   24   25 am   BACKBONE|DICT|INTERRES
    51   24  149 1    
    52   25   26 2    
    53   25   27 1    
    54   27   28 1    
    55   27   29 1    
    56   27  150 1    
    57   28  151 1    
    58   28  152 1    
    59   28  153 1    
    60   29   30 am   BACKBONE|DICT|INTERRES
    61   29  154 1    
    62   30   31 2    
    63   30   32 1    
    64   32   33 1    
    65   32   34 1    
    66   32  155 1    
    67   33  156 1    
    68   33  157 1    
    69   33  158 1    
    70   34   35 am   BACKBONE|DICT|INTERRES
    71   34  159 1    
    72   35   36 2    
    73   35   37 1    
    74   37   38 1    
    75   37   39 1    
    76   37  160 1    
    77   38  161 1    
    78   38  162 1    
    79   38  163 1    
    80   39   40 am   BACKBONE|DICT|INTERRES
    81   39  164 1    
    82   40   41 2    
    83   40   42 1    
    84   42   43 1    
    85   42   44 1    
    86   42  165 1    
    87   43  166 1    
    88   43  167 1    
    89   43  168 1    
    90   44   45 am   BACKBONE|DICT|INTERRES
    91   44  169 1    
    92   45   46 2    
    93   45   47 1    
    94   47   48 1    
    95   47   49 1    
    96   47  170 1    
    97   48  171 1    
    98   48  172 1    
    99   48  173 1    
   100   49   50 am   BACKBONE|DICT|INTERRES
   101   49  174 1    
   102   50   51 2    
   103   50   52 1    
   104   52   53 1    
   105   52   54 1    
   106   52  175 1    
   107   53  176 1    
   108   53  177 1    
   109   53  178 1    
   110   54   55 am   BACKBONE|DICT|INTERRES
   111   54  179 1    
   112   55   56 2    
   113   55   57 1    
   114   57   58 1    
   115   57   59 1    
   116   57  180 1    
   117   58  181 1    
   118   58  182 1    
   119   58  183 1    
   120   59   60 am   BACKBONE|DICT|INTERRES
   121   59  184 1    
   122   60   61 2    
   123   60   62 1    
   124   62   63 1    
   125   62   64 1    
   126   62  185 1    
   127   63  186 1    
   128   63  187 1    
   129   63  188 1    
   130   64   65 am   BACKBONE|DICT|INTERRES
   131   64  189 1    
   132   65   66 2    
   133   67   68 2    
   134   67   69 am   BACKBONE|DICT|INTERRES
   135   69   70 1    
   136   69  190 1    
   137   70   71 1    
   138   70   72 1    
   139   70  191 1    
   140   71  192 1    
   141   71  193 1    
   142   71  194 1    
   143   72   73 2    
   144   72   74 am   BACKBONE|DICT|INTERRES
   145   74   75 1    
   146   74  195 1    
   147   75   76 1    
   148   75   77 1    
   149   75  196 1    
   150   76  197 1    
   151   76  198 1    
   152   76  199 1    
   153   77   78 2    
   154   77   79 am   BACKBONE|DICT|INTERRES
   155   79   80 1    
   156   79  200 1    
   157   80   81 1    
   158   80   82 1    
   159   80  201 1    
   160   81  202 1    
   161   81  203 1    
   162   81  204 1    
   163   82   83 2    
   164   82   84 am   BACKBONE|DICT|INTERRES
   165   84   85 1    
   166   84  205 1    
   167   85   86 1    
   168   85   87 1    
   169   85  206 1    
   170   86  207 1    
   171   86  208 1    
   172   86  209 1    
   173   87   88 2    
   174   87   89 am   BACKBONE|DICT|INTERRES
   175   89   90 1    
   176   89  210 1    
   177   90   91 1    
   178   90   92 1    
   179   90  211 1    
   180   91  212 1    
   181   91  213 1    
   182   91  214 1    
   183   92   93 2    
   184   92   94 am   BACKBONE|DICT|INTERRES
   185   94   95 1    
   186   94  215 1    
   187   95   96 1    
   188   95   97 1    
   189   95  216 1    
   190   96  217 1    
   191   96  218 1    
   192   96  219 1    
   193   97   98 2    
   194   97   99 am   BACKBONE|DICT|INTERRES
   195   99  100 1    
   196   99  220 1    
   197  100  101 1    
   198  100  102 1    
   199  100  221 1    
   200  101  222 1    
   201  101  223 1    
   202  101  224 1    
   203  102  103 2    
   204  102  104 am   BACKBONE|DICT|INTERRES
   205  104  105 1    
   206  104  225 1    
   207  105  106 1    
   208  105  107 1    
   209  105  226 1    
   210  106  227 1    
   211  106  228 1    
   212  106  229 1    
   213  107  108 2    
   214  107  109 am   BACKBONE|DICT|INTERRES
   215  109  110 1    
   216  109  230 1    
   217  110  111 1    
   218  110  112 1    
   219  110  231 1    
   220  111  232 1    
   221  111  233 1    
   222  111  234 1    
   223  112  113 2    
   224  112  114 am   BACKBONE|DICT|INTERRES
   225  114  115 1    
   226  114  235 1    
   227  115  116 1    
   228  115  117 1    
   229  115  236 1    
   230  116  237 1    
   231  116  238 1    
   232  116  239 1    
   233  117  118 2    
   234  117  119 am   BACKBONE|DICT|INTERRES
   235  119  120 1    
   236  119  240 1    
   237  120  121 1    
   238  120  124 1    
   239  120  241 1    
   240  121  122 am   BACKBONE|DICT|INTERRES
   241  121  123 2    
   242  122  242 1    
   243  122  243 1    
   244  124  125 1    
   245  124  244 1    
   246  124  245 1    
   247  125  126 1    
   248  126  246 1    
   249  126  247 1    
@<TRIPOS>SUBSTRUCTURE
     1 UNK         1 GROUP             0       ****    0 ROOT    
