@<TRIPOS>MOLECULE
3R540
247   249    1
SMALL
USER_CHARGES


@<TRIPOS>ATOM
      1 CA         -2.9486   -7.8686  -49.5478 C.3       0 UNK        -0.1800 
      2 C          -2.4287   -9.2987  -49.5976 C.2       0 UNK         0.5000 
      3 O          -2.3634   -9.8883  -50.6763 O.2       0 UNK        -0.5000 
      4 N          -2.0680   -9.8570  -48.4356 N.am      1 UNK        -0.5000 
      5 CA         -1.4821  -11.1930  -48.2910 C.3       1 UNK         0.1400 
      6 C6         -1.5439  -11.6631  -46.8151 C.3       23 UNK        -0.0398 
      7 S7         -1.3840  -13.4708  -46.6312 S.3       23 UNK        -0.2404 
      8 C8         -3.1282  -13.9797  -46.7566 C.3       23 UNK        -0.0205 
      9 C9         -3.3225  -15.4924  -46.7795 C.ar      23 UNK        -0.0193 
     10 C10        -2.5882  -16.2943  -47.6576 C.ar      23 UNK        -0.1150 
     11 C11        -2.8475  -17.6621  -47.7598 C.ar      23 UNK        -0.0193 
     12 C12        -3.8575  -18.2283  -46.9780 C.ar      23 UNK        -0.1150 
     13 C13        -4.5648  -17.4572  -46.0466 C.ar      23 UNK        -0.0193 
     14 C14        -4.2908  -16.0873  -45.9639 C.ar      23 UNK        -0.1150 
     15 C15        -5.6508  -18.0321  -45.1308 C.3       23 UNK        -0.0205 
     16 S16        -5.8988  -19.8455  -45.1758 S.3       23 UNK        -0.2404 
     17 C17        -4.5339  -20.4854  -44.1356 C.3       23 UNK        -0.0398 
     18 CA         -3.4502  -21.2478  -44.9444 C.3       11 UNK         0.1400 
     19 N          -2.2526  -21.5345  -44.1597 N.am      11 UNK        -0.5000 
     20 C          -2.0808  -22.4804  -43.2283 C.2       10 UNK         0.5000 
     21 O          -2.9612  -23.2635  -42.8697 O.2       10 UNK        -0.5000 
     22 CA         -0.6796  -22.5603  -42.5933 C.3       10 UNK         0.1400 
     23 CB          0.2803  -23.3534  -43.4914 C.3       10 UNK        -0.1800 
     24 N          -0.1026  -21.2401  -42.3389 N.am      10 UNK        -0.5000 
     25 C          -0.5617  -20.3735  -41.4255 C.2       9 UNK         0.5000 
     26 O          -1.4783  -20.6235  -40.6417 O.2       9 UNK        -0.5000 
     27 CA          0.1058  -18.9874  -41.3940 C.3       9 UNK         0.1400 
     28 CB          1.4329  -19.0405  -40.6218 C.3       9 UNK        -0.1800 
     29 N           0.3375  -18.4448  -42.7332 N.am      9 UNK        -0.5000 
     30 C          -0.6314  -18.0702  -43.5814 C.2       8 UNK         0.5000 
     31 O          -1.8304  -18.1018  -43.3062 O.2       8 UNK        -0.5000 
     32 CA         -0.1874  -17.6005  -44.9788 C.3       8 UNK         0.1400 
     33 CB          0.2769  -16.1394  -44.9397 C.3       8 UNK        -0.1800 
     34 N           0.8716  -18.4324  -45.5495 N.am      8 UNK        -0.5000 
     35 C           0.7258  -19.7208  -45.8856 C.2       7 UNK         0.5000 
     36 O          -0.3362  -20.3320  -45.8062 O.2       7 UNK        -0.5000 
     37 CA          1.9868  -20.4685  -46.3456 C.3       7 UNK         0.1400 
     38 CB          2.2200  -20.2734  -47.8511 C.3       7 UNK        -0.1800 
     39 N           3.1713  -20.0549  -45.5936 N.am      7 UNK        -0.5000 
     40 C           3.3790  -20.3431  -44.3003 C.2       6 UNK         0.5000 
     41 O           2.6058  -21.0131  -43.6155 O.2       6 UNK        -0.5000 
     42 CA          4.6398  -19.7403  -43.6543 C.3       6 UNK         0.1400 
     43 CB          5.8827  -20.5714  -44.0057 C.3       6 UNK        -0.1800 
     44 N           4.8572  -18.3469  -44.0470 N.am      6 UNK        -0.5000 
     45 C           4.0446  -17.3349  -43.7125 C.2       5 UNK         0.5000 
     46 O           3.0495  -17.4669  -43.0022 O.2       5 UNK        -0.5000 
     47 CA          4.3704  -15.9510  -44.3030 C.3       5 UNK         0.1400 
     48 CB          5.3416  -15.1902  -43.3887 C.3       5 UNK        -0.1800 
     49 N           4.9187  -15.9907  -45.6606 N.am      5 UNK        -0.5000 
     50 C           4.3265  -16.5359  -46.7307 C.2       4 UNK         0.5000 
     51 O           3.2537  -17.1397  -46.6812 O.2       4 UNK        -0.5000 
     52 CA          5.0567  -16.3502  -48.0769 C.3       4 UNK         0.1400 
     53 CB          4.5127  -17.2845  -49.1724 C.3       4 UNK        -0.1800 
     54 N           4.9526  -14.9694  -48.5461 N.am      4 UNK        -0.5000 
     55 C           5.5922  -13.9100  -48.0314 C.2       3 UNK         0.5000 
     56 O           6.4377  -13.9980  -47.1390 O.2       3 UNK        -0.5000 
     57 CA          5.2347  -12.5194  -48.5984 C.3       3 UNK         0.1400 
     58 CB          6.4001  -11.9636  -49.4322 C.3       3 UNK        -0.1800 
     59 N           4.0176  -12.4945  -49.4175 N.am      3 UNK        -0.5000 
     60 C           2.7700  -12.6610  -48.9581 C.2       2 UNK         0.5000 
     61 O           2.5007  -12.8856  -47.7760 O.2       2 UNK        -0.5000 
     62 CA          1.6578  -12.6156  -50.0258 C.3       2 UNK         0.1400 
     63 CB          1.6047  -13.9455  -50.7958 C.3       2 UNK        -0.1800 
     64 N           0.3297  -12.3438  -49.4768 N.am      2 UNK        -0.5000 
     65 C          -0.0405  -11.2229  -48.8471 C.2       1 UNK         0.5000 
     66 O           0.6967  -10.2441  -48.6935 O.2       1 UNK        -0.5000 
     67 C          -3.9280  -22.5119  -45.6895 C.2       11 UNK         0.5000 
     68 O          -3.2543  -22.9342  -46.6263 O.2       11 UNK        -0.5000 
     69 N          -5.0406  -23.1181  -45.2524 N.am      12 UNK        -0.5000 
     70 CA         -5.6264  -24.3301  -45.8300 C.3       12 UNK         0.1400 
     71 CB         -7.0117  -24.5545  -45.2064 C.3       12 UNK        -0.1800 
     72 C          -4.7529  -25.5945  -45.6908 C.2       12 UNK         0.5000 
     73 O          -5.0065  -26.5735  -46.3917 O.2       12 UNK        -0.5000 
     74 N          -3.7416  -25.5632  -44.8119 N.am      13 UNK        -0.5000 
     75 CA         -2.7369  -26.6197  -44.6754 C.3       13 UNK         0.1400 
     76 CB         -2.2251  -26.6383  -43.2255 C.3       13 UNK        -0.1800 
     77 C          -1.5754  -26.4925  -45.6883 C.2       13 UNK         0.5000 
     78 O          -0.7032  -27.3623  -45.7036 O.2       13 UNK        -0.5000 
     79 N          -1.5669  -25.4348  -46.5102 N.am      14 UNK        -0.5000 
     80 CA         -0.5809  -25.1721  -47.5564 C.3       14 UNK         0.1400 
     81 CB          0.4993  -24.2249  -46.9995 C.3       14 UNK        -0.1800 
     82 C          -1.2904  -24.5876  -48.7918 C.2       14 UNK         0.5000 
     83 O          -2.5156  -24.6804  -48.8969 O.2       14 UNK        -0.5000 
     84 N          -0.5126  -24.0011  -49.7155 N.am      15 UNK        -0.5000 
     85 CA         -0.9633  -23.1652  -50.8390 C.3       15 UNK         0.1400 
     86 CB         -1.4557  -21.8108  -50.2907 C.3       15 UNK        -0.1800 
     87 C          -1.9918  -23.8437  -51.7722 C.2       15 UNK         0.5000 
     88 O          -2.9355  -23.1962  -52.2314 O.2       15 UNK        -0.5000 
     89 N          -1.8056  -25.1532  -51.9990 N.am      16 UNK        -0.5000 
     90 CA         -2.6973  -26.0534  -52.7427 C.3       16 UNK         0.1400 
     91 CB         -2.7279  -25.6778  -54.2400 C.3       16 UNK        -0.1800 
     92 C          -4.1036  -26.1572  -52.1085 C.2       16 UNK         0.5000 
     93 O          -5.1033  -26.2026  -52.8240 O.2       16 UNK        -0.5000 
     94 N          -4.1409  -26.1712  -50.7682 N.am      17 UNK        -0.5000 
     95 CA         -5.3179  -26.0888  -49.8975 C.3       17 UNK         0.1400 
     96 CB         -6.2912  -27.2649  -50.1237 C.3       17 UNK        -0.1800 
     97 C          -5.9848  -24.7011  -49.9758 C.2       17 UNK         0.5000 
     98 O          -7.2071  -24.6023  -50.0944 O.2       17 UNK        -0.5000 
     99 N          -5.1443  -23.6557  -49.9272 N.am      18 UNK        -0.5000 
    100 CA        -5.4722  -22.2317  -50.0783 C.3       18 UNK         0.1400 
    101 CB        -6.2559  -21.7187  -48.8525 C.3       18 UNK        -0.1800 
    102 C         -6.1587  -21.8866  -51.4205 C.2       18 UNK         0.5000 
    103 O         -6.9637  -20.9552  -51.4790 O.2       18 UNK        -0.5000 
    104 N         -5.8321  -22.6431  -52.4766 N.am      19 UNK        -0.5000 
    105 CA        -6.3399  -22.4400  -53.8333 C.3       19 UNK         0.1400 
    106 CB        -6.4630  -23.7970  -54.5403 C.3       19 UNK        -0.1800 
    107 C         -5.4486  -21.4886  -54.6497 C.2       19 UNK         0.5000 
    108 O         -5.9315  -20.9038  -55.6212 O.2       19 UNK        -0.5000 
    109 N         -4.1736  -21.3462  -54.2583 N.am      20 UNK        -0.5000 
    110 CA        -3.2293  -20.3974  -54.8482 C.3       20 UNK         0.1400 
    111 CB        -1.8183  -20.7050  -54.3245 C.3       20 UNK        -0.1800 
    112 C         -3.6128  -18.9375  -54.5367 C.2       20 UNK         0.5000 
    113 O         -4.2691  -18.6674  -53.5278 O.2       20 UNK        -0.5000 
    114 N         -3.1593  -18.0089  -55.3868 N.am      21 UNK        -0.5000 
    115 CA        -3.4087  -16.5669  -55.2851 C.3       21 UNK         0.1400 
    116 CB        -3.2709  -15.9458  -56.6874 C.3       21 UNK        -0.1800 
    117 C         -2.5114  -15.8717  -54.2343 C.2       21 UNK         0.5000 
    118 O         -1.9042  -14.8389  -54.5234 O.2       21 UNK        -0.5000 
    119 N         -2.4296  -16.4586  -53.0359 N.am      22 UNK        -0.5000 
    120 CA        -1.6617  -15.9562  -51.8868 C.3       22 UNK         0.1400 
    121 C         -2.3650  -14.8334  -51.0704 C.2       22 UNK         0.5000 
    122 N         -3.6425  -14.5476  -51.2898 N.am      22 UNK        -0.7600 
    123 O         -1.7284  -14.1911  -50.2410 O.2       22 UNK        -0.5000 
    124 C124       -1.1517  -17.1136  -50.9886 C.3       23 UNK        -0.0398 
    125 S125       -2.4544  -18.2768  -50.4395 S.3       23 UNK        -0.2404 
    126 C126       -2.0237  -18.5382  -48.6908 C.3       23 UNK        -0.0205 
    127 H127       -2.3171   -7.2188  -50.1537 H         1 UNK         0.0600 
    128 H128       -2.9624   -7.4765  -48.5305 H         1 UNK         0.0600 
    129 H129       -3.9636   -7.8241  -49.9428 H         1 UNK         0.0600 
    130 H130       -2.1137   -9.3049  -47.5914 H         1 UNK         0.3000 
    131 H131       -2.0948  -11.8698  -48.8905 H         1 UNK         0.0600 
    132 H132       -2.4913  -11.3648  -46.3637 H         1 UNK         0.0800 
    133 H133       -0.7689  -11.1793  -46.2177 H         1 UNK         0.0800 
    134 H134       -3.5530  -13.5700  -47.6739 H         1 UNK         0.0800 
    135 H135       -3.6822  -13.5348  -45.9286 H         1 UNK         0.0800 
    136 H136       -1.8216  -15.8488  -48.2727 H         1 UNK         0.1150 
    137 H137       -4.0819  -19.2747  -47.1056 H         1 UNK         0.1150 
    138 H138       -4.8566  -15.4752  -45.2755 H         1 UNK         0.1150 
    139 H139       -5.4514  -17.7291  -44.1018 H         1 UNK         0.0800 
    140 H140       -6.5979  -17.5657  -45.4054 H         1 UNK         0.0800 
    141 H141       -4.9502  -21.1151  -43.3482 H         1 UNK         0.0800 
    142 H142       -4.0691  -19.6453  -43.6182 H         1 UNK         0.0800 
    143 H143       -3.0865  -20.5755  -45.7176 H         1 UNK         0.0600 
    144 H144       -1.4360  -21.0084  -44.4596 H         1 UNK         0.3000 
    145 H145       -0.7743  -23.0869  -41.6415 H         1 UNK         0.0600 
    146 H146        1.2293  -23.5357  -42.9872 H         1 UNK         0.0600 
    147 H147       -0.1328  -24.3223  -43.7688 H         1 UNK         0.0600 
    148 H148        0.4946  -22.8129  -44.4129 H         1 UNK         0.0600 
    149 H149        0.6980  -20.9772  -42.9046 H         1 UNK         0.3000 
    150 H150       -0.5656  -18.3066  -40.8668 H         1 UNK         0.0600 
    151 H151        1.2869  -19.4439  -39.6191 H         1 UNK         0.0600 
    152 H152        1.8637  -18.0451  -40.5119 H         1 UNK         0.0600 
    153 H153        2.1681  -19.6685  -41.1263 H         1 UNK         0.0600 
    154 H154        1.3071  -18.3162  -43.0080 H         1 UNK         0.3000 
    155 H155       -1.0538  -17.6656  -45.6369 H         1 UNK         0.0600 
    156 H156        1.1337  -16.0043  -44.2814 H         1 UNK         0.0600 
    157 H157       -0.5206  -15.4923  -44.5734 H         1 UNK         0.0600 
    158 H158        0.5567  -15.7871  -45.9329 H         1 UNK         0.0600 
    159 H159        1.7710  -17.9890  -45.7109 H         1 UNK         0.3000 
    160 H160        1.8290  -21.5336  -46.1651 H         1 UNK         0.0600 
    161 H161        3.1076  -20.8093  -48.1875 H         1 UNK         0.0600 
    162 H162        2.3419  -19.2216  -48.1097 H         1 UNK         0.0600 
    163 H163        1.3738  -20.6531  -48.4248 H         1 UNK         0.0600 
    164 H164        3.8137  -19.4349  -46.0646 H         1 UNK         0.3000 
    165 H165        4.5048  -19.7703  -42.5709 H         1 UNK         0.0600 
    166 H166        6.7659  -20.1974  -43.4876 H         1 UNK         0.0600 
    167 H167        5.7508  -21.6132  -43.7103 H         1 UNK         0.0600 
    168 H168        6.0901  -20.5573  -45.0764 H         1 UNK         0.0600 
    169 H169        5.6541  -18.1514  -44.6348 H         1 UNK         0.3000 
    170 H170        3.4376  -15.3865  -44.3492 H         1 UNK         0.0600 
    171 H171        4.9488  -15.1196  -42.3734 H         1 UNK         0.0600 
    172 H172        6.3123  -15.6844  -43.3326 H         1 UNK         0.0600 
    173 H173        5.5031  -14.1725  -43.7450 H         1 UNK         0.0600 
    174 H174        5.7602  -15.4490  -45.8243 H         1 UNK         0.3000 
    175 H175        6.1104  -16.5920  -47.9228 H         1 UNK         0.0600 
    176 H176        3.4622  -17.0859  -49.3900 H         1 UNK         0.0600 
    177 H177        5.0735  -17.1720  -50.1004 H         1 UNK         0.0600 
    178 H178        4.5953  -18.3291  -48.8700 H         1 UNK         0.0600 
    179 H179        4.2615  -14.7935  -49.2591 H         1 UNK         0.3000 
    180 H180        5.0797  -11.8563  -47.7447 H         1 UNK         0.0600 
    181 H181        6.5954  -12.5794  -50.3110 H         1 UNK         0.0600 
    182 H182        7.3196  -11.9275  -48.8463 H         1 UNK         0.0600 
    183 H183        6.1946  -10.9480  -49.7711 H         1 UNK         0.0600 
    184 H184        4.1539  -12.3284  -50.4046 H         1 UNK         0.3000 
    185 H185        1.8950  -11.8138  -50.7280 H         1 UNK         0.0600 
    186 H186        2.5724  -14.1951  -51.2324 H         1 UNK         0.0600 
    187 H187        1.3111  -14.7728  -50.1479 H         1 UNK         0.0600 
    188 H188        0.8894  -13.8900  -51.6160 H         1 UNK         0.0600 
    189 H189       -0.3579  -13.0874  -49.5796 H         1 UNK         0.3000 
    190 H190       -5.5252  -22.7242  -44.4596 H         1 UNK         0.3000 
    191 H191       -5.7602  -24.1556  -46.8990 H         1 UNK         0.0600 
    192 H192       -7.6658  -23.7000  -45.3811 H         1 UNK         0.0600 
    193 H193       -7.4998  -25.4284  -45.6401 H         1 UNK         0.0600 
    194 H194       -6.9459  -24.7151  -44.1296 H         1 UNK         0.0600 
    195 H195       -3.6033  -24.7287  -44.2518 H         1 UNK         0.3000 
    196 H196       -3.2090  -27.5862  -44.8634 H         1 UNK         0.0600 
    197 H197       -1.4862  -27.4268  -43.0777 H         1 UNK         0.0600 
    198 H198       -3.0400  -26.8254  -42.5261 H         1 UNK         0.0600 
    199 H199       -1.7593  -25.6957  -42.9446 H         1 UNK         0.0600 
    200 H200       -2.3414  -24.7769  -46.4969 H         1 UNK         0.3000 
    201 H201       -0.1128  -26.1064  -47.8718 H         1 UNK         0.0600 
    202 H202        0.9533  -24.6358  -46.0980 H         1 UNK         0.0600 
    203 H203        0.0776  -23.2496  -46.7517 H         1 UNK         0.0600 
    204 H204        1.3078  -24.0661  -47.7132 H         1 UNK         0.0600 
    205 H205        0.4869  -24.0214  -49.5712 H         1 UNK         0.3000 
    206 H206       -0.0874  -22.9700  -51.4591 H         1 UNK         0.0600 
    207 H207       -0.6541  -21.2845  -49.7734 H         1 UNK         0.0600 
    208 H208       -1.8066  -21.1556  -51.0858 H         1 UNK         0.0600 
    209 H209       -2.2752  -21.9356  -49.5834 H         1 UNK         0.0600 
    210 H210       -1.0054  -25.5907  -51.5642 H         1 UNK         0.3000 
    211 H211       -2.2619  -27.0506  -52.6660 H         1 UNK         0.0600 
    212 H212       -1.7234  -25.6725  -54.6628 H         1 UNK         0.0600 
    213 H213       -3.1626  -24.6924  -54.4061 H         1 UNK         0.0600 
    214 H214       -3.3154  -26.3957  -54.8134 H         1 UNK         0.0600 
    215 H215       -3.2630  -26.0443  -50.2785 H         1 UNK         0.3000 
    216 H216       -4.9324  -26.1788  -48.8841 H         1 UNK         0.0600 
    217 H217       -7.0693  -27.2724  -49.3597 H         1 UNK         0.0600 
    218 H218       -5.7728  -28.2219  -50.0677 H         1 UNK         0.0600 
    219 H219       -6.7886  -27.2063  -51.0919 H         1 UNK         0.0600 
    220 H220       -4.1605  -23.8627  -49.7824 H         1 UNK         0.3000 
    221 H221       -4.5202  -21.7017  -50.0972 H         1 UNK         0.0600 
    222 H222       -7.2375  -22.1862  -48.7734 H         1 UNK         0.0600 
    223 H223       -5.7140  -21.9158  -47.9296 H         1 UNK         0.0600 
    224 H224       -6.4081  -20.6400  -48.9048 H         1 UNK         0.0600 
    225 H225       -5.1184  -23.3511  -52.3551 H         1 UNK         0.3000 
    226 H226       -7.3379  -21.9995  -53.7854 H         1 UNK         0.0600 
    227 H227       -5.4903  -24.2675  -54.6803 H         1 UNK         0.0600 
    228 H228       -7.0900  -24.4836  -53.9711 H         1 UNK         0.0600 
    229 H229       -6.9154  -23.6833  -55.5261 H         1 UNK         0.0600 
    230 H230       -3.8488  -21.8683  -53.4510 H         1 UNK         0.3000 
    231 H231       -3.2390  -20.5387  -55.9309 H         1 UNK         0.0600 
    232 H232       -1.5486  -21.7473  -54.4967 H         1 UNK         0.0600 
    233 H233       -1.7382  -20.5084  -53.2562 H         1 UNK         0.0600 
    234 H234       -1.0714  -20.0881  -54.8252 H         1 UNK         0.0600 
    235 H235       -2.5882  -18.3023  -56.1662 H         1 UNK         0.3000 
    236 H236       -4.4411  -16.4164  -54.9626 H         1 UNK         0.0600 
    237 H237       -3.9484  -16.4206  -57.3974 H         1 UNK         0.0600 
    238 H238       -3.5156  -14.8829  -56.6727 H         1 UNK         0.0600 
    239 H239       -2.2558  -16.0453  -57.0736 H         1 UNK         0.0600 
    240 H240       -2.9833  -17.2942  -52.8721 H         1 UNK         0.3000 
    241 H241       -0.7678  -15.4788  -52.2911 H         1 UNK         0.0600 
    242 H242       -4.1767  -15.0725  -51.9623 H         1 UNK         0.3800 
    243 H243       -4.0808  -13.8100  -50.7632 H         1 UNK         0.3800 
    244 H244       -0.4185  -17.6975  -51.5463 H         1 UNK         0.0800 
    245 H245       -0.6078  -16.7171  -50.1301 H         1 UNK         0.0800 
    246 H246       -0.9604  -18.3622  -48.5224 H         1 UNK         0.0800 
    247 H247       -2.1871  -19.5899  -48.4509 H         1 UNK         0.0800 
@<TRIPOS>BOND
     1    1    2 1    
     2    1  127 1    
     3    1  128 1    
     4    1  129 1    
     5    2    3 2    
     6    2    4 am   BACKBONE|DICT|INTERRES
     7    4    5 1    
     8    4  130 1    
     9    5    6 1    
    10    5   65 1    
    11    5  131 1    
    12    6    7 1    
    13    6  132 1    
    14    6  133 1    
    15    7    8 1    
    16    8    9 1    
    17    8  134 1    
    18    8  135 1    
    19    9   10 ar   
    20    9   14 ar   
    21   10   11 ar   
    22   10  136 1    
    23   11   12 ar   
    24   11  126 1    
    25   12   13 ar   
    26   12  137 1    
    27   13   14 ar   
    28   13   15 1    
    29   14  138 1    
    30   15   16 1    
    31   15  139 1    
    32   15  140 1    
    33   16   17 1    
    34   17   18 1    
    35   17  141 1    
    36   17  142 1    
    37   18   19 1    
    38   18   67 1    
    39   18  143 1    
    40   19   20 am   BACKBONE|DICT|INTERRES
    41   19  144 1    
    42   20   21 2    
    43   20   22 1    
    44   22   23 1    
    45   22   24 1    
    46   22  145 1    
    47   23  146 1    
    48   23  147 1    
    49   23  148 1    
    50   24   25 am   BACKBONE|DICT|INTERRES
    51   24  149 1    
    52   25   26 2    
    53   25   27 1    
    54   27   28 1    
    55   27   29 1    
    56   27  150 1    
    57   28  151 1    
    58   28  152 1    
    59   28  153 1    
    60   29   30 am   BACKBONE|DICT|INTERRES
    61   29  154 1    
    62   30   31 2    
    63   30   32 1    
    64   32   33 1    
    65   32   34 1    
    66   32  155 1    
    67   33  156 1    
    68   33  157 1    
    69   33  158 1    
    70   34   35 am   BACKBONE|DICT|INTERRES
    71   34  159 1    
    72   35   36 2    
    73   35   37 1    
    74   37   38 1    
    75   37   39 1    
    76   37  160 1    
    77   38  161 1    
    78   38  162 1    
    79   38  163 1    
    80   39   40 am   BACKBONE|DICT|INTERRES
    81   39  164 1    
    82   40   41 2    
    83   40   42 1    
    84   42   43 1    
    85   42   44 1    
    86   42  165 1    
    87   43  166 1    
    88   43  167 1    
    89   43  168 1    
    90   44   45 am   BACKBONE|DICT|INTERRES
    91   44  169 1    
    92   45   46 2    
    93   45   47 1    
    94   47   48 1    
    95   47   49 1    
    96   47  170 1    
    97   48  171 1    
    98   48  172 1    
    99   48  173 1    
   100   49   50 am   BACKBONE|DICT|INTERRES
   101   49  174 1    
   102   50   51 2    
   103   50   52 1    
   104   52   53 1    
   105   52   54 1    
   106   52  175 1    
   107   53  176 1    
   108   53  177 1    
   109   53  178 1    
   110   54   55 am   BACKBONE|DICT|INTERRES
   111   54  179 1    
   112   55   56 2    
   113   55   57 1    
   114   57   58 1    
   115   57   59 1    
   116   57  180 1    
   117   58  181 1    
   118   58  182 1    
   119   58  183 1    
   120   59   60 am   BACKBONE|DICT|INTERRES
   121   59  184 1    
   122   60   61 2    
   123   60   62 1    
   124   62   63 1    
   125   62   64 1    
   126   62  185 1    
   127   63  186 1    
   128   63  187 1    
   129   63  188 1    
   130   64   65 am   BACKBONE|DICT|INTERRES
   131   64  189 1    
   132   65   66 2    
   133   67   68 2    
   134   67   69 am   BACKBONE|DICT|INTERRES
   135   69   70 1    
   136   69  190 1    
   137   70   71 1    
   138   70   72 1    
   139   70  191 1    
   140   71  192 1    
   141   71  193 1    
   142   71  194 1    
   143   72   73 2    
   144   72   74 am   BACKBONE|DICT|INTERRES
   145   74   75 1    
   146   74  195 1    
   147   75   76 1    
   148   75   77 1    
   149   75  196 1    
   150   76  197 1    
   151   76  198 1    
   152   76  199 1    
   153   77   78 2    
   154   77   79 am   BACKBONE|DICT|INTERRES
   155   79   80 1    
   156   79  200 1    
   157   80   81 1    
   158   80   82 1    
   159   80  201 1    
   160   81  202 1    
   161   81  203 1    
   162   81  204 1    
   163   82   83 2    
   164   82   84 am   BACKBONE|DICT|INTERRES
   165   84   85 1    
   166   84  205 1    
   167   85   86 1    
   168   85   87 1    
   169   85  206 1    
   170   86  207 1    
   171   86  208 1    
   172   86  209 1    
   173   87   88 2    
   174   87   89 am   BACKBONE|DICT|INTERRES
   175   89   90 1    
   176   89  210 1    
   177   90   91 1    
   178   90   92 1    
   179   90  211 1    
   180   91  212 1    
   181   91  213 1    
   182   91  214 1    
   183   92   93 2    
   184   92   94 am   BACKBONE|DICT|INTERRES
   185   94   95 1    
   186   94  215 1    
   187   95   96 1    
   188   95   97 1    
   189   95  216 1    
   190   96  217 1    
   191   96  218 1    
   192   96  219 1    
   193   97   98 2    
   194   97   99 am   BACKBONE|DICT|INTERRES
   195   99  100 1    
   196   99  220 1    
   197  100  101 1    
   198  100  102 1    
   199  100  221 1    
   200  101  222 1    
   201  101  223 1    
   202  101  224 1    
   203  102  103 2    
   204  102  104 am   BACKBONE|DICT|INTERRES
   205  104  105 1    
   206  104  225 1    
   207  105  106 1    
   208  105  107 1    
   209  105  226 1    
   210  106  227 1    
   211  106  228 1    
   212  106  229 1    
   213  107  108 2    
   214  107  109 am   BACKBONE|DICT|INTERRES
   215  109  110 1    
   216  109  230 1    
   217  110  111 1    
   218  110  112 1    
   219  110  231 1    
   220  111  232 1    
   221  111  233 1    
   222  111  234 1    
   223  112  113 2    
   224  112  114 am   BACKBONE|DICT|INTERRES
   225  114  115 1    
   226  114  235 1    
   227  115  116 1    
   228  115  117 1    
   229  115  236 1    
   230  116  237 1    
   231  116  238 1    
   232  116  239 1    
   233  117  118 2    
   234  117  119 am   BACKBONE|DICT|INTERRES
   235  119  120 1    
   236  119  240 1    
   237  120  121 1    
   238  120  124 1    
   239  120  241 1    
   240  121  122 am   BACKBONE|DICT|INTERRES
   241  121  123 2    
   242  122  242 1    
   243  122  243 1    
   244  124  125 1    
   245  124  244 1    
   246  124  245 1    
   247  125  126 1    
   248  126  246 1    
   249  126  247 1    
@<TRIPOS>SUBSTRUCTURE
     1 UNK         1 GROUP             0       ****    0 ROOT    
