@<TRIPOS>MOLECULE
3R540
247   249    1
SMALL
USER_CHARGES


@<TRIPOS>ATOM
      1 CA          7.9152  -10.0027  -48.7579 C.3       0 UNK        -0.1800 
      2 C           6.7084  -10.8280  -48.3333 C.2       0 UNK         0.5000 
      3 O           6.1766  -10.6186  -47.2426 O.2       0 UNK        -0.5000 
      4 N           6.2816  -11.7688  -49.1849 N.am      1 UNK        -0.5000 
      5 CA          5.0976  -12.6075  -48.9796 C.3       1 UNK         0.1400 
      6 C6          5.1268  -13.8448  -49.9097 C.3       23 UNK        -0.0398 
      7 S7          3.9541  -15.1509  -49.4021 S.3       23 UNK        -0.2404 
      8 C8          3.0145  -15.3702  -50.9461 C.3       23 UNK        -0.0205 
      9 C9          1.8570  -16.3439  -50.7803 C.ar      23 UNK        -0.0193 
     10 C10         0.5392  -15.9079  -50.9480 C.ar      23 UNK        -0.1150 
     11 C11        -0.5281  -16.8014  -50.8138 C.ar      23 UNK        -0.0193 
     12 C12        -0.2690  -18.1397  -50.5004 C.ar      23 UNK        -0.1150 
     13 C13         1.0431  -18.5842  -50.3125 C.ar      23 UNK        -0.0193 
     14 C14         2.1017  -17.6855  -50.4719 C.ar      23 UNK        -0.1150 
     15 C15         1.3225  -20.0251  -49.9154 C.3       23 UNK        -0.0205 
     16 S16         1.6676  -20.1505  -48.1322 S.3       23 UNK        -0.2404 
     17 C17         2.0306  -21.9311  -47.9562 C.3       23 UNK        -0.0398 
     18 CA          0.9498  -22.7348  -47.1936 C.3       11 UNK         0.1400 
     19 N           0.7029  -22.2207  -45.8414 N.am      11 UNK        -0.5000 
     20 C           0.0303  -22.8801  -44.8867 C.2       10 UNK         0.5000 
     21 O          -0.5129  -23.9684  -45.0803 O.2       10 UNK        -0.5000 
     22 CA         -0.0785  -22.2053  -43.5038 C.3       10 UNK         0.1400 
     23 CB         -0.2495  -23.2164  -42.3520 C.3       10 UNK        -0.1800 
     24 N           1.0159  -21.2705  -43.2331 N.am      10 UNK        -0.5000 
     25 C           2.3216  -21.5335  -43.0821 C.2       9 UNK         0.5000 
     26 O           2.8088  -22.6642  -43.0954 O.2       9 UNK        -0.5000 
     27 CA          3.2454  -20.3120  -42.9090 C.3       9 UNK         0.1400 
     28 CB          3.8315  -19.9003  -44.2690 C.3       9 UNK        -0.1800 
     29 N           2.5655  -19.1579  -42.3154 N.am      9 UNK        -0.5000 
     30 C           2.1640  -19.0787  -41.0388 C.2       8 UNK         0.5000 
     31 O           2.3927  -19.9459  -40.1947 O.2       8 UNK        -0.5000 
     32 CA          1.3426  -17.8354  -40.6472 C.3       8 UNK         0.1400 
     33 CB          2.2591  -16.6343  -40.3686 C.3       8 UNK        -0.1800 
     34 N           0.3495  -17.4735  -41.6611 N.am      8 UNK        -0.5000 
     35 C          -0.7273  -18.2132  -41.9659 C.2       7 UNK         0.5000 
     36 O          -1.0230  -19.2613  -41.3921 O.2       7 UNK        -0.5000 
     37 CA         -1.6077  -17.7201  -43.1281 C.3       7 UNK         0.1400 
     38 CB         -2.6020  -16.6539  -42.6449 C.3       7 UNK        -0.1800 
     39 N          -0.8213  -17.1920  -44.2416 N.am      7 UNK        -0.5000 
     40 C          -0.0143  -17.9286  -45.0182 C.2       6 UNK         0.5000 
     41 O           0.1018  -19.1497  -44.9204 O.2       6 UNK        -0.5000 
     42 CA          0.8335  -17.1712  -46.0522 C.3       6 UNK         0.1400 
     43 CB          0.0028  -16.8740  -47.3015 C.3       6 UNK        -0.1800 
     44 N           1.3834  -15.9222  -45.5336 N.am      6 UNK        -0.5000 
     45 C           2.2496  -15.8277  -44.5174 C.2       5 UNK         0.5000 
     46 O           2.7143  -16.7968  -43.9196 O.2       5 UNK        -0.5000 
     47 CA          2.6119  -14.4062  -44.0579 C.3       5 UNK         0.1400 
     48 CB          3.7140  -13.8057  -44.9447 C.3       5 UNK        -0.1800 
     49 N           1.4418  -13.5268  -44.0534 N.am      5 UNK        -0.5000 
     50 C           0.4178  -13.6391  -43.1952 C.2       4 UNK         0.5000 
     51 O           0.3734  -14.4725  -42.2898 O.2       4 UNK        -0.5000 
     52 CA         -0.7709  -12.6840  -43.4119 C.3       4 UNK         0.1400 
     53 CB         -0.4802  -11.3065  -42.7977 C.3       4 UNK        -0.1800 
     54 N          -1.1124  -12.5233  -44.8269 N.am      4 UNK        -0.5000 
     55 C          -1.6290  -13.4952  -45.5924 C.2       3 UNK         0.5000 
     56 O          -1.9070  -14.6166  -45.1704 O.2       3 UNK        -0.5000 
     57 CA         -1.8271  -13.1762  -47.0886 C.3       3 UNK         0.1400 
     58 CB         -3.2065  -12.5449  -47.3269 C.3       3 UNK        -0.1800 
     59 N          -0.7908  -12.3080  -47.6598 N.am      3 UNK        -0.5000 
     60 C           0.5183  -12.5894  -47.6659 C.2       2 UNK         0.5000 
     61 O           0.9995  -13.6003  -47.1466 O.2       2 UNK        -0.5000 
     62 CA          1.4502  -11.5584  -48.3192 C.3       2 UNK         0.1400 
     63 CB          1.4851  -10.2469  -47.5119 C.3       2 UNK        -0.1800 
     64 N           2.7818  -12.1458  -48.3655 N.am      2 UNK        -0.5000 
     65 C           3.8018  -11.7807  -49.1434 C.2       1 UNK         0.5000 
     66 O           3.7484  -10.8600  -49.9633 O.2       1 UNK        -0.5000 
     67 C          -0.3462  -22.8961  -48.0136 C.2       11 UNK         0.5000 
     68 O          -0.4691  -23.8565  -48.7725 O.2       11 UNK        -0.5000 
     69 N          -1.3079  -21.9860  -47.8062 N.am      12 UNK        -0.5000 
     70 CA         -2.6352  -22.0263  -48.4182 C.3       12 UNK         0.1400 
     71 CB         -3.3462  -20.6901  -48.1545 C.3       12 UNK        -0.1800 
     72 C          -3.4800  -23.2193  -47.9340 C.2       12 UNK         0.5000 
     73 O          -4.2162  -23.8057  -48.7299 O.2       12 UNK        -0.5000 
     74 N          -3.3286  -23.5761  -46.6511 N.am      13 UNK        -0.5000 
     75 CA         -3.9554  -24.7469  -46.0416 C.3       13 UNK         0.1400 
     76 CB         -3.9510  -24.6022  -44.5121 C.3       13 UNK        -0.1800 
     77 C          -3.2617  -26.0478  -46.4779 C.2       13 UNK         0.5000 
     78 O          -3.9480  -27.0082  -46.8251 O.2       13 UNK        -0.5000 
     79 N          -1.9201  -26.0433  -46.4976 N.am      14 UNK        -0.5000 
     80 CA         -1.0800  -27.1650  -46.9298 C.3       14 UNK         0.1400 
     81 CB          0.3939  -26.8377  -46.6502 C.3       14 UNK        -0.1800 
     82 C          -1.2777  -27.5445  -48.4103 C.2       14 UNK         0.5000 
     83 O          -1.1996  -28.7260  -48.7485 O.2       14 UNK        -0.5000 
     84 N          -1.5685  -26.5454  -49.2560 N.am      15 UNK        -0.5000 
     85 CA         -1.9440  -26.7132  -50.6617 C.3       15 UNK         0.1400 
     86 CB         -1.9438  -25.3357  -51.3459 C.3       15 UNK        -0.1800 
     87 C          -3.3099  -27.4036  -50.8588 C.2       15 UNK         0.5000 
     88 O          -3.5597  -27.9333  -51.9416 O.2       15 UNK        -0.5000 
     89 N          -4.1675  -27.3690  -49.8250 N.am      16 UNK        -0.5000 
     90 CA         -5.5108  -27.9588  -49.7457 C.3       16 UNK         0.1400 
     91 CB         -5.4327  -29.4979  -49.8130 C.3       16 UNK        -0.1800 
     92 C          -6.5198  -27.3695  -50.7560 C.2       16 UNK         0.5000 
     93 O          -7.5284  -28.0084  -51.0613 O.2       16 UNK        -0.5000 
     94 N          -6.2356  -26.1593  -51.2509 N.am      17 UNK        -0.5000 
     95 CA         -7.0095  -25.4634  -52.2791 C.3       17 UNK         0.1400 
     96 CB         -6.5433  -25.9268  -53.6735 C.3       17 UNK        -0.1800 
     97 C          -6.9228  -23.9356  -52.1147 C.2       17 UNK         0.5000 
     98 O          -7.1290  -23.2091  -53.0878 O.2       17 UNK        -0.5000 
     99 N          -6.5812  -23.4630  -50.9036 N.am      18 UNK        -0.5000 
    100 CA        -6.4374  -22.0494  -50.5214 C.3       18 UNK         0.1400 
    101 CB        -7.8105  -21.3457  -50.5776 C.3       18 UNK        -0.1800 
    102 C         -5.3565  -21.2998  -51.3357 C.2       18 UNK         0.5000 
    103 O         -5.4726  -20.0907  -51.5474 O.2       18 UNK        -0.5000 
    104 N         -4.3588  -22.0474  -51.8370 N.am      19 UNK        -0.5000 
    105 CA        -3.3363  -21.6410  -52.8154 C.3       19 UNK         0.1400 
    106 CB        -2.3654  -20.6130  -52.1954 C.3       19 UNK        -0.1800 
    107 C         -3.9174  -21.1405  -54.1609 C.2       19 UNK         0.5000 
    108 O         -3.2039  -20.4850  -54.9214 O.2       19 UNK        -0.5000 
    109 N         -5.2069  -21.4238  -54.4140 N.am      20 UNK        -0.5000 
    110 CA        -6.0597  -20.8529  -55.4611 C.3       20 UNK         0.1400 
    111 CB        -5.6264  -21.3573  -56.8532 C.3       20 UNK        -0.1800 
    112 C         -6.1656  -19.3109  -55.3812 C.2       20 UNK         0.5000 
    113 O         -6.3685  -18.6595  -56.4081 O.2       20 UNK        -0.5000 
    114 N         -6.0070  -18.7484  -54.1739 N.am      21 UNK        -0.5000 
    115 CA        -5.8872  -17.3161  -53.9351 C.3       21 UNK         0.1400 
    116 CB        -4.4551  -16.8494  -54.2835 C.3       21 UNK        -0.1800 
    117 C         -6.3288  -16.9816  -52.4996 C.2       21 UNK         0.5000 
    118 O         -7.5286  -16.9967  -52.2214 O.2       21 UNK        -0.5000 
    119 N         -5.3666  -16.6361  -51.6354 N.am      22 UNK        -0.5000 
    120 CA        -5.5790  -16.0608  -50.2979 C.3       22 UNK         0.1400 
    121 C         -6.1264  -17.0187  -49.1998 C.2       22 UNK         0.5000 
    122 N         -6.1596  -18.3267  -49.4056 N.am      22 UNK        -0.7600 
    123 O         -6.5431  -16.5591  -48.1399 O.2       22 UNK        -0.5000 
    124 C124       -4.3268  -15.2783  -49.8225 C.3       23 UNK        -0.0398 
    125 S125       -2.8724  -16.3155  -49.4301 S.3       23 UNK        -0.2404 
    126 C126       -1.9582  -16.3189  -51.0031 C.3       23 UNK        -0.0205 
    127 H127        7.6491   -8.9467  -48.8054 H         1 UNK         0.0600 
    128 H128        8.7230  -10.1198  -48.0355 H         1 UNK         0.0600 
    129 H129        8.2886  -10.3035  -49.7371 H         1 UNK         0.0600 
    130 H130        6.7417  -11.8683  -50.0784 H         1 UNK         0.3000 
    131 H131        5.1402  -12.9662  -47.9482 H         1 UNK         0.0600 
    132 H132        6.1204  -14.2950  -49.8904 H         1 UNK         0.0800 
    133 H133        4.9540  -13.5532  -50.9473 H         1 UNK         0.0800 
    134 H134        3.6821  -15.7389  -51.7262 H         1 UNK         0.0800 
    135 H135        2.6488  -14.3981  -51.2812 H         1 UNK         0.0800 
    136 H136        0.3433  -14.8713  -51.1834 H         1 UNK         0.1150 
    137 H137       -1.0936  -18.8251  -50.3702 H         1 UNK         0.1150 
    138 H138        3.1182  -18.0246  -50.3290 H         1 UNK         0.1150 
    139 H139        0.4741  -20.6630  -50.1682 H         1 UNK         0.0800 
    140 H140        2.1764  -20.3999  -50.4816 H         1 UNK         0.0800 
    141 H141        2.9781  -22.0159  -47.4226 H         1 UNK         0.0800 
    142 H142        2.2133  -22.3731  -48.9374 H         1 UNK         0.0800 
    143 H143        1.3522  -23.7412  -47.0663 H         1 UNK         0.0600 
    144 H144        1.0604  -21.2981  -45.6316 H         1 UNK         0.3000 
    145 H145       -0.9830  -21.5967  -43.5404 H         1 UNK         0.0600 
    146 H146       -0.3153  -22.7080  -41.3899 H         1 UNK         0.0600 
    147 H147       -1.1641  -23.7974  -42.4735 H         1 UNK         0.0600 
    148 H148        0.5798  -23.9224  -42.3043 H         1 UNK         0.0600 
    149 H149        0.7509  -20.2940  -43.2863 H         1 UNK         0.3000 
    150 H150        4.0674  -20.6040  -42.2523 H         1 UNK         0.0600 
    151 H151        4.3644  -20.7302  -44.7349 H         1 UNK         0.0600 
    152 H152        4.5396  -19.0786  -44.1605 H         1 UNK         0.0600 
    153 H153        3.0526  -19.5796  -44.9622 H         1 UNK         0.0600 
    154 H154        2.4082  -18.3599  -42.9269 H         1 UNK         0.3000 
    155 H155        0.8075  -18.0696  -39.7245 H         1 UNK         0.0600 
    156 H156        2.8175  -16.3361  -41.2557 H         1 UNK         0.0600 
    157 H157        2.9841  -16.8700  -39.5886 H         1 UNK         0.0600 
    158 H158        1.6854  -15.7714  -40.0300 H         1 UNK         0.0600 
    159 H159        0.4957  -16.5980  -42.1507 H         1 UNK         0.3000 
    160 H160       -2.1797  -18.5740  -43.4971 H         1 UNK         0.0600 
    161 H161       -3.2876  -16.3662  -43.4421 H         1 UNK         0.0600 
    162 H162       -2.0927  -15.7531  -42.3014 H         1 UNK         0.0600 
    163 H163       -3.2051  -17.0278  -41.8166 H         1 UNK         0.0600 
    164 H164       -0.9203  -16.2013  -44.4394 H         1 UNK         0.3000 
    165 H165        1.6724  -17.8086  -46.3353 H         1 UNK         0.0600 
    166 H166        0.6072  -16.3881  -48.0664 H         1 UNK         0.0600 
    167 H167       -0.3981  -17.7935  -47.7278 H         1 UNK         0.0600 
    168 H168       -0.8423  -16.2246  -47.0799 H         1 UNK         0.0600 
    169 H169        1.0948  -15.0694  -46.0067 H         1 UNK         0.3000 
    170 H170        2.9945  -14.4692  -43.0370 H         1 UNK         0.0600 
    171 H171        4.6198  -14.4115  -44.8987 H         1 UNK         0.0600 
    172 H172        3.4117  -13.7549  -45.9899 H         1 UNK         0.0600 
    173 H173        3.9794  -12.7990  -44.6214 H         1 UNK         0.0600 
    174 H174        1.3710  -12.8613  -44.8083 H         1 UNK         0.3000 
    175 H175       -1.6362  -13.1095  -42.8989 H         1 UNK         0.0600 
    176 H176       -1.3467  -10.6497  -42.8757 H         1 UNK         0.0600 
    177 H177       -0.2359  -11.3960  -41.7384 H         1 UNK         0.0600 
    178 H178        0.3603  -10.8137  -43.2882 H         1 UNK         0.0600 
    179 H179       -0.9140  -11.6291  -45.2503 H         1 UNK         0.3000 
    180 H180       -1.7910  -14.1224  -47.6305 H         1 UNK         0.0600 
    181 H181       -3.2926  -11.5706  -46.8445 H         1 UNK         0.0600 
    182 H182       -3.9997  -13.1795  -46.9290 H         1 UNK         0.0600 
    183 H183       -3.4011  -12.4122  -48.3913 H         1 UNK         0.0600 
    184 H184       -1.1107  -11.4547  -48.0947 H         1 UNK         0.3000 
    185 H185        1.1005  -11.3682  -49.3357 H         1 UNK         0.0600 
    186 H186        1.8184  -10.4158  -46.4871 H         1 UNK         0.0600 
    187 H187        2.1604   -9.5208  -47.9649 H         1 UNK         0.0600 
    188 H188        0.5000   -9.7816  -47.4666 H         1 UNK         0.0600 
    189 H189        2.8612  -12.9768  -47.7913 H         1 UNK         0.3000 
    190 H190       -1.1155  -21.2241  -47.1716 H         1 UNK         0.3000 
    191 H191       -2.5089  -22.1462  -49.4939 H         1 UNK         0.0600 
    192 H192       -2.8027  -19.8592  -48.6059 H         1 UNK         0.0600 
    193 H193       -3.4409  -20.4872  -47.0872 H         1 UNK         0.0600 
    194 H194       -4.3499  -20.6827  -48.5768 H         1 UNK         0.0600 
    195 H195       -2.6661  -23.0697  -46.0832 H         1 UNK         0.3000 
    196 H196       -4.9956  -24.7940  -46.3715 H         1 UNK         0.0600 
    197 H197       -4.4515  -25.4490  -44.0410 H         1 UNK         0.0600 
    198 H198       -4.4768  -23.6998  -44.2000 H         1 UNK         0.0600 
    199 H199       -2.9392  -24.5568  -44.1095 H         1 UNK         0.0600 
    200 H200       -1.4313  -25.2259  -46.1411 H         1 UNK         0.3000 
    201 H201       -1.3562  -28.0325  -46.3271 H         1 UNK         0.0600 
    202 H202        0.5540  -26.5925  -45.6001 H         1 UNK         0.0600 
    203 H203        0.7358  -25.9944  -47.2493 H         1 UNK         0.0600 
    204 H204        1.0337  -27.6884  -46.8878 H         1 UNK         0.0600 
    205 H205       -1.5113  -25.5917  -48.9142 H         1 UNK         0.3000 
    206 H206       -1.1887  -27.3372  -51.1434 H         1 UNK         0.0600 
    207 H207       -0.9534  -24.8815  -51.3142 H         1 UNK         0.0600 
    208 H208       -2.2282  -25.4164  -52.3959 H         1 UNK         0.0600 
    209 H209       -2.6408  -24.6482  -50.8665 H         1 UNK         0.0600 
    210 H210       -3.8513  -26.9316  -48.9675 H         1 UNK         0.3000 
    211 H211       -5.8935  -27.6952  -48.7589 H         1 UNK         0.0600 
    212 H212       -5.1250  -29.8454  -50.7996 H         1 UNK         0.0600 
    213 H213       -6.4005  -29.9506  -49.5944 H         1 UNK         0.0600 
    214 H214       -4.7226  -29.8872  -49.0832 H         1 UNK         0.0600 
    215 H215       -5.3792  -25.7173  -50.9499 H         1 UNK         0.3000 
    216 H216       -8.0658  -25.7153  -52.1664 H         1 UNK         0.0600 
    217 H217       -7.1340  -25.4633  -54.4646 H         1 UNK         0.0600 
    218 H218       -6.6476  -27.0060  -53.7871 H         1 UNK         0.0600 
    219 H219       -5.4972  -25.6729  -53.8489 H         1 UNK         0.0600 
    220 H220       -6.4227  -24.1259  -50.1570 H         1 UNK         0.3000 
    221 H221       -6.1071  -22.0404  -49.4830 H         1 UNK         0.0600 
    222 H222       -8.1653  -21.2274  -51.6019 H         1 UNK         0.0600 
    223 H223       -8.5639  -21.9078  -50.0259 H         1 UNK         0.0600 
    224 H224       -7.7690  -20.3516  -50.1361 H         1 UNK         0.0600 
    225 H225       -4.3654  -23.0283  -51.5998 H         1 UNK         0.3000 
    226 H226       -2.7626  -22.5380  -53.0522 H         1 UNK         0.0600 
    227 H227       -1.8854  -21.0071  -51.3026 H         1 UNK         0.0600 
    228 H228       -1.5648  -20.3544  -52.8893 H         1 UNK         0.0600 
    229 H229       -2.8718  -19.6857  -51.9264 H         1 UNK         0.0600 
    230 H230       -5.7079  -22.0022  -53.7465 H         1 UNK         0.3000 
    231 H231       -7.0643  -21.2331  -55.2709 H         1 UNK         0.0600 
    232 H232       -5.5631  -22.4452  -56.8752 H         1 UNK         0.0600 
    233 H233       -4.6547  -20.9580  -57.1448 H         1 UNK         0.0600 
    234 H234       -6.3444  -21.0603  -57.6183 H         1 UNK         0.0600 
    235 H235       -5.8784  -19.3393  -53.3572 H         1 UNK         0.3000 
    236 H236       -6.5822  -16.7868  -54.5904 H         1 UNK         0.0600 
    237 H237       -4.3064  -15.7962  -54.0412 H         1 UNK         0.0600 
    238 H238       -3.6991  -17.4325  -53.7565 H         1 UNK         0.0600 
    239 H239       -4.2597  -16.9578  -55.3504 H         1 UNK         0.0600 
    240 H240       -4.4076  -16.6990  -51.9370 H         1 UNK         0.3000 
    241 H241       -6.3677  -15.3160  -50.4216 H         1 UNK         0.0600 
    242 H242       -6.5253  -18.9182  -48.6794 H         1 UNK         0.3800 
    243 H243       -5.8432  -18.7321  -50.2815 H         1 UNK         0.3800 
    244 H244       -4.0494  -14.5288  -50.5646 H         1 UNK         0.0800 
    245 H245       -4.5731  -14.7104  -48.9243 H         1 UNK         0.0800 
    246 H246       -1.9660  -15.3173  -51.4354 H         1 UNK         0.0800 
    247 H247       -2.4606  -16.9737  -51.7143 H         1 UNK         0.0800 
@<TRIPOS>BOND
     1    1    2 1    
     2    1  127 1    
     3    1  128 1    
     4    1  129 1    
     5    2    3 2    
     6    2    4 am   BACKBONE|DICT|INTERRES
     7    4    5 1    
     8    4  130 1    
     9    5    6 1    
    10    5   65 1    
    11    5  131 1    
    12    6    7 1    
    13    6  132 1    
    14    6  133 1    
    15    7    8 1    
    16    8    9 1    
    17    8  134 1    
    18    8  135 1    
    19    9   10 ar   
    20    9   14 ar   
    21   10   11 ar   
    22   10  136 1    
    23   11   12 ar   
    24   11  126 1    
    25   12   13 ar   
    26   12  137 1    
    27   13   14 ar   
    28   13   15 1    
    29   14  138 1    
    30   15   16 1    
    31   15  139 1    
    32   15  140 1    
    33   16   17 1    
    34   17   18 1    
    35   17  141 1    
    36   17  142 1    
    37   18   19 1    
    38   18   67 1    
    39   18  143 1    
    40   19   20 am   BACKBONE|DICT|INTERRES
    41   19  144 1    
    42   20   21 2    
    43   20   22 1    
    44   22   23 1    
    45   22   24 1    
    46   22  145 1    
    47   23  146 1    
    48   23  147 1    
    49   23  148 1    
    50   24   25 am   BACKBONE|DICT|INTERRES
    51   24  149 1    
    52   25   26 2    
    53   25   27 1    
    54   27   28 1    
    55   27   29 1    
    56   27  150 1    
    57   28  151 1    
    58   28  152 1    
    59   28  153 1    
    60   29   30 am   BACKBONE|DICT|INTERRES
    61   29  154 1    
    62   30   31 2    
    63   30   32 1    
    64   32   33 1    
    65   32   34 1    
    66   32  155 1    
    67   33  156 1    
    68   33  157 1    
    69   33  158 1    
    70   34   35 am   BACKBONE|DICT|INTERRES
    71   34  159 1    
    72   35   36 2    
    73   35   37 1    
    74   37   38 1    
    75   37   39 1    
    76   37  160 1    
    77   38  161 1    
    78   38  162 1    
    79   38  163 1    
    80   39   40 am   BACKBONE|DICT|INTERRES
    81   39  164 1    
    82   40   41 2    
    83   40   42 1    
    84   42   43 1    
    85   42   44 1    
    86   42  165 1    
    87   43  166 1    
    88   43  167 1    
    89   43  168 1    
    90   44   45 am   BACKBONE|DICT|INTERRES
    91   44  169 1    
    92   45   46 2    
    93   45   47 1    
    94   47   48 1    
    95   47   49 1    
    96   47  170 1    
    97   48  171 1    
    98   48  172 1    
    99   48  173 1    
   100   49   50 am   BACKBONE|DICT|INTERRES
   101   49  174 1    
   102   50   51 2    
   103   50   52 1    
   104   52   53 1    
   105   52   54 1    
   106   52  175 1    
   107   53  176 1    
   108   53  177 1    
   109   53  178 1    
   110   54   55 am   BACKBONE|DICT|INTERRES
   111   54  179 1    
   112   55   56 2    
   113   55   57 1    
   114   57   58 1    
   115   57   59 1    
   116   57  180 1    
   117   58  181 1    
   118   58  182 1    
   119   58  183 1    
   120   59   60 am   BACKBONE|DICT|INTERRES
   121   59  184 1    
   122   60   61 2    
   123   60   62 1    
   124   62   63 1    
   125   62   64 1    
   126   62  185 1    
   127   63  186 1    
   128   63  187 1    
   129   63  188 1    
   130   64   65 am   BACKBONE|DICT|INTERRES
   131   64  189 1    
   132   65   66 2    
   133   67   68 2    
   134   67   69 am   BACKBONE|DICT|INTERRES
   135   69   70 1    
   136   69  190 1    
   137   70   71 1    
   138   70   72 1    
   139   70  191 1    
   140   71  192 1    
   141   71  193 1    
   142   71  194 1    
   143   72   73 2    
   144   72   74 am   BACKBONE|DICT|INTERRES
   145   74   75 1    
   146   74  195 1    
   147   75   76 1    
   148   75   77 1    
   149   75  196 1    
   150   76  197 1    
   151   76  198 1    
   152   76  199 1    
   153   77   78 2    
   154   77   79 am   BACKBONE|DICT|INTERRES
   155   79   80 1    
   156   79  200 1    
   157   80   81 1    
   158   80   82 1    
   159   80  201 1    
   160   81  202 1    
   161   81  203 1    
   162   81  204 1    
   163   82   83 2    
   164   82   84 am   BACKBONE|DICT|INTERRES
   165   84   85 1    
   166   84  205 1    
   167   85   86 1    
   168   85   87 1    
   169   85  206 1    
   170   86  207 1    
   171   86  208 1    
   172   86  209 1    
   173   87   88 2    
   174   87   89 am   BACKBONE|DICT|INTERRES
   175   89   90 1    
   176   89  210 1    
   177   90   91 1    
   178   90   92 1    
   179   90  211 1    
   180   91  212 1    
   181   91  213 1    
   182   91  214 1    
   183   92   93 2    
   184   92   94 am   BACKBONE|DICT|INTERRES
   185   94   95 1    
   186   94  215 1    
   187   95   96 1    
   188   95   97 1    
   189   95  216 1    
   190   96  217 1    
   191   96  218 1    
   192   96  219 1    
   193   97   98 2    
   194   97   99 am   BACKBONE|DICT|INTERRES
   195   99  100 1    
   196   99  220 1    
   197  100  101 1    
   198  100  102 1    
   199  100  221 1    
   200  101  222 1    
   201  101  223 1    
   202  101  224 1    
   203  102  103 2    
   204  102  104 am   BACKBONE|DICT|INTERRES
   205  104  105 1    
   206  104  225 1    
   207  105  106 1    
   208  105  107 1    
   209  105  226 1    
   210  106  227 1    
   211  106  228 1    
   212  106  229 1    
   213  107  108 2    
   214  107  109 am   BACKBONE|DICT|INTERRES
   215  109  110 1    
   216  109  230 1    
   217  110  111 1    
   218  110  112 1    
   219  110  231 1    
   220  111  232 1    
   221  111  233 1    
   222  111  234 1    
   223  112  113 2    
   224  112  114 am   BACKBONE|DICT|INTERRES
   225  114  115 1    
   226  114  235 1    
   227  115  116 1    
   228  115  117 1    
   229  115  236 1    
   230  116  237 1    
   231  116  238 1    
   232  116  239 1    
   233  117  118 2    
   234  117  119 am   BACKBONE|DICT|INTERRES
   235  119  120 1    
   236  119  240 1    
   237  120  121 1    
   238  120  124 1    
   239  120  241 1    
   240  121  122 am   BACKBONE|DICT|INTERRES
   241  121  123 2    
   242  122  242 1    
   243  122  243 1    
   244  124  125 1    
   245  124  244 1    
   246  124  245 1    
   247  125  126 1    
   248  126  246 1    
   249  126  247 1    
@<TRIPOS>SUBSTRUCTURE
     1 UNK         1 GROUP             0       ****    0 ROOT    
