@<TRIPOS>MOLECULE
3R540
247   249    1
SMALL
USER_CHARGES


@<TRIPOS>ATOM
      1 CA          3.0111  -15.2235  -48.4031 C.3       0 UNK        -0.1800 
      2 C           2.2326  -13.9575  -48.0770 C.2       0 UNK         0.5000 
      3 O           2.6493  -12.8692  -48.4715 O.2       0 UNK        -0.5000 
      4 N           1.1080  -14.1012  -47.3606 N.am      1 UNK        -0.5000 
      5 CA          0.2015  -13.0199  -46.9345 C.3       1 UNK         0.1400 
      6 C6         -0.5301  -12.3101  -48.1092 C.3       23 UNK        -0.0398 
      7 S7         -1.5144  -13.4703  -49.1185 S.3       23 UNK        -0.2404 
      8 C8         -0.5596  -13.5071  -50.6684 C.3       23 UNK        -0.0205 
      9 C9         -0.6689  -14.8663  -51.3378 C.ar      23 UNK        -0.0193 
     10 C10        -1.4890  -15.0611  -52.4527 C.ar      23 UNK        -0.1150 
     11 C11        -1.5742  -16.3211  -53.0551 C.ar      23 UNK        -0.0193 
     12 C12        -0.8463  -17.3901  -52.5225 C.ar      23 UNK        -0.1150 
     13 C13        -0.0211  -17.2077  -51.4087 C.ar      23 UNK        -0.0193 
     14 C14         0.0692  -15.9375  -50.8330 C.ar      23 UNK        -0.1150 
     15 C15         0.7872  -18.3780  -50.8550 C.3       23 UNK        -0.0205 
     16 S16         0.8523  -18.4321  -49.0313 S.3       23 UNK        -0.2404 
     17 C17        -0.9015  -18.6821  -48.5921 C.3       23 UNK        -0.0398 
     18 CA         -1.1260  -20.0684  -47.9514 C.3       11 UNK         0.1400 
     19 N          -0.4876  -20.1978  -46.6386 N.am      11 UNK        -0.5000 
     20 C          -0.3264  -21.3633  -45.9972 C.2       10 UNK         0.5000 
     21 O          -0.6728  -22.4502  -46.4609 O.2       10 UNK        -0.5000 
     22 CA          0.2712  -21.3013  -44.5801 C.3       10 UNK         0.1400 
     23 CB          1.7901  -21.0817  -44.6345 C.3       10 UNK        -0.1800 
     24 N          -0.3546  -20.2683  -43.7523 N.am      10 UNK        -0.5000 
     25 C          -1.6514  -20.2598  -43.4096 C.2       9 UNK         0.5000 
     26 O          -2.4447  -21.1483  -43.7184 O.2       9 UNK        -0.5000 
     27 CA         -2.1625  -19.0365  -42.6280 C.3       9 UNK         0.1400 
     28 CB         -1.8612  -19.1826  -41.1292 C.3       9 UNK        -0.1800 
     29 N          -1.6124  -17.7732  -43.1190 N.am      9 UNK        -0.5000 
     30 C          -1.7990  -17.2808  -44.3524 C.2       8 UNK         0.5000 
     31 O          -2.4811  -17.8290  -45.2165 O.2       8 UNK        -0.5000 
     32 CA         -1.0389  -15.9880  -44.6982 C.3       8 UNK         0.1400 
     33 CB         -1.6970  -14.7655  -44.0358 C.3       8 UNK        -0.1800 
     34 N           0.3712  -16.0745  -44.3115 N.am      8 UNK        -0.5000 
     35 C           1.2403  -16.9557  -44.8315 C.2       7 UNK         0.5000 
     36 O           0.9686  -17.7057  -45.7665 O.2       7 UNK        -0.5000 
     37 CA          2.6235  -17.0485  -44.1661 C.3       7 UNK         0.1400 
     38 CB          3.6378  -16.1273  -44.8582 C.3       7 UNK        -0.1800 
     39 N           2.5501  -16.7418  -42.7372 N.am      7 UNK        -0.5000 
     40 C           2.0646  -17.6019  -41.8287 C.2       6 UNK         0.5000 
     41 O           1.6732  -18.7357  -42.1072 O.2       6 UNK        -0.5000 
     42 CA          1.9460  -17.0963  -40.3811 C.3       6 UNK         0.1400 
     43 CB          3.2762  -17.2774  -39.6365 C.3       6 UNK        -0.1800 
     44 N           1.5089  -15.6986  -40.3167 N.am      6 UNK        -0.5000 
     45 C           0.2715  -15.3003  -40.6517 C.2       5 UNK         0.5000 
     46 O          -0.5958  -16.0890  -41.0267 O.2       5 UNK        -0.5000 
     47 CA         -0.0627  -13.7939  -40.6356 C.3       5 UNK         0.1400 
     48 CB         -1.4359  -13.5033  -39.9962 C.3       5 UNK        -0.1800 
     49 N           0.9883  -12.9415  -40.0778 N.am      5 UNK        -0.5000 
     50 C           1.3898  -12.8241  -38.8040 C.2       4 UNK         0.5000 
     51 O           0.8598  -13.3996  -37.8527 O.2       4 UNK        -0.5000 
     52 CA          2.6280  -11.9230  -38.5883 C.3       4 UNK         0.1400 
     53 CB          3.3361  -12.1846  -37.2423 C.3       4 UNK        -0.1800 
     54 N           3.5826  -12.0010  -39.7066 N.am      4 UNK        -0.5000 
     55 C           4.1982  -13.1092  -40.1484 C.2       3 UNK         0.5000 
     56 O           4.0622  -14.2153  -39.6275 O.2       3 UNK        -0.5000 
     57 CA          5.0424  -12.9535  -41.4271 C.3       3 UNK         0.1400 
     58 CB          5.6185  -14.2929  -41.9337 C.3       3 UNK        -0.1800 
     59 N           4.3075  -12.2683  -42.4980 N.am      3 UNK        -0.5000 
     60 C           3.1768  -12.6641  -43.1029 C.2       2 UNK         0.5000 
     61 O           2.5533  -13.6879  -42.8030 O.2       2 UNK        -0.5000 
     62 CA          2.6526  -11.7552  -44.2309 C.3       2 UNK         0.1400 
     63 CB          3.7844  -11.0780  -45.0368 C.3       2 UNK        -0.1800 
     64 N           1.8021  -12.5294  -45.1311 N.am      2 UNK        -0.5000 
     65 C           0.8893  -12.0217  -45.9698 C.2       1 UNK         0.5000 
     66 O           0.5987  -10.8245  -46.0059 O.2       1 UNK        -0.5000 
     67 C          -2.6237  -20.4285  -47.9018 C.2       11 UNK         0.5000 
     68 O          -3.0993  -21.1065  -48.8091 O.2       11 UNK        -0.5000 
     69 N          -3.3332  -20.0248  -46.8379 N.am      12 UNK        -0.5000 
     70 CA         -4.7385  -20.3716  -46.6069 C.3       12 UNK         0.1400 
     71 CB         -5.2800  -19.5806  -45.4073 C.3       12 UNK        -0.1800 
     72 C          -4.9654  -21.8832  -46.4114 C.2       12 UNK         0.5000 
     73 O          -5.9701  -22.4094  -46.8900 O.2       12 UNK        -0.5000 
     74 N          -4.0218  -22.5593  -45.7417 N.am      13 UNK        -0.5000 
     75 CA         -4.0001  -24.0139  -45.5949 C.3       13 UNK         0.1400 
     76 CB         -2.9859  -24.4114  -44.5116 C.3       13 UNK        -0.1800 
     77 C          -3.6960  -24.7237  -46.9268 C.2       13 UNK         0.5000 
     78 O          -4.3751  -25.6930  -47.2656 O.2       13 UNK        -0.5000 
     79 N          -2.7047  -24.2144  -47.6729 N.am      14 UNK        -0.5000 
     80 CA         -2.3094  -24.7245  -48.9882 C.3       14 UNK         0.1400 
     81 CB         -1.0034  -24.0515  -49.4292 C.3       14 UNK        -0.1800 
     82 C          -3.3970  -24.5564  -50.0660 C.2       14 UNK         0.5000 
     83 O          -3.5148  -25.4150  -50.9411 O.2       14 UNK        -0.5000 
     84 N          -4.1961  -23.4846  -49.9611 N.am      15 UNK        -0.5000 
     85 CA         -5.3056  -23.1442  -50.8569 C.3       15 UNK         0.1400 
     86 CB         -5.8705  -21.7674  -50.4762 C.3       15 UNK        -0.1800 
     87 C          -6.4298  -24.1972  -50.9254 C.2       15 UNK         0.5000 
     88 O          -7.2288  -24.1585  -51.8625 O.2       15 UNK        -0.5000 
     89 N          -6.4550  -25.1534  -49.9854 N.am      16 UNK        -0.5000 
     90 CA         -7.2950  -26.3533  -49.9995 C.3       16 UNK         0.1400 
     91 CB         -7.3683  -26.9214  -48.5714 C.3       16 UNK        -0.1800 
     92 C          -6.8086  -27.3985  -51.0342 C.2       16 UNK         0.5000 
     93 O          -6.6020  -28.5642  -50.6932 O.2       16 UNK        -0.5000 
     94 N          -6.6351  -26.9478  -52.2841 N.am      17 UNK        -0.5000 
     95 CA         -6.2692  -27.6919  -53.4929 C.3       17 UNK         0.1400 
     96 CB         -7.3618  -28.7255  -53.8392 C.3       17 UNK        -0.1800 
     97 C          -4.8553  -28.3153  -53.4986 C.2       17 UNK         0.5000 
     98 O          -4.5713  -29.1229  -54.3856 O.2       17 UNK        -0.5000 
     99 N          -3.9811  -27.9373  -52.5548 N.am      18 UNK        -0.5000 
    100 CA        -2.5931  -28.4043  -52.5110 C.3       18 UNK         0.1400 
    101 CB        -2.1063  -28.4834  -51.0551 C.3       18 UNK        -0.1800 
    102 C         -1.6773  -27.5048  -53.3585 C.2       18 UNK         0.5000 
    103 O         -0.8596  -28.0202  -54.1220 O.2       18 UNK        -0.5000 
    104 N         -1.8473  -26.1843  -53.2264 N.am      19 UNK        -0.5000 
    105 CA        -1.1274  -25.1354  -53.9463 C.3       19 UNK         0.1400 
    106 CB         0.3523  -25.0770  -53.4982 C.3       19 UNK        -0.1800 
    107 C         -1.8761  -23.8047  -53.7375 C.2       19 UNK         0.5000 
    108 O         -3.0871  -23.8251  -53.5156 O.2       19 UNK        -0.5000 
    109 N         -1.1497  -22.6777  -53.8035 N.am      20 UNK        -0.5000 
    110 CA        -1.5750  -21.3180  -53.4361 C.3       20 UNK         0.1400 
    111 CB        -1.7257  -21.2137  -51.9044 C.3       20 UNK        -0.1800 
    112 C         -2.8190  -20.7905  -54.1866 C.2       20 UNK         0.5000 
    113 O         -3.5732  -19.9867  -53.6370 O.2       20 UNK        -0.5000 
    114 N         -3.0159  -21.2498  -55.4290 N.am      21 UNK        -0.5000 
    115 CA        -4.1635  -20.8869  -56.2608 C.3       21 UNK         0.1400 
    116 CB        -4.3314  -21.9347  -57.3722 C.3       21 UNK        -0.1800 
    117 C         -4.0478  -19.4730  -56.8597 C.2       21 UNK         0.5000 
    118 O         -5.0567  -18.7714  -56.9468 O.2       21 UNK        -0.5000 
    119 N         -2.8262  -19.0918  -57.2622 N.am      22 UNK        -0.5000 
    120 CA        -2.4980  -17.8555  -57.9978 C.3       22 UNK         0.1400 
    121 C         -3.2004  -17.7506  -59.3921 C.2       22 UNK         0.5000 
    122 N         -3.1752  -16.5959  -60.0458 N.am      22 UNK        -0.7600 
    123 O         -3.7230  -18.7255  -59.9293 O.2       22 UNK        -0.5000 
    124 C124       -2.6470  -16.5784  -57.1181 C.3       23 UNK        -0.0398 
    125 S125       -1.3985  -16.5142  -55.7898 S.3       23 UNK        -0.2404 
    126 C126       -2.4317  -16.5255  -54.2945 C.3       23 UNK        -0.0205 
    127 H127        4.0242  -15.1527  -48.0076 H         1 UNK         0.0600 
    128 H128        2.5396  -16.1098  -47.9782 H         1 UNK         0.0600 
    129 H129        3.0764  -15.3578  -49.4827 H         1 UNK         0.0600 
    130 H130        0.8184  -15.0326  -47.0990 H         1 UNK         0.3000 
    131 H131       -0.5714  -13.5033  -46.3404 H         1 UNK         0.0600 
    132 H132       -1.2265  -11.5631  -47.7247 H         1 UNK         0.0800 
    133 H133        0.1755  -11.7631  -48.7360 H         1 UNK         0.0800 
    134 H134       -0.9142  -12.7156  -51.3302 H         1 UNK         0.0800 
    135 H135        0.4926  -13.2971  -50.4727 H         1 UNK         0.0800 
    136 H136       -2.0523  -14.2316  -52.8567 H         1 UNK         0.1150 
    137 H137       -0.9120  -18.3599  -52.9926 H         1 UNK         0.1150 
    138 H138        0.7049  -15.7801  -49.9755 H         1 UNK         0.1150 
    139 H139        0.3934  -19.3270  -51.2185 H         1 UNK         0.0800 
    140 H140        1.8063  -18.3019  -51.2357 H         1 UNK         0.0800 
    141 H141       -1.5138  -18.5667  -49.4883 H         1 UNK         0.0800 
    142 H142       -1.2077  -17.8874  -47.9095 H         1 UNK         0.0800 
    143 H143       -0.6585  -20.8054  -48.6076 H         1 UNK         0.0600 
    144 H144       -0.1397  -19.3422  -46.2167 H         1 UNK         0.3000 
    145 H145        0.0867  -22.2646  -44.1001 H         1 UNK         0.0600 
    146 H146        2.2251  -21.0749  -43.6349 H         1 UNK         0.0600 
    147 H147        2.2776  -21.8793  -45.1964 H         1 UNK         0.0600 
    148 H148        2.0450  -20.1394  -45.1186 H         1 UNK         0.0600 
    149 H149        0.2474  -19.5294  -43.4069 H         1 UNK         0.3000 
    150 H150       -3.2461  -18.9933  -42.7512 H         1 UNK         0.0600 
    151 H151       -2.2786  -20.1100  -40.7350 H         1 UNK         0.0600 
    152 H152       -2.2960  -18.3617  -40.5587 H         1 UNK         0.0600 
    153 H153       -0.7889  -19.1941  -40.9325 H         1 UNK         0.0600 
    154 H154       -1.0765  -17.2278  -42.4488 H         1 UNK         0.3000 
    155 H155       -1.0793  -15.8543  -45.7812 H         1 UNK         0.0600 
    156 H156       -1.0812  -13.8715  -44.1251 H         1 UNK         0.0600 
    157 H157       -1.8887  -14.9258  -42.9758 H         1 UNK         0.0600 
    158 H158       -2.6581  -14.5495  -44.5036 H         1 UNK         0.0600 
    159 H159        0.6695  -15.5205  -43.5224 H         1 UNK         0.3000 
    160 H160        2.9823  -18.0734  -44.2797 H         1 UNK         0.0600 
    161 H161        3.2920  -15.0968  -44.9112 H         1 UNK         0.0600 
    162 H162        3.8212  -16.4637  -45.8783 H         1 UNK         0.0600 
    163 H163        4.5980  -16.1360  -44.3429 H         1 UNK         0.0600 
    164 H164        2.7931  -15.7995  -42.4534 H         1 UNK         0.3000 
    165 H165        1.1954  -17.7066  -39.8741 H         1 UNK         0.0600 
    166 H166        4.0979  -16.7748  -40.1475 H         1 UNK         0.0600 
    167 H167        3.2196  -16.8848  -38.6211 H         1 UNK         0.0600 
    168 H168        3.5379  -18.3336  -39.5645 H         1 UNK         0.0600 
    169 H169        2.2043  -15.0146  -40.0385 H         1 UNK         0.3000 
    170 H170       -0.1320  -13.5046  -41.6848 H         1 UNK         0.0600 
    171 H171       -1.4863  -13.8494  -38.9638 H         1 UNK         0.0600 
    172 H172       -2.2354  -14.0046  -40.5429 H         1 UNK         0.0600 
    173 H173       -1.6589  -12.4364  -40.0060 H         1 UNK         0.0600 
    174 H174        1.5384  -12.4533  -40.7696 H         1 UNK         0.3000 
    175 H175        2.2561  -10.8976  -38.5703 H         1 UNK         0.0600 
    176 H176        4.2016  -11.5336  -37.1194 H         1 UNK         0.0600 
    177 H177        2.6654  -11.9921  -36.4041 H         1 UNK         0.0600 
    178 H178        3.6774  -13.2165  -37.1559 H         1 UNK         0.0600 
    179 H179        3.7417  -11.1385  -40.2088 H         1 UNK         0.3000 
    180 H180        5.8846  -12.3119  -41.1641 H         1 UNK         0.0600 
    181 H181        4.8342  -15.0158  -42.1548 H         1 UNK         0.0600 
    182 H182        6.2718  -14.7430  -41.1855 H         1 UNK         0.0600 
    183 H183        6.2093  -14.1521  -42.8387 H         1 UNK         0.0600 
    184 H184        4.7302  -11.4095  -42.8217 H         1 UNK         0.3000 
    185 H185        2.0455  -10.9832  -43.7540 H         1 UNK         0.0600 
    186 H186        3.3874  -10.4823  -45.8588 H         1 UNK         0.0600 
    187 H187        4.3711  -10.3984  -44.4183 H         1 UNK         0.0600 
    188 H188        4.4649  -11.8150  -45.4654 H         1 UNK         0.0600 
    189 H189        1.9534  -13.5271  -45.1083 H         1 UNK         0.3000 
    190 H190       -2.8949  -19.4176  -46.1498 H         1 UNK         0.3000 
    191 H191       -5.3015  -20.0680  -47.4920 H         1 UNK         0.0600 
    192 H192       -5.1891  -18.5065  -45.5689 H         1 UNK         0.0600 
    193 H193       -6.3363  -19.7965  -45.2424 H         1 UNK         0.0600 
    194 H194       -4.7476  -19.8285  -44.4894 H         1 UNK         0.0600 
    195 H195       -3.2622  -22.0429  -45.3091 H         1 UNK         0.3000 
    196 H196       -4.9891  -24.3369  -45.2633 H         1 UNK         0.0600 
    197 H197       -2.9672  -25.4930  -44.3727 H         1 UNK         0.0600 
    198 H198       -3.2417  -23.9637  -43.5511 H         1 UNK         0.0600 
    199 H199       -1.9744  -24.0951  -44.7666 H         1 UNK         0.0600 
    200 H200       -2.1603  -23.4411  -47.3019 H         1 UNK         0.3000 
    201 H201       -2.1183  -25.7938  -48.8816 H         1 UNK         0.0600 
    202 H202       -0.1960  -24.2572  -48.7264 H         1 UNK         0.0600 
    203 H203       -1.1172  -22.9709  -49.5000 H         1 UNK         0.0600 
    204 H204       -0.6876  -24.4152  -50.4068 H         1 UNK         0.0600 
    205 H205       -3.9632  -22.7872  -49.2604 H         1 UNK         0.3000 
    206 H206       -4.8957  -23.0623  -51.8635 H         1 UNK         0.0600 
    207 H207       -5.1102  -20.9916  -50.5667 H         1 UNK         0.0600 
    208 H208       -6.6936  -21.4850  -51.1337 H         1 UNK         0.0600 
    209 H209       -6.2478  -21.7554  -49.4544 H         1 UNK         0.0600 
    210 H210       -5.7433  -25.1221  -49.2673 H         1 UNK         0.3000 
    211 H211       -8.3061  -26.0620  -50.2909 H         1 UNK         0.0600 
    212 H212       -6.3935  -27.2685  -48.2272 H         1 UNK         0.0600 
    213 H213       -8.0551  -27.7670  -48.5209 H         1 UNK         0.0600 
    214 H214       -7.7249  -26.1714  -47.8651 H         1 UNK         0.0600 
    215 H215       -6.8215  -25.9591  -52.4276 H         1 UNK         0.3000 
    216 H216       -6.2599  -26.9519  -54.2943 H         1 UNK         0.0600 
    217 H217       -8.3487  -28.2634  -53.8644 H         1 UNK         0.0600 
    218 H218       -7.3909  -29.5407  -53.1158 H         1 UNK         0.0600 
    219 H219       -7.1901  -29.1677  -54.8212 H         1 UNK         0.0600 
    220 H220       -4.2465  -27.2267  -51.8832 H         1 UNK         0.3000 
    221 H221       -2.5375  -29.4158  -52.9193 H         1 UNK         0.0600 
    222 H222       -2.0476  -27.5029  -50.5866 H         1 UNK         0.0600 
    223 H223       -2.7678  -29.1048  -50.4513 H         1 UNK         0.0600 
    224 H224       -1.1101  -28.9243  -51.0057 H         1 UNK         0.0600 
    225 H225       -2.5685  -25.8395  -52.5952 H         1 UNK         0.3000 
    226 H226       -1.1674  -25.3631  -55.0130 H         1 UNK         0.0600 
    227 H227        0.8480  -26.0403  -53.6132 H         1 UNK         0.0600 
    228 H228        0.9235  -24.3664  -54.0959 H         1 UNK         0.0600 
    229 H229        0.4451  -24.7834  -52.4527 H         1 UNK         0.0600 
    230 H230       -0.1694  -22.7710  -54.0296 H         1 UNK         0.3000 
    231 H231       -0.7565  -20.6594  -53.7289 H         1 UNK         0.0600 
    232 H232       -1.9445  -20.1930  -51.5893 H         1 UNK         0.0600 
    233 H233       -0.8107  -21.5181  -51.3976 H         1 UNK         0.0600 
    234 H234       -2.5365  -21.8429  -51.5395 H         1 UNK         0.0600 
    235 H235       -2.3648  -21.9224  -55.8057 H         1 UNK         0.3000 
    236 H236       -5.0622  -20.9123  -55.6402 H         1 UNK         0.0600 
    237 H237       -5.1941  -21.7032  -57.9983 H         1 UNK         0.0600 
    238 H238       -3.4570  -21.9778  -58.0227 H         1 UNK         0.0600 
    239 H239       -4.4904  -22.9293  -56.9549 H         1 UNK         0.0600 
    240 H240       -2.0664  -19.7458  -57.1496 H         1 UNK         0.3000 
    241 H241       -1.4422  -17.9545  -58.2524 H         1 UNK         0.0600 
    242 H242       -2.7212  -15.7776  -59.6717 H         1 UNK         0.3800 
    243 H243       -3.6107  -16.5439  -60.9540 H         1 UNK         0.3800 
    244 H244       -2.5006  -15.6708  -57.7031 H         1 UNK         0.0800 
    245 H245       -3.6529  -16.5045  -56.7035 H         1 UNK         0.0800 
    246 H246       -2.9697  -17.4715  -54.2285 H         1 UNK         0.0800 
    247 H247       -3.1873  -15.7416  -54.3659 H         1 UNK         0.0800 
@<TRIPOS>BOND
     1    1    2 1    
     2    1  127 1    
     3    1  128 1    
     4    1  129 1    
     5    2    3 2    
     6    2    4 am   BACKBONE|DICT|INTERRES
     7    4    5 1    
     8    4  130 1    
     9    5    6 1    
    10    5   65 1    
    11    5  131 1    
    12    6    7 1    
    13    6  132 1    
    14    6  133 1    
    15    7    8 1    
    16    8    9 1    
    17    8  134 1    
    18    8  135 1    
    19    9   10 ar   
    20    9   14 ar   
    21   10   11 ar   
    22   10  136 1    
    23   11   12 ar   
    24   11  126 1    
    25   12   13 ar   
    26   12  137 1    
    27   13   14 ar   
    28   13   15 1    
    29   14  138 1    
    30   15   16 1    
    31   15  139 1    
    32   15  140 1    
    33   16   17 1    
    34   17   18 1    
    35   17  141 1    
    36   17  142 1    
    37   18   19 1    
    38   18   67 1    
    39   18  143 1    
    40   19   20 am   BACKBONE|DICT|INTERRES
    41   19  144 1    
    42   20   21 2    
    43   20   22 1    
    44   22   23 1    
    45   22   24 1    
    46   22  145 1    
    47   23  146 1    
    48   23  147 1    
    49   23  148 1    
    50   24   25 am   BACKBONE|DICT|INTERRES
    51   24  149 1    
    52   25   26 2    
    53   25   27 1    
    54   27   28 1    
    55   27   29 1    
    56   27  150 1    
    57   28  151 1    
    58   28  152 1    
    59   28  153 1    
    60   29   30 am   BACKBONE|DICT|INTERRES
    61   29  154 1    
    62   30   31 2    
    63   30   32 1    
    64   32   33 1    
    65   32   34 1    
    66   32  155 1    
    67   33  156 1    
    68   33  157 1    
    69   33  158 1    
    70   34   35 am   BACKBONE|DICT|INTERRES
    71   34  159 1    
    72   35   36 2    
    73   35   37 1    
    74   37   38 1    
    75   37   39 1    
    76   37  160 1    
    77   38  161 1    
    78   38  162 1    
    79   38  163 1    
    80   39   40 am   BACKBONE|DICT|INTERRES
    81   39  164 1    
    82   40   41 2    
    83   40   42 1    
    84   42   43 1    
    85   42   44 1    
    86   42  165 1    
    87   43  166 1    
    88   43  167 1    
    89   43  168 1    
    90   44   45 am   BACKBONE|DICT|INTERRES
    91   44  169 1    
    92   45   46 2    
    93   45   47 1    
    94   47   48 1    
    95   47   49 1    
    96   47  170 1    
    97   48  171 1    
    98   48  172 1    
    99   48  173 1    
   100   49   50 am   BACKBONE|DICT|INTERRES
   101   49  174 1    
   102   50   51 2    
   103   50   52 1    
   104   52   53 1    
   105   52   54 1    
   106   52  175 1    
   107   53  176 1    
   108   53  177 1    
   109   53  178 1    
   110   54   55 am   BACKBONE|DICT|INTERRES
   111   54  179 1    
   112   55   56 2    
   113   55   57 1    
   114   57   58 1    
   115   57   59 1    
   116   57  180 1    
   117   58  181 1    
   118   58  182 1    
   119   58  183 1    
   120   59   60 am   BACKBONE|DICT|INTERRES
   121   59  184 1    
   122   60   61 2    
   123   60   62 1    
   124   62   63 1    
   125   62   64 1    
   126   62  185 1    
   127   63  186 1    
   128   63  187 1    
   129   63  188 1    
   130   64   65 am   BACKBONE|DICT|INTERRES
   131   64  189 1    
   132   65   66 2    
   133   67   68 2    
   134   67   69 am   BACKBONE|DICT|INTERRES
   135   69   70 1    
   136   69  190 1    
   137   70   71 1    
   138   70   72 1    
   139   70  191 1    
   140   71  192 1    
   141   71  193 1    
   142   71  194 1    
   143   72   73 2    
   144   72   74 am   BACKBONE|DICT|INTERRES
   145   74   75 1    
   146   74  195 1    
   147   75   76 1    
   148   75   77 1    
   149   75  196 1    
   150   76  197 1    
   151   76  198 1    
   152   76  199 1    
   153   77   78 2    
   154   77   79 am   BACKBONE|DICT|INTERRES
   155   79   80 1    
   156   79  200 1    
   157   80   81 1    
   158   80   82 1    
   159   80  201 1    
   160   81  202 1    
   161   81  203 1    
   162   81  204 1    
   163   82   83 2    
   164   82   84 am   BACKBONE|DICT|INTERRES
   165   84   85 1    
   166   84  205 1    
   167   85   86 1    
   168   85   87 1    
   169   85  206 1    
   170   86  207 1    
   171   86  208 1    
   172   86  209 1    
   173   87   88 2    
   174   87   89 am   BACKBONE|DICT|INTERRES
   175   89   90 1    
   176   89  210 1    
   177   90   91 1    
   178   90   92 1    
   179   90  211 1    
   180   91  212 1    
   181   91  213 1    
   182   91  214 1    
   183   92   93 2    
   184   92   94 am   BACKBONE|DICT|INTERRES
   185   94   95 1    
   186   94  215 1    
   187   95   96 1    
   188   95   97 1    
   189   95  216 1    
   190   96  217 1    
   191   96  218 1    
   192   96  219 1    
   193   97   98 2    
   194   97   99 am   BACKBONE|DICT|INTERRES
   195   99  100 1    
   196   99  220 1    
   197  100  101 1    
   198  100  102 1    
   199  100  221 1    
   200  101  222 1    
   201  101  223 1    
   202  101  224 1    
   203  102  103 2    
   204  102  104 am   BACKBONE|DICT|INTERRES
   205  104  105 1    
   206  104  225 1    
   207  105  106 1    
   208  105  107 1    
   209  105  226 1    
   210  106  227 1    
   211  106  228 1    
   212  106  229 1    
   213  107  108 2    
   214  107  109 am   BACKBONE|DICT|INTERRES
   215  109  110 1    
   216  109  230 1    
   217  110  111 1    
   218  110  112 1    
   219  110  231 1    
   220  111  232 1    
   221  111  233 1    
   222  111  234 1    
   223  112  113 2    
   224  112  114 am   BACKBONE|DICT|INTERRES
   225  114  115 1    
   226  114  235 1    
   227  115  116 1    
   228  115  117 1    
   229  115  236 1    
   230  116  237 1    
   231  116  238 1    
   232  116  239 1    
   233  117  118 2    
   234  117  119 am   BACKBONE|DICT|INTERRES
   235  119  120 1    
   236  119  240 1    
   237  120  121 1    
   238  120  124 1    
   239  120  241 1    
   240  121  122 am   BACKBONE|DICT|INTERRES
   241  121  123 2    
   242  122  242 1    
   243  122  243 1    
   244  124  125 1    
   245  124  244 1    
   246  124  245 1    
   247  125  126 1    
   248  126  246 1    
   249  126  247 1    
@<TRIPOS>SUBSTRUCTURE
     1 UNK         1 GROUP             0       ****    0 ROOT    
