@<TRIPOS>MOLECULE
3R540
247   249    1
SMALL
USER_CHARGES


@<TRIPOS>ATOM
      1 CA          3.4933  -13.8482  -50.4527 C.3       0 UNK        -0.1800 
      2 C           4.5470  -14.7469  -49.8209 C.2       0 UNK         0.5000 
      3 O           5.7038  -14.7262  -50.2408 O.2       0 UNK        -0.5000 
      4 N           4.1446  -15.5400  -48.8206 N.am      1 UNK        -0.5000 
      5 CA          5.0038  -16.4637  -48.0729 C.3       1 UNK         0.1400 
      6 C6          4.1852  -17.5282  -47.2876 C.3       23 UNK        -0.0398 
      7 S7          3.4826  -18.9584  -48.2045 S.3       23 UNK        -0.2404 
      8 C8          3.3411  -18.5056  -49.9711 C.3       23 UNK        -0.0205 
      9 C9          1.9514  -18.0065  -50.3615 C.ar      23 UNK        -0.0193 
     10 C10         1.2829  -18.5695  -51.4549 C.ar      23 UNK        -0.1150 
     11 C11         0.0134  -18.1214  -51.8400 C.ar      23 UNK        -0.0193 
     12 C12        -0.5687  -17.0625  -51.1320 C.ar      23 UNK        -0.1150 
     13 C13         0.0706  -16.5118  -50.0213 C.ar      23 UNK        -0.0193 
     14 C14         1.3260  -16.9856  -49.6434 C.ar      23 UNK        -0.1150 
     15 C15        -0.6237  -15.4521  -49.1843 C.3       23 UNK        -0.0205 
     16 S16        -1.1293  -16.1252  -47.5709 S.3       23 UNK        -0.2404 
     17 C17        -2.2397  -17.4909  -48.0553 C.3       23 UNK        -0.0398 
     18 CA         -1.5530  -18.8812  -48.0094 C.3       11 UNK         0.1400 
     19 N          -1.1385  -19.2643  -46.6515 N.am      11 UNK        -0.5000 
     20 C          -0.5479  -20.4226  -46.3160 C.2       10 UNK         0.5000 
     21 O          -0.2544  -21.2931  -47.1339 O.2       10 UNK        -0.5000 
     22 CA         -0.2573  -20.7010  -44.8282 C.3       10 UNK         0.1400 
     23 CB          1.2577  -20.7645  -44.5810 C.3       10 UNK        -0.1800 
     24 N          -0.8738  -19.7576  -43.8934 N.am      10 UNK        -0.5000 
     25 C          -2.1876  -19.6607  -43.6436 C.2       9 UNK         0.5000 
     26 O          -3.0395  -20.3547  -44.2007 O.2       9 UNK        -0.5000 
     27 CA         -2.6216  -18.5851  -42.6275 C.3       9 UNK         0.1400 
     28 CB         -2.5563  -19.1253  -41.1912 C.3       9 UNK        -0.1800 
     29 N          -1.8120  -17.3694  -42.7311 N.am      9 UNK        -0.5000 
     30 C          -1.8829  -16.5094  -43.7570 C.2       8 UNK         0.5000 
     31 O          -2.7218  -16.5978  -44.6529 O.2       8 UNK        -0.5000 
     32 CA         -0.8235  -15.3903  -43.8118 C.3       8 UNK         0.1400 
     33 CB         -1.2831  -14.1580  -43.0189 C.3       8 UNK        -0.1800 
     34 N           0.4842  -15.8286  -43.3228 N.am      8 UNK        -0.5000 
     35 C           1.2525  -16.7536  -43.9153 C.2       7 UNK         0.5000 
     36 O           0.9797  -17.2845  -44.9897 O.2       7 UNK        -0.5000 
     37 CA          2.5099  -17.2060  -43.1524 C.3       7 UNK         0.1400 
     38 CB          3.7116  -16.3124  -43.4716 C.3       7 UNK        -0.1800 
     39 N           2.2997  -17.2369  -41.7065 N.am      7 UNK        -0.5000 
     40 C           1.5589  -18.1546  -41.0719 C.2       6 UNK         0.5000 
     41 O           0.9982  -19.0891  -41.6415 O.2       6 UNK        -0.5000 
     42 CA          1.3823  -17.9695  -39.5538 C.3       6 UNK         0.1400 
     43 CB          2.5603  -18.5941  -38.7917 C.3       6 UNK        -0.1800 
     44 N           1.2529  -16.5608  -39.1776 N.am      6 UNK        -0.5000 
     45 C           0.2070  -15.7877  -39.5021 C.2       5 UNK         0.5000 
     46 O          -0.7845  -16.2007  -40.1036 O.2       5 UNK        -0.5000 
     47 CA          0.3144  -14.2937  -39.1388 C.3       5 UNK         0.1400 
     48 CB         -0.1847  -14.0490  -37.7071 C.3       5 UNK        -0.1800 
     49 N           1.6732  -13.7564  -39.2804 N.am      5 UNK        -0.5000 
     50 C           2.3448  -13.6906  -40.4379 C.2       4 UNK         0.5000 
     51 O           1.8958  -14.1090  -41.5057 O.2       4 UNK        -0.5000 
     52 CA          3.7792  -13.1317  -40.3743 C.3       4 UNK         0.1400 
     53 CB          4.7659  -14.2570  -40.0236 C.3       4 UNK        -0.1800 
     54 N           4.2092  -12.5125  -41.6303 N.am      4 UNK        -0.5000 
     55 C           3.6774  -11.4088  -42.1748 C.2       3 UNK         0.5000 
     56 O           2.7615  -10.7691  -41.6548 O.2       3 UNK        -0.5000 
     57 CA          4.2874  -10.9016  -43.5001 C.3       3 UNK         0.1400 
     58 CB          5.0316   -9.5750  -43.2741 C.3       3 UNK        -0.1800 
     59 N           5.2117  -11.8486  -44.1339 N.am      3 UNK        -0.5000 
     60 C           4.8354  -12.8839  -44.8937 C.2       2 UNK         0.5000 
     61 O           3.6570  -13.1590  -45.1380 O.2       2 UNK        -0.5000 
     62 CA          5.9620  -13.7575  -45.4755 C.3       2 UNK         0.1400 
     63 CB          6.7689  -14.4452  -44.3516 C.3       2 UNK        -0.1800 
     64 N           5.3431  -14.7238  -46.3814 N.am      2 UNK        -0.5000 
     65 C           5.9321  -15.6652  -47.1299 C.2       1 UNK         0.5000 
     66 O           7.1422  -15.8931  -47.1307 O.2       1 UNK        -0.5000 
     67 C          -2.4643  -19.9377  -48.6695 C.2       11 UNK         0.5000 
     68 O          -2.2513  -20.2875  -49.8302 O.2       11 UNK        -0.5000 
     69 N          -3.4299  -20.4634  -47.9011 N.am      12 UNK        -0.5000 
     70 CA         -4.3228  -21.5305  -48.3453 C.3       12 UNK         0.1400 
     71 CB         -5.4971  -21.6661  -47.3656 C.3       12 UNK        -0.1800 
     72 C          -3.5870  -22.8709  -48.5025 C.2       12 UNK         0.5000 
     73 O          -3.7837  -23.5539  -49.5069 O.2       12 UNK        -0.5000 
     74 N          -2.7379  -23.2178  -47.5250 N.am      13 UNK        -0.5000 
     75 CA         -1.9456  -24.4513  -47.5021 C.3       13 UNK         0.1400 
     76 CB         -1.2140  -24.5704  -46.1568 C.3       13 UNK        -0.1800 
     77 C          -0.9553  -24.5490  -48.6769 C.2       13 UNK         0.5000 
     78 O          -0.8289  -25.6154  -49.2800 O.2       13 UNK        -0.5000 
     79 N          -0.3301  -23.4160  -49.0232 N.am      14 UNK        -0.5000 
     80 CA          0.5607  -23.2473  -50.1730 C.3       14 UNK         0.1400 
     81 CB          1.1918  -21.8483  -50.1076 C.3       14 UNK        -0.1800 
     82 C          -0.1280  -23.4660  -51.5367 C.2       14 UNK         0.5000 
     83 O           0.5568  -23.7753  -52.5121 O.2       14 UNK        -0.5000 
     84 N          -1.4593  -23.3291  -51.5758 N.am      15 UNK        -0.5000 
     85 CA         -2.3107  -23.5778  -52.7366 C.3       15 UNK         0.1400 
     86 CB         -3.1504  -22.3219  -53.0125 C.3       15 UNK        -0.1800 
     87 C          -3.1847  -24.8318  -52.5423 C.2       15 UNK         0.5000 
     88 O          -4.2616  -24.9091  -53.1320 O.2       15 UNK        -0.5000 
     89 N          -2.7156  -25.7923  -51.7296 N.am      16 UNK        -0.5000 
     90 CA         -3.3174  -27.1087  -51.4821 C.3       16 UNK         0.1400 
     91 CB         -3.2312  -27.9842  -52.7504 C.3       16 UNK        -0.1800 
     92 C          -4.7467  -27.0236  -50.9054 C.2       16 UNK         0.5000 
     93 O          -5.6710  -27.6423  -51.4356 O.2       16 UNK        -0.5000 
     94 N          -4.8852  -26.2380  -49.8288 N.am      17 UNK        -0.5000 
     95 CA         -6.1302  -25.8819  -49.1383 C.3       17 UNK         0.1400 
     96 CB         -6.8585  -27.1240  -48.5815 C.3       17 UNK        -0.1800 
     97 C          -7.0230  -24.9708  -50.0050 C.2       17 UNK         0.5000 
     98 O          -8.2359  -25.1729  -50.0824 O.2       17 UNK        -0.5000 
     99 N          -6.3777  -23.9716  -50.6230 N.am      18 UNK        -0.5000 
    100 CA        -6.9338  -22.9255  -51.4815 C.3       18 UNK         0.1400 
    101 CB        -7.7696  -21.9297  -50.6519 C.3       18 UNK        -0.1800 
    102 C         -7.6944  -23.4860  -52.6996 C.2       18 UNK         0.5000 
    103 O         -8.8747  -23.1828  -52.8932 O.2       18 UNK        -0.5000 
    104 N         -7.0069  -24.3110  -53.4997 N.am      19 UNK        -0.5000 
    105 CA        -7.5206  -24.9472  -54.7128 C.3       19 UNK         0.1400 
    106 CB        -6.6074  -26.1307  -55.0795 C.3       19 UNK        -0.1800 
    107 C         -7.6757  -23.9367  -55.8699 C.2       19 UNK         0.5000 
    108 O         -6.8833  -23.9423  -56.8134 O.2       19 UNK        -0.5000 
    109 N         -8.6959  -23.0756  -55.7526 N.am      20 UNK        -0.5000 
    110 CA        -9.1071  -22.0218  -56.6891 C.3       20 UNK         0.1400 
    111 CB        -9.5171  -22.6191  -58.0521 C.3       20 UNK        -0.1800 
    112 C         -8.0956  -20.8619  -56.8244 C.2       20 UNK         0.5000 
    113 O         -8.1372  -20.1267  -57.8127 O.2       20 UNK        -0.5000 
    114 N         -7.2283  -20.6910  -55.8213 N.am      21 UNK        -0.5000 
    115 CA        -6.2424  -19.6220  -55.7135 C.3       21 UNK         0.1400 
    116 CB        -5.0149  -19.9430  -56.5854 C.3       21 UNK        -0.1800 
    117 C         -5.8364  -19.4850  -54.2418 C.2       21 UNK         0.5000 
    118 O         -5.8857  -20.4749  -53.5100 O.2       21 UNK        -0.5000 
    119 N         -5.4267  -18.2731  -53.8477 N.am      22 UNK        -0.5000 
    120 CA        -4.8412  -17.9350  -52.5340 C.3       22 UNK         0.1400 
    121 C         -5.7782  -18.1294  -51.2995 C.2       22 UNK         0.5000 
    122 N         -7.0869  -18.2600  -51.4764 N.am      22 UNK        -0.7600 
    123 O         -5.3220  -18.1182  -50.1595 O.2       22 UNK        -0.5000 
    124 C124       -3.4449  -18.5832  -52.3251 C.3       23 UNK        -0.0398 
    125 S125       -2.2412  -18.0954  -53.6132 S.3       23 UNK        -0.2404 
    126 C126       -0.6883  -18.8416  -52.9956 C.3       23 UNK        -0.0205 
    127 H127        3.3858  -14.0846  -51.5113 H         1 UNK         0.0600 
    128 H128        3.7879  -12.8027  -50.3627 H         1 UNK         0.0600 
    129 H129        2.5188  -13.9692  -49.9789 H         1 UNK         0.0600 
    130 H130        3.1828  -15.4941  -48.5224 H         1 UNK         0.3000 
    131 H131        5.6530  -16.9876  -48.7774 H         1 UNK         0.0600 
    132 H132        3.3629  -17.0495  -46.7536 H         1 UNK         0.0800 
    133 H133        4.8085  -17.9735  -46.5095 H         1 UNK         0.0800 
    134 H134        4.0929  -17.7794  -50.2713 H         1 UNK         0.0800 
    135 H135        3.5722  -19.4061  -50.5418 H         1 UNK         0.0800 
    136 H136        1.7469  -19.3760  -52.0052 H         1 UNK         0.1150 
    137 H137       -1.5376  -16.6780  -51.4081 H         1 UNK         0.1150 
    138 H138        1.7893  -16.5811  -48.7590 H         1 UNK         0.1150 
    139 H139        0.0535  -14.6121  -49.0252 H         1 UNK         0.0800 
    140 H140       -1.4976  -15.0517  -49.7004 H         1 UNK         0.0800 
    141 H141       -2.6341  -17.2817  -49.0512 H         1 UNK         0.0800 
    142 H142       -3.1027  -17.4741  -47.3875 H         1 UNK         0.0800 
    143 H143       -0.6429  -18.8404  -48.6098 H         1 UNK         0.0600 
    144 H144       -1.2905  -18.5765  -45.9270 H         1 UNK         0.3000 
    145 H145       -0.6683  -21.6878  -44.6067 H         1 UNK         0.0600 
    146 H146        1.4845  -20.9807  -43.5373 H         1 UNK         0.0600 
    147 H147        1.7158  -21.5522  -45.1804 H         1 UNK         0.0600 
    148 H148        1.7478  -19.8304  -44.8517 H         1 UNK         0.0600 
    149 H149       -0.2376  -19.1826  -43.3540 H         1 UNK         0.3000 
    150 H150       -3.6604  -18.3249  -42.8415 H         1 UNK         0.0600 
    151 H151       -3.1896  -20.0059  -41.0776 H         1 UNK         0.0600 
    152 H152       -2.9019  -18.3802  -40.4743 H         1 UNK         0.0600 
    153 H153       -1.5431  -19.4125  -40.9107 H         1 UNK         0.0600 
    154 H154       -1.1473  -17.1902  -41.9879 H         1 UNK         0.3000 
    155 H155       -0.7030  -15.0915  -44.8539 H         1 UNK         0.0600 
    156 H156       -1.4502  -14.3925  -41.9682 H         1 UNK         0.0600 
    157 H157       -0.5449  -13.3572  -43.0705 H         1 UNK         0.0600 
    158 H158       -2.2188  -13.7662  -43.4193 H         1 UNK         0.0600 
    159 H159        0.8382  -15.3714  -42.4875 H         1 UNK         0.3000 
    160 H160        2.7552  -18.2175  -43.4808 H         1 UNK         0.0600 
    161 H161        3.9253  -16.3182  -44.5389 H         1 UNK         0.0600 
    162 H162        4.6046  -16.6679  -42.9580 H         1 UNK         0.0600 
    163 H163        3.5407  -15.2767  -43.1794 H         1 UNK         0.0600 
    164 H164        2.6757  -16.4654  -41.1771 H         1 UNK         0.3000 
    165 H165        0.4682  -18.4892  -39.2583 H         1 UNK         0.0600 
    166 H166        2.4101  -18.5309  -37.7138 H         1 UNK         0.0600 
    167 H167        2.6701  -19.6502  -39.0420 H         1 UNK         0.0600 
    168 H168        3.5034  -18.1004  -39.0294 H         1 UNK         0.0600 
    169 H169        2.0236  -16.1460  -38.6754 H         1 UNK         0.3000 
    170 H170       -0.3336  -13.7421  -39.8230 H         1 UNK         0.0600 
    171 H171        0.4433  -14.5499  -36.9693 H         1 UNK         0.0600 
    172 H172       -0.1983  -12.9849  -37.4705 H         1 UNK         0.0600 
    173 H173       -1.2020  -14.4216  -37.5797 H         1 UNK         0.0600 
    174 H174        2.1084  -13.4070  -38.4386 H         1 UNK         0.3000 
    175 H175        3.8198  -12.3704  -39.5926 H         1 UNK         0.0600 
    176 H176        5.7805  -13.8723  -39.9175 H         1 UNK         0.0600 
    177 H177        4.7816  -15.0335  -40.7894 H         1 UNK         0.0600 
    178 H178        4.5025  -14.7331  -39.0783 H         1 UNK         0.0600 
    179 H179        4.9447  -12.9802  -42.1362 H         1 UNK         0.3000 
    180 H180        3.4569  -10.7088  -44.1827 H         1 UNK         0.0600 
    181 H181        5.8756   -9.6979  -42.5942 H         1 UNK         0.0600 
    182 H182        4.3704   -8.8219  -42.8433 H         1 UNK         0.0600 
    183 H183        5.4113   -9.1707  -44.2126 H         1 UNK         0.0600 
    184 H184        6.1962  -11.6809  -43.9820 H         1 UNK         0.3000 
    185 H185        6.6234  -13.1155  -46.0599 H         1 UNK         0.0600 
    186 H186        6.1530  -15.1197  -43.7616 H         1 UNK         0.0600 
    187 H187        7.6055  -15.0204  -44.7458 H         1 UNK         0.0600 
    188 H188        7.1970  -13.7140  -43.6655 H         1 UNK         0.0600 
    189 H189        4.3420  -14.5845  -46.4556 H         1 UNK         0.3000 
    190 H190       -3.5242  -20.1483  -46.9456 H         1 UNK         0.3000 
    191 H191       -4.7250  -21.2549  -49.3230 H         1 UNK         0.0600 
    192 H192       -6.0807  -20.7462  -47.3246 H         1 UNK         0.0600 
    193 H193       -6.1732  -22.4650  -47.6735 H         1 UNK         0.0600 
    194 H194       -5.1575  -21.8932  -46.3542 H         1 UNK         0.0600 
    195 H195       -2.6018  -22.5780  -46.7570 H         1 UNK         0.3000 
    196 H196       -2.6399  -25.2900  -47.5844 H         1 UNK         0.0600 
    197 H197       -0.6724  -25.5149  -46.0925 H         1 UNK         0.0600 
    198 H198       -1.9135  -24.5399  -45.3213 H         1 UNK         0.0600 
    199 H199       -0.4879  -23.7693  -46.0179 H         1 UNK         0.0600 
    200 H200       -0.4621  -22.5942  -48.4361 H         1 UNK         0.3000 
    201 H201        1.3578  -23.9883  -50.0872 H         1 UNK         0.0600 
    202 H202        1.7559  -21.7100  -49.1849 H         1 UNK         0.0600 
    203 H203        0.4328  -21.0662  -50.1518 H         1 UNK         0.0600 
    204 H204        1.8816  -21.6880  -50.9368 H         1 UNK         0.0600 
    205 H205       -1.9455  -23.0924  -50.7197 H         1 UNK         0.3000 
    206 H206       -1.7030  -23.7689  -53.6228 H         1 UNK         0.0600 
    207 H207       -2.5082  -21.4843  -53.2786 H         1 UNK         0.0600 
    208 H208       -3.8391  -22.4667  -53.8459 H         1 UNK         0.0600 
    209 H209       -3.7379  -22.0365  -52.1397 H         1 UNK         0.0600 
    210 H210       -1.8524  -25.6117  -51.2312 H         1 UNK         0.3000 
    211 H211       -2.7063  -27.5848  -50.7139 H         1 UNK         0.0600 
    212 H212       -3.8438  -27.5870  -53.5606 H         1 UNK         0.0600 
    213 H213       -3.5754  -28.9991  -52.5482 H         1 UNK         0.0600 
    214 H214       -2.2050  -28.0561  -53.1104 H         1 UNK         0.0600 
    215 H215       -4.0760  -25.6994  -49.5466 H         1 UNK         0.3000 
    216 H216       -5.8320  -25.2777  -48.2802 H         1 UNK         0.0600 
    217 H217       -7.6865  -26.8291  -47.9360 H         1 UNK         0.0600 
    218 H218       -6.1866  -27.7412  -47.9853 H         1 UNK         0.0600 
    219 H219       -7.2738  -27.7466  -49.3740 H         1 UNK         0.0600 
    220 H220       -5.3748  -23.9152  -50.4703 H         1 UNK         0.3000 
    221 H221       -6.0755  -22.3843  -51.8747 H         1 UNK         0.0600 
    222 H222       -8.6424  -22.4053  -50.2039 H         1 UNK         0.0600 
    223 H223       -7.1782  -21.4873  -49.8515 H         1 UNK         0.0600 
    224 H224       -8.1256  -21.1100  -51.2770 H         1 UNK         0.0600 
    225 H225       -6.0303  -24.5068  -53.2827 H         1 UNK         0.3000 
    226 H226       -8.5101  -25.3545  -54.4947 H         1 UNK         0.0600 
    227 H227       -6.5411  -26.8461  -54.2592 H         1 UNK         0.0600 
    228 H228       -6.9909  -26.6650  -55.9493 H         1 UNK         0.0600 
    229 H229       -5.5946  -25.8023  -55.3157 H         1 UNK         0.0600 
    230 H230       -9.2137  -23.1090  -54.8792 H         1 UNK         0.3000 
    231 H231      -10.0017  -21.5765  -56.2519 H         1 UNK         0.0600 
    232 H232       -8.6594  -23.0141  -58.5969 H         1 UNK         0.0600 
    233 H233       -9.9848  -21.8648  -58.6858 H         1 UNK         0.0600 
    234 H234      -10.2382  -23.4270  -57.9283 H         1 UNK         0.0600 
    235 H235       -7.2551  -21.3135  -55.0238 H         1 UNK         0.3000 
    236 H236       -6.6927  -18.6828  -56.0415 H         1 UNK         0.0600 
    237 H237       -5.2812  -20.0081  -57.6403 H         1 UNK         0.0600 
    238 H238       -4.2530  -19.1682  -56.4904 H         1 UNK         0.0600 
    239 H239       -4.5576  -20.8904  -56.2965 H         1 UNK         0.0600 
    240 H240       -5.4346  -17.5187  -54.5189 H         1 UNK         0.3000 
    241 H241       -4.6824  -16.8567  -52.5664 H         1 UNK         0.0600 
    242 H242       -7.6855  -18.3639  -50.6732 H         1 UNK         0.3800 
    243 H243       -7.4807  -18.2642  -52.4029 H         1 UNK         0.3800 
    244 H244       -3.0398  -18.3025  -51.3550 H         1 UNK         0.0800 
    245 H245       -3.5327  -19.6670  -52.3019 H         1 UNK         0.0800 
    246 H246        0.0046  -18.9010  -53.8360 H         1 UNK         0.0800 
    247 H247       -0.8879  -19.8690  -52.6888 H         1 UNK         0.0800 
@<TRIPOS>BOND
     1    1    2 1    
     2    1  127 1    
     3    1  128 1    
     4    1  129 1    
     5    2    3 2    
     6    2    4 am   BACKBONE|DICT|INTERRES
     7    4    5 1    
     8    4  130 1    
     9    5    6 1    
    10    5   65 1    
    11    5  131 1    
    12    6    7 1    
    13    6  132 1    
    14    6  133 1    
    15    7    8 1    
    16    8    9 1    
    17    8  134 1    
    18    8  135 1    
    19    9   10 ar   
    20    9   14 ar   
    21   10   11 ar   
    22   10  136 1    
    23   11   12 ar   
    24   11  126 1    
    25   12   13 ar   
    26   12  137 1    
    27   13   14 ar   
    28   13   15 1    
    29   14  138 1    
    30   15   16 1    
    31   15  139 1    
    32   15  140 1    
    33   16   17 1    
    34   17   18 1    
    35   17  141 1    
    36   17  142 1    
    37   18   19 1    
    38   18   67 1    
    39   18  143 1    
    40   19   20 am   BACKBONE|DICT|INTERRES
    41   19  144 1    
    42   20   21 2    
    43   20   22 1    
    44   22   23 1    
    45   22   24 1    
    46   22  145 1    
    47   23  146 1    
    48   23  147 1    
    49   23  148 1    
    50   24   25 am   BACKBONE|DICT|INTERRES
    51   24  149 1    
    52   25   26 2    
    53   25   27 1    
    54   27   28 1    
    55   27   29 1    
    56   27  150 1    
    57   28  151 1    
    58   28  152 1    
    59   28  153 1    
    60   29   30 am   BACKBONE|DICT|INTERRES
    61   29  154 1    
    62   30   31 2    
    63   30   32 1    
    64   32   33 1    
    65   32   34 1    
    66   32  155 1    
    67   33  156 1    
    68   33  157 1    
    69   33  158 1    
    70   34   35 am   BACKBONE|DICT|INTERRES
    71   34  159 1    
    72   35   36 2    
    73   35   37 1    
    74   37   38 1    
    75   37   39 1    
    76   37  160 1    
    77   38  161 1    
    78   38  162 1    
    79   38  163 1    
    80   39   40 am   BACKBONE|DICT|INTERRES
    81   39  164 1    
    82   40   41 2    
    83   40   42 1    
    84   42   43 1    
    85   42   44 1    
    86   42  165 1    
    87   43  166 1    
    88   43  167 1    
    89   43  168 1    
    90   44   45 am   BACKBONE|DICT|INTERRES
    91   44  169 1    
    92   45   46 2    
    93   45   47 1    
    94   47   48 1    
    95   47   49 1    
    96   47  170 1    
    97   48  171 1    
    98   48  172 1    
    99   48  173 1    
   100   49   50 am   BACKBONE|DICT|INTERRES
   101   49  174 1    
   102   50   51 2    
   103   50   52 1    
   104   52   53 1    
   105   52   54 1    
   106   52  175 1    
   107   53  176 1    
   108   53  177 1    
   109   53  178 1    
   110   54   55 am   BACKBONE|DICT|INTERRES
   111   54  179 1    
   112   55   56 2    
   113   55   57 1    
   114   57   58 1    
   115   57   59 1    
   116   57  180 1    
   117   58  181 1    
   118   58  182 1    
   119   58  183 1    
   120   59   60 am   BACKBONE|DICT|INTERRES
   121   59  184 1    
   122   60   61 2    
   123   60   62 1    
   124   62   63 1    
   125   62   64 1    
   126   62  185 1    
   127   63  186 1    
   128   63  187 1    
   129   63  188 1    
   130   64   65 am   BACKBONE|DICT|INTERRES
   131   64  189 1    
   132   65   66 2    
   133   67   68 2    
   134   67   69 am   BACKBONE|DICT|INTERRES
   135   69   70 1    
   136   69  190 1    
   137   70   71 1    
   138   70   72 1    
   139   70  191 1    
   140   71  192 1    
   141   71  193 1    
   142   71  194 1    
   143   72   73 2    
   144   72   74 am   BACKBONE|DICT|INTERRES
   145   74   75 1    
   146   74  195 1    
   147   75   76 1    
   148   75   77 1    
   149   75  196 1    
   150   76  197 1    
   151   76  198 1    
   152   76  199 1    
   153   77   78 2    
   154   77   79 am   BACKBONE|DICT|INTERRES
   155   79   80 1    
   156   79  200 1    
   157   80   81 1    
   158   80   82 1    
   159   80  201 1    
   160   81  202 1    
   161   81  203 1    
   162   81  204 1    
   163   82   83 2    
   164   82   84 am   BACKBONE|DICT|INTERRES
   165   84   85 1    
   166   84  205 1    
   167   85   86 1    
   168   85   87 1    
   169   85  206 1    
   170   86  207 1    
   171   86  208 1    
   172   86  209 1    
   173   87   88 2    
   174   87   89 am   BACKBONE|DICT|INTERRES
   175   89   90 1    
   176   89  210 1    
   177   90   91 1    
   178   90   92 1    
   179   90  211 1    
   180   91  212 1    
   181   91  213 1    
   182   91  214 1    
   183   92   93 2    
   184   92   94 am   BACKBONE|DICT|INTERRES
   185   94   95 1    
   186   94  215 1    
   187   95   96 1    
   188   95   97 1    
   189   95  216 1    
   190   96  217 1    
   191   96  218 1    
   192   96  219 1    
   193   97   98 2    
   194   97   99 am   BACKBONE|DICT|INTERRES
   195   99  100 1    
   196   99  220 1    
   197  100  101 1    
   198  100  102 1    
   199  100  221 1    
   200  101  222 1    
   201  101  223 1    
   202  101  224 1    
   203  102  103 2    
   204  102  104 am   BACKBONE|DICT|INTERRES
   205  104  105 1    
   206  104  225 1    
   207  105  106 1    
   208  105  107 1    
   209  105  226 1    
   210  106  227 1    
   211  106  228 1    
   212  106  229 1    
   213  107  108 2    
   214  107  109 am   BACKBONE|DICT|INTERRES
   215  109  110 1    
   216  109  230 1    
   217  110  111 1    
   218  110  112 1    
   219  110  231 1    
   220  111  232 1    
   221  111  233 1    
   222  111  234 1    
   223  112  113 2    
   224  112  114 am   BACKBONE|DICT|INTERRES
   225  114  115 1    
   226  114  235 1    
   227  115  116 1    
   228  115  117 1    
   229  115  236 1    
   230  116  237 1    
   231  116  238 1    
   232  116  239 1    
   233  117  118 2    
   234  117  119 am   BACKBONE|DICT|INTERRES
   235  119  120 1    
   236  119  240 1    
   237  120  121 1    
   238  120  124 1    
   239  120  241 1    
   240  121  122 am   BACKBONE|DICT|INTERRES
   241  121  123 2    
   242  122  242 1    
   243  122  243 1    
   244  124  125 1    
   245  124  244 1    
   246  124  245 1    
   247  125  126 1    
   248  126  246 1    
   249  126  247 1    
@<TRIPOS>SUBSTRUCTURE
     1 UNK         1 GROUP             0       ****    0 ROOT    
