@<TRIPOS>MOLECULE
3R540
247   249    1
SMALL
USER_CHARGES


@<TRIPOS>ATOM
      1 CA          1.2088  -11.9561  -51.4061 C.3       0 UNK        -0.1800 
      2 C           1.5051  -12.6025  -50.0607 C.2       0 UNK         0.5000 
      3 O           2.2859  -12.0633  -49.2765 O.2       0 UNK        -0.5000 
      4 N           0.8755  -13.7522  -49.7852 N.am      1 UNK        -0.5000 
      5 CA          1.0459  -14.5377  -48.5562 C.3       1 UNK         0.1400 
      6 C6          0.4491  -15.9583  -48.6917 C.3       23 UNK        -0.0398 
      7 S7         -1.3692  -16.0219  -48.9529 S.3       23 UNK        -0.2404 
      8 C8         -1.5758  -16.0268  -50.7707 C.3       23 UNK        -0.0205 
      9 C9         -0.6240  -16.9891  -51.4604 C.ar      23 UNK        -0.0193 
     10 C10         0.3946  -16.5052  -52.2878 C.ar      23 UNK        -0.1150 
     11 C11         1.3314  -17.3812  -52.8426 C.ar      23 UNK        -0.0193 
     12 C12         1.2454  -18.7463  -52.5588 C.ar      23 UNK        -0.1150 
     13 C13         0.2193  -19.2405  -51.7489 C.ar      23 UNK        -0.0193 
     14 C14        -0.7235  -18.3603  -51.2165 C.ar      23 UNK        -0.1150 
     15 C15         0.1586  -20.7207  -51.4208 C.3       23 UNK        -0.0205 
     16 S16         1.4523  -21.1661  -50.2220 S.3       23 UNK        -0.2404 
     17 C17         0.7627  -20.5532  -48.6426 C.3       23 UNK        -0.0398 
     18 CA          0.2772  -21.7328  -47.7658 C.3       11 UNK         0.1400 
     19 N           0.5913  -21.5789  -46.3439 N.am      11 UNK        -0.5000 
     20 C           0.6645  -22.6253  -45.5073 C.2       10 UNK         0.5000 
     21 O           0.4581  -23.7900  -45.8530 O.2       10 UNK        -0.5000 
     22 CA          0.9912  -22.3261  -44.0366 C.3       10 UNK         0.1400 
     23 CB          2.4802  -21.9889  -43.8688 C.3       10 UNK        -0.1800 
     24 N           0.1669  -21.2542  -43.4805 N.am      10 UNK        -0.5000 
     25 C          -1.1670  -21.3131  -43.3572 C.2       9 UNK         0.5000 
     26 O          -1.8448  -22.2814  -43.7029 O.2       9 UNK        -0.5000 
     27 CA         -1.8684  -20.0717  -42.7786 C.3       9 UNK         0.1400 
     28 CB         -1.7251  -20.0314  -41.2500 C.3       9 UNK        -0.1800 
     29 N          -1.3846  -18.8157  -43.3529 N.am      9 UNK        -0.5000 
     30 C          -1.4720  -18.4891  -44.6507 C.2       8 UNK         0.5000 
     31 O          -1.9635  -19.2172  -45.5105 O.2       8 UNK        -0.5000 
     32 CA         -0.8502  -17.1494  -45.0740 C.3       8 UNK         0.1400 
     33 CB         -1.6969  -15.9616  -44.5937 C.3       8 UNK        -0.1800 
     34 N           0.5233  -17.0061  -44.5990 N.am      8 UNK        -0.5000 
     35 C           1.5301  -17.8376  -44.9034 C.2       7 UNK         0.5000 
     36 O           1.4325  -18.7931  -45.6761 O.2       7 UNK        -0.5000 
     37 CA          2.8580  -17.5873  -44.1718 C.3       7 UNK         0.1400 
     38 CB          3.6393  -16.4406  -44.8314 C.3       7 UNK        -0.1800 
     39 N           2.6509  -17.2997  -42.7507 N.am      7 UNK        -0.5000 
     40 C           2.1991  -18.1928  -41.8573 C.2       6 UNK         0.5000 
     41 O           1.9279  -19.3601  -42.1330 O.2       6 UNK        -0.5000 
     42 CA          1.9771  -17.6891  -40.4204 C.3       6 UNK         0.1400 
     43 CB          3.3017  -17.6612  -39.6433 C.3       6 UNK        -0.1800 
     44 N           1.3611  -16.3641  -40.3797 N.am      6 UNK        -0.5000 
     45 C           0.1166  -16.0925  -40.7970 C.2       5 UNK         0.5000 
     46 O          -0.6631  -16.9406  -41.2295 O.2       5 UNK        -0.5000 
     47 CA         -0.3082  -14.6127  -40.7698 C.3       5 UNK         0.1400 
     48 CB         -0.8869  -14.2410  -39.3967 C.3       5 UNK        -0.1800 
     49 N           0.7826  -13.6915  -41.1059 N.am      5 UNK        -0.5000 
     50 C           1.4164  -13.6757  -42.2853 C.2       4 UNK         0.5000 
     51 O           1.1740  -14.4657  -43.1987 O.2       4 UNK        -0.5000 
     52 CA          2.5281  -12.6372  -42.4625 C.3       4 UNK         0.1400 
     53 CB          3.9166  -13.2767  -42.2966 C.3       4 UNK        -0.1800 
     54 N           2.4021  -12.0504  -43.7911 N.am      4 UNK        -0.5000 
     55 C           2.6954  -10.7794  -44.0951 C.2       3 UNK         0.5000 
     56 O           3.2219   -9.9958  -43.3033 O.2       3 UNK        -0.5000 
     57 CA          2.3249  -10.2767  -45.5072 C.3       3 UNK         0.1400 
     58 CB          3.5488  -10.3340  -46.4336 C.3       3 UNK        -0.1800 
     59 N           1.2250  -11.0102  -46.1360 N.am      3 UNK        -0.5000 
     60 C          -0.0263  -11.1103  -45.6632 C.2       2 UNK         0.5000 
     61 O          -0.4232  -10.5061  -44.6660 O.2       2 UNK        -0.5000 
     62 CA         -1.0026  -12.0449  -46.4113 C.3       2 UNK         0.1400 
     63 CB         -2.1529  -11.2404  -47.0370 C.3       2 UNK        -0.1800 
     64 N          -0.3930  -12.8689  -47.4588 N.am      2 UNK        -0.5000 
     65 C           0.5378  -13.8195  -47.2879 C.2       1 UNK         0.5000 
     66 O           1.0258  -14.1072  -46.1976 O.2       1 UNK        -0.5000 
     67 C          -1.2049  -22.0834  -48.0029 C.2       11 UNK         0.5000 
     68 O          -1.4930  -22.8383  -48.9297 O.2       11 UNK        -0.5000 
     69 N          -2.1164  -21.6003  -47.1432 N.am      12 UNK        -0.5000 
     70 CA         -3.5206  -22.0149  -47.1337 C.3       12 UNK         0.1400 
     71 CB         -4.3370  -21.1675  -46.1480 C.3       12 UNK        -0.1800 
     72 C          -3.6816  -23.5113  -46.8288 C.2       12 UNK         0.5000 
     73 O          -4.4200  -24.1874  -47.5423 O.2       12 UNK        -0.5000 
     74 N          -2.9563  -24.0132  -45.8193 N.am      13 UNK        -0.5000 
     75 CA         -2.9101  -25.4332  -45.4682 C.3       13 UNK         0.1400 
     76 CB         -2.1221  -25.6241  -44.1638 C.3       13 UNK        -0.1800 
     77 C          -2.3328  -26.3036  -46.6001 C.2       13 UNK         0.5000 
     78 O          -2.9187  -27.3373  -46.9246 O.2       13 UNK        -0.5000 
     79 N          -1.2331  -25.8457  -47.2173 N.am      14 UNK        -0.5000 
     80 CA         -0.5966  -26.4896  -48.3712 C.3       14 UNK         0.1400 
     81 CB          0.7214  -25.7716  -48.6973 C.3       14 UNK        -0.1800 
     82 C          -1.5061  -26.5423  -49.6155 C.2       14 UNK         0.5000 
     83 O          -1.5063  -27.5458  -50.3288 O.2       14 UNK        -0.5000 
     84 N          -2.2900  -25.4780  -49.8280 N.am      15 UNK        -0.5000 
     85 CA         -3.2811  -25.3455  -50.8964 C.3       15 UNK         0.1400 
     86 CB         -3.4563  -23.8513  -51.2163 C.3       15 UNK        -0.1800 
     87 C          -4.6391  -26.0047  -50.5691 C.2       15 UNK         0.5000 
     88 O          -5.5844  -25.8235  -51.3364 O.2       15 UNK        -0.5000 
     89 N          -4.7370  -26.7321  -49.4455 N.am      16 UNK        -0.5000 
     90 CA         -5.9208  -27.4527  -48.9608 C.3       16 UNK         0.1400 
     91 CB         -6.2479  -28.6445  -49.8847 C.3       16 UNK        -0.1800 
     92 C          -7.1313  -26.5266  -48.7116 C.2       16 UNK         0.5000 
     93 O          -8.2561  -26.8485  -49.0975 O.2       16 UNK        -0.5000 
     94 N          -6.8543  -25.3805  -48.0765 N.am      17 UNK        -0.5000 
     95 CA         -7.7602  -24.2974  -47.6824 C.3       17 UNK         0.1400 
     96 CB         -8.9454  -24.8134  -46.8400 C.3       17 UNK        -0.1800 
     97 C          -8.2116  -23.3826  -48.8383 C.2       17 UNK         0.5000 
     98 O          -8.9762  -22.4496  -48.5878 O.2       17 UNK        -0.5000 
     99 N          -7.7252  -23.6167  -50.0671 N.am      18 UNK        -0.5000 
    100 CA        -8.0074  -22.7619  -51.2242 C.3       18 UNK         0.1400 
    101 CB        -7.6772  -23.5159  -52.5212 C.3       18 UNK        -0.1800 
    102 C         -7.2409  -21.4269  -51.1699 C.2       18 UNK         0.5000 
    103 O         -7.7836  -20.4027  -51.5849 O.2       18 UNK        -0.5000 
    104 N         -5.9970  -21.4758  -50.6624 N.am      19 UNK        -0.5000 
    105 CA        -5.0495  -20.3606  -50.5047 C.3       19 UNK         0.1400 
    106 CB        -5.5187  -19.4205  -49.3760 C.3       19 UNK        -0.1800 
    107 C         -4.7482  -19.6088  -51.8208 C.2       19 UNK         0.5000 
    108 O         -4.5687  -18.3898  -51.8118 O.2       19 UNK        -0.5000 
    109 N         -4.7265  -20.3530  -52.9346 N.am      20 UNK        -0.5000 
    110 CA        -4.5381  -19.8328  -54.2850 C.3       20 UNK         0.1400 
    111 CB        -4.8697  -20.9408  -55.2971 C.3       20 UNK        -0.1800 
    112 C         -3.1102  -19.3048  -54.5000 C.2       20 UNK         0.5000 
    113 O         -2.1522  -20.0665  -54.3456 O.2       20 UNK        -0.5000 
    114 N         -3.0051  -18.0255  -54.8762 N.am      21 UNK        -0.5000 
    115 CA        -1.7603  -17.3680  -55.2601 C.3       21 UNK         0.1400 
    116 CB        -1.9497  -15.8455  -55.1544 C.3       21 UNK        -0.1800 
    117 C         -1.3838  -17.7867  -56.7011 C.2       21 UNK         0.5000 
    118 O         -2.1155  -17.4149  -57.6193 O.2       21 UNK        -0.5000 
    119 N         -0.3098  -18.5447  -56.9563 N.am      22 UNK        -0.5000 
    120 CA         0.6230  -19.1823  -56.0188 C.3       22 UNK         0.1400 
    121 C          0.7148  -20.6867  -56.3710 C.2       22 UNK         0.5000 
    122 N         -0.1683  -21.5041  -55.8149 N.am      22 UNK        -0.7600 
    123 O          1.5649  -21.1140  -57.1480 O.2       22 UNK        -0.5000 
    124 C124        2.0103  -18.4873  -56.0006 C.3       23 UNK        -0.0398 
    125 S125        1.9379  -16.7400  -55.4701 S.3       23 UNK        -0.2404 
    126 C126        2.4482  -16.8477  -53.7261 C.3       23 UNK        -0.0205 
    127 H127        0.7866  -10.9620  -51.2593 H         1 UNK         0.0600 
    128 H128        2.1278  -11.8556  -51.9835 H         1 UNK         0.0600 
    129 H129        0.5018  -12.5436  -51.9923 H         1 UNK         0.0600 
    130 H130        0.2353  -14.1413  -50.4599 H         1 UNK         0.3000 
    131 H131        2.1219  -14.6613  -48.4147 H         1 UNK         0.0600 
    132 H132        0.6763  -16.5332  -47.7932 H         1 UNK         0.0800 
    133 H133        0.9692  -16.4942  -49.4839 H         1 UNK         0.0800 
    134 H134       -2.6018  -16.3132  -51.0074 H         1 UNK         0.0800 
    135 H135       -1.4500  -15.0130  -51.1519 H         1 UNK         0.0800 
    136 H136        0.4734  -15.4462  -52.4885 H         1 UNK         0.1150 
    137 H137        1.9800  -19.4285  -52.9627 H         1 UNK         0.1150 
    138 H138       -1.5096  -18.7319  -50.5743 H         1 UNK         0.1150 
    139 H139       -0.8229  -21.0027  -51.0360 H         1 UNK         0.0800 
    140 H140        0.3049  -21.2968  -52.3357 H         1 UNK         0.0800 
    141 H141       -0.0197  -19.8110  -48.8087 H         1 UNK         0.0800 
    142 H142        1.5708  -20.0183  -48.1421 H         1 UNK         0.0800 
    143 H143        0.8392  -22.6141  -48.0819 H         1 UNK         0.0600 
    144 H144        0.7720  -20.6389  -46.0019 H         1 UNK         0.3000 
    145 H145        0.7850  -23.2324  -43.4634 H         1 UNK         0.0600 
    146 H146        2.7461  -21.8983  -42.8156 H         1 UNK         0.0600 
    147 H147        3.1099  -22.7706  -44.2954 H         1 UNK         0.0600 
    148 H148        2.7393  -21.0510  -44.3614 H         1 UNK         0.0600 
    149 H149        0.6612  -20.4341  -43.1401 H         1 UNK         0.3000 
    150 H150       -2.9309  -20.1536  -43.0161 H         1 UNK         0.0600 
    151 H151       -2.0827  -20.9575  -40.7982 H         1 UNK         0.0600 
    152 H152       -2.3070  -19.2151  -40.8219 H         1 UNK         0.0600 
    153 H153       -0.6863  -19.8958  -40.9468 H         1 UNK         0.0600 
    154 H154       -0.9764  -18.1494  -42.7027 H         1 UNK         0.3000 
    155 H155       -0.8299  -17.1291  -46.1634 H         1 UNK         0.0600 
    156 H156       -2.7120  -16.0227  -44.9874 H         1 UNK         0.0600 
    157 H157       -1.2725  -15.0169  -44.9309 H         1 UNK         0.0600 
    158 H158       -1.7658  -15.9246  -43.5069 H         1 UNK         0.0600 
    159 H159        0.7179  -16.2058  -44.0035 H         1 UNK         0.3000 
    160 H160        3.4590  -18.4958  -44.2491 H         1 UNK         0.0600 
    161 H161        4.6006  -16.2840  -44.3420 H         1 UNK         0.0600 
    162 H162        3.0868  -15.5012  -44.7988 H         1 UNK         0.0600 
    163 H163        3.8402  -16.6617  -45.8803 H         1 UNK         0.0600 
    164 H164        2.7859  -16.3443  -42.4570 H         1 UNK         0.3000 
    165 H165        1.3042  -18.3905  -39.9224 H         1 UNK         0.0600 
    166 H166        3.1416  -17.3824  -38.6016 H         1 UNK         0.0600 
    167 H167        3.7759  -18.6436  -39.6464 H         1 UNK         0.0600 
    168 H168        4.0100  -16.9532  -40.0756 H         1 UNK         0.0600 
    169 H169        1.9308  -15.6034  -40.0405 H         1 UNK         0.3000 
    170 H170       -1.0942  -14.4836  -41.5168 H         1 UNK         0.0600 
    171 H171       -1.7139  -14.9008  -39.1305 H         1 UNK         0.0600 
    172 H172       -0.1376  -14.3191  -38.6080 H         1 UNK         0.0600 
    173 H173       -1.2732  -13.2216  -39.3941 H         1 UNK         0.0600 
    174 H174        1.0396  -13.0193  -40.3974 H         1 UNK         0.3000 
    175 H175        2.3984  -11.8623  -41.7037 H         1 UNK         0.0600 
    176 H176        4.7055  -12.5288  -42.3777 H         1 UNK         0.0600 
    177 H177        4.0168  -13.7500  -41.3191 H         1 UNK         0.0600 
    178 H178        4.1021  -14.0386  -43.0537 H         1 UNK         0.0600 
    179 H179        1.9451  -12.6413  -44.4782 H         1 UNK         0.3000 
    180 H180        2.0143   -9.2345  -45.4115 H         1 UNK         0.0600 
    181 H181        3.8829  -11.3602  -46.5928 H         1 UNK         0.0600 
    182 H182        4.3863   -9.7758  -46.0130 H         1 UNK         0.0600 
    183 H183        3.3266   -9.9001  -47.4089 H         1 UNK         0.0600 
    184 H184        1.4580  -11.5341  -46.9688 H         1 UNK         0.3000 
    185 H185       -1.4253  -12.7197  -45.6651 H         1 UNK         0.0600 
    186 H186       -2.8938  -11.8986  -47.4915 H         1 UNK         0.0600 
    187 H187       -2.6711  -10.6438  -46.2850 H         1 UNK         0.0600 
    188 H188       -1.7918  -10.5570  -47.8066 H         1 UNK         0.0600 
    189 H189       -0.7135  -12.6981  -48.4004 H         1 UNK         0.3000 
    190 H190       -1.8363  -20.9343  -46.4287 H         1 UNK         0.3000 
    191 H191       -3.9235  -21.8442  -48.1318 H         1 UNK         0.0600 
    192 H192       -3.9602  -21.2564  -45.1292 H         1 UNK         0.0600 
    193 H193       -5.3831  -21.4766  -46.1400 H         1 UNK         0.0600 
    194 H194       -4.3144  -20.1132  -46.4228 H         1 UNK         0.0600 
    195 H195       -2.3986  -23.3836  -45.2491 H         1 UNK         0.3000 
    196 H196       -3.9364  -25.7620  -45.2915 H         1 UNK         0.0600 
    197 H197       -1.0919  -25.2810  -44.2580 H         1 UNK         0.0600 
    198 H198       -2.0937  -26.6753  -43.8747 H         1 UNK         0.0600 
    199 H199       -2.5820  -25.0731  -43.3432 H         1 UNK         0.0600 
    200 H200       -0.7888  -25.0057  -46.8589 H         1 UNK         0.3000 
    201 H201       -0.3625  -27.5174  -48.0866 H         1 UNK         0.0600 
    202 H202        0.5491  -24.7485  -49.0306 H         1 UNK         0.0600 
    203 H203        1.2581  -26.2876  -49.4943 H         1 UNK         0.0600 
    204 H204        1.3804  -25.7369  -47.8295 H         1 UNK         0.0600 
    205 H205       -2.1764  -24.6669  -49.2273 H         1 UNK         0.3000 
    206 H206       -2.8989  -25.8367  -51.7933 H         1 UNK         0.0600 
    207 H207       -2.5082  -23.3970  -51.5051 H         1 UNK         0.0600 
    208 H208       -4.1504  -23.6972  -52.0428 H         1 UNK         0.0600 
    209 H209       -3.8352  -23.3085  -50.3511 H         1 UNK         0.0600 
    210 H210       -3.9219  -26.7893  -48.8474 H         1 UNK         0.3000 
    211 H211       -5.6480  -27.8603  -47.9863 H         1 UNK         0.0600 
    212 H212       -6.5741  -28.3159  -50.8719 H         1 UNK         0.0600 
    213 H213       -7.0460  -29.2571  -49.4640 H         1 UNK         0.0600 
    214 H214       -5.3795  -29.2901  -50.0161 H         1 UNK         0.0600 
    215 H215       -5.8751  -25.1809  -47.8729 H         1 UNK         0.3000 
    216 H216       -7.1644  -23.6582  -47.0293 H         1 UNK         0.0600 
    217 H217       -8.6035  -25.4511  -46.0249 H         1 UNK         0.0600 
    218 H218       -9.4948  -23.9845  -46.3924 H         1 UNK         0.0600 
    219 H219       -9.6557  -25.3826  -47.4397 H         1 UNK         0.0600 
    220 H220       -7.1277  -24.4195  -50.2179 H         1 UNK         0.3000 
    221 H221       -9.0759  -22.5353  -51.2332 H         1 UNK         0.0600 
    222 H222       -6.6111  -23.7243  -52.6098 H         1 UNK         0.0600 
    223 H223       -8.2098  -24.4656  -52.5736 H         1 UNK         0.0600 
    224 H224       -7.9673  -22.9308  -53.3948 H         1 UNK         0.0600 
    225 H225       -5.6707  -22.3766  -50.3463 H         1 UNK         0.3000 
    226 H226       -4.1000  -20.7997  -50.1972 H         1 UNK         0.0600 
    227 H227       -5.7525  -19.9765  -48.4689 H         1 UNK         0.0600 
    228 H228       -4.7449  -18.6943  -49.1232 H         1 UNK         0.0600 
    229 H229       -6.4116  -18.8639  -49.6625 H         1 UNK         0.0600 
    230 H230       -4.8612  -21.3486  -52.8515 H         1 UNK         0.3000 
    231 H231       -5.2483  -19.0164  -54.4335 H         1 UNK         0.0600 
    232 H232       -5.9000  -21.2803  -55.1877 H         1 UNK         0.0600 
    233 H233       -4.2164  -21.8061  -55.1768 H         1 UNK         0.0600 
    234 H234       -4.7527  -20.5814  -56.3203 H         1 UNK         0.0600 
    235 H235       -3.8467  -17.4815  -54.9965 H         1 UNK         0.3000 
    236 H236       -0.9934  -17.6212  -54.5352 H         1 UNK         0.0600 
    237 H237       -1.0320  -15.3230  -55.4272 H         1 UNK         0.0600 
    238 H238       -2.7428  -15.4838  -55.8099 H         1 UNK         0.0600 
    239 H239       -2.1977  -15.5516  -54.1342 H         1 UNK         0.0600 
    240 H240       -0.1434  -18.8006  -57.9185 H         1 UNK         0.3000 
    241 H241        0.2431  -19.1672  -55.0034 H         1 UNK         0.0600 
    242 H242       -0.1432  -22.4888  -56.0261 H         1 UNK         0.3800 
    243 H243       -0.8977  -21.1311  -55.2091 H         1 UNK         0.3800 
    244 H244        2.7011  -19.0308  -55.3544 H         1 UNK         0.0800 
    245 H245        2.4549  -18.5108  -56.9968 H         1 UNK         0.0800 
    246 H246        2.7372  -15.8522  -53.3859 H         1 UNK         0.0800 
    247 H247        3.3420  -17.4666  -53.6343 H         1 UNK         0.0800 
@<TRIPOS>BOND
     1    1    2 1    
     2    1  127 1    
     3    1  128 1    
     4    1  129 1    
     5    2    3 2    
     6    2    4 am   BACKBONE|DICT|INTERRES
     7    4    5 1    
     8    4  130 1    
     9    5    6 1    
    10    5   65 1    
    11    5  131 1    
    12    6    7 1    
    13    6  132 1    
    14    6  133 1    
    15    7    8 1    
    16    8    9 1    
    17    8  134 1    
    18    8  135 1    
    19    9   10 ar   
    20    9   14 ar   
    21   10   11 ar   
    22   10  136 1    
    23   11   12 ar   
    24   11  126 1    
    25   12   13 ar   
    26   12  137 1    
    27   13   14 ar   
    28   13   15 1    
    29   14  138 1    
    30   15   16 1    
    31   15  139 1    
    32   15  140 1    
    33   16   17 1    
    34   17   18 1    
    35   17  141 1    
    36   17  142 1    
    37   18   19 1    
    38   18   67 1    
    39   18  143 1    
    40   19   20 am   BACKBONE|DICT|INTERRES
    41   19  144 1    
    42   20   21 2    
    43   20   22 1    
    44   22   23 1    
    45   22   24 1    
    46   22  145 1    
    47   23  146 1    
    48   23  147 1    
    49   23  148 1    
    50   24   25 am   BACKBONE|DICT|INTERRES
    51   24  149 1    
    52   25   26 2    
    53   25   27 1    
    54   27   28 1    
    55   27   29 1    
    56   27  150 1    
    57   28  151 1    
    58   28  152 1    
    59   28  153 1    
    60   29   30 am   BACKBONE|DICT|INTERRES
    61   29  154 1    
    62   30   31 2    
    63   30   32 1    
    64   32   33 1    
    65   32   34 1    
    66   32  155 1    
    67   33  156 1    
    68   33  157 1    
    69   33  158 1    
    70   34   35 am   BACKBONE|DICT|INTERRES
    71   34  159 1    
    72   35   36 2    
    73   35   37 1    
    74   37   38 1    
    75   37   39 1    
    76   37  160 1    
    77   38  161 1    
    78   38  162 1    
    79   38  163 1    
    80   39   40 am   BACKBONE|DICT|INTERRES
    81   39  164 1    
    82   40   41 2    
    83   40   42 1    
    84   42   43 1    
    85   42   44 1    
    86   42  165 1    
    87   43  166 1    
    88   43  167 1    
    89   43  168 1    
    90   44   45 am   BACKBONE|DICT|INTERRES
    91   44  169 1    
    92   45   46 2    
    93   45   47 1    
    94   47   48 1    
    95   47   49 1    
    96   47  170 1    
    97   48  171 1    
    98   48  172 1    
    99   48  173 1    
   100   49   50 am   BACKBONE|DICT|INTERRES
   101   49  174 1    
   102   50   51 2    
   103   50   52 1    
   104   52   53 1    
   105   52   54 1    
   106   52  175 1    
   107   53  176 1    
   108   53  177 1    
   109   53  178 1    
   110   54   55 am   BACKBONE|DICT|INTERRES
   111   54  179 1    
   112   55   56 2    
   113   55   57 1    
   114   57   58 1    
   115   57   59 1    
   116   57  180 1    
   117   58  181 1    
   118   58  182 1    
   119   58  183 1    
   120   59   60 am   BACKBONE|DICT|INTERRES
   121   59  184 1    
   122   60   61 2    
   123   60   62 1    
   124   62   63 1    
   125   62   64 1    
   126   62  185 1    
   127   63  186 1    
   128   63  187 1    
   129   63  188 1    
   130   64   65 am   BACKBONE|DICT|INTERRES
   131   64  189 1    
   132   65   66 2    
   133   67   68 2    
   134   67   69 am   BACKBONE|DICT|INTERRES
   135   69   70 1    
   136   69  190 1    
   137   70   71 1    
   138   70   72 1    
   139   70  191 1    
   140   71  192 1    
   141   71  193 1    
   142   71  194 1    
   143   72   73 2    
   144   72   74 am   BACKBONE|DICT|INTERRES
   145   74   75 1    
   146   74  195 1    
   147   75   76 1    
   148   75   77 1    
   149   75  196 1    
   150   76  197 1    
   151   76  198 1    
   152   76  199 1    
   153   77   78 2    
   154   77   79 am   BACKBONE|DICT|INTERRES
   155   79   80 1    
   156   79  200 1    
   157   80   81 1    
   158   80   82 1    
   159   80  201 1    
   160   81  202 1    
   161   81  203 1    
   162   81  204 1    
   163   82   83 2    
   164   82   84 am   BACKBONE|DICT|INTERRES
   165   84   85 1    
   166   84  205 1    
   167   85   86 1    
   168   85   87 1    
   169   85  206 1    
   170   86  207 1    
   171   86  208 1    
   172   86  209 1    
   173   87   88 2    
   174   87   89 am   BACKBONE|DICT|INTERRES
   175   89   90 1    
   176   89  210 1    
   177   90   91 1    
   178   90   92 1    
   179   90  211 1    
   180   91  212 1    
   181   91  213 1    
   182   91  214 1    
   183   92   93 2    
   184   92   94 am   BACKBONE|DICT|INTERRES
   185   94   95 1    
   186   94  215 1    
   187   95   96 1    
   188   95   97 1    
   189   95  216 1    
   190   96  217 1    
   191   96  218 1    
   192   96  219 1    
   193   97   98 2    
   194   97   99 am   BACKBONE|DICT|INTERRES
   195   99  100 1    
   196   99  220 1    
   197  100  101 1    
   198  100  102 1    
   199  100  221 1    
   200  101  222 1    
   201  101  223 1    
   202  101  224 1    
   203  102  103 2    
   204  102  104 am   BACKBONE|DICT|INTERRES
   205  104  105 1    
   206  104  225 1    
   207  105  106 1    
   208  105  107 1    
   209  105  226 1    
   210  106  227 1    
   211  106  228 1    
   212  106  229 1    
   213  107  108 2    
   214  107  109 am   BACKBONE|DICT|INTERRES
   215  109  110 1    
   216  109  230 1    
   217  110  111 1    
   218  110  112 1    
   219  110  231 1    
   220  111  232 1    
   221  111  233 1    
   222  111  234 1    
   223  112  113 2    
   224  112  114 am   BACKBONE|DICT|INTERRES
   225  114  115 1    
   226  114  235 1    
   227  115  116 1    
   228  115  117 1    
   229  115  236 1    
   230  116  237 1    
   231  116  238 1    
   232  116  239 1    
   233  117  118 2    
   234  117  119 am   BACKBONE|DICT|INTERRES
   235  119  120 1    
   236  119  240 1    
   237  120  121 1    
   238  120  124 1    
   239  120  241 1    
   240  121  122 am   BACKBONE|DICT|INTERRES
   241  121  123 2    
   242  122  242 1    
   243  122  243 1    
   244  124  125 1    
   245  124  244 1    
   246  124  245 1    
   247  125  126 1    
   248  126  246 1    
   249  126  247 1    
@<TRIPOS>SUBSTRUCTURE
     1 UNK         1 GROUP             0       ****    0 ROOT    
