@<TRIPOS>MOLECULE
3R540
247   249    1
SMALL
USER_CHARGES


@<TRIPOS>ATOM
      1 CA         -1.0467  -15.8291  -49.8700 C.3       0 UNK        -0.1800 
      2 C          -2.1372  -15.2723  -48.9655 C.2       0 UNK         0.5000 
      3 O          -2.7037  -14.2240  -49.2701 O.2       0 UNK        -0.5000 
      4 N          -2.4175  -15.9820  -47.8646 N.am      1 UNK        -0.5000 
      5 CA         -3.4780  -15.7845  -46.8666 C.3       1 UNK         0.1400 
      6 C6         -4.8281  -16.4377  -47.2672 C.3       23 UNK        -0.0398 
      7 S7         -5.7124  -15.6735  -48.6744 S.3       23 UNK        -0.2404 
      8 C8         -5.3659  -16.8514  -50.0326 C.3       23 UNK        -0.0205 
      9 C9         -5.9126  -18.2715  -49.8619 C.ar      23 UNK        -0.0193 
     10 C10        -5.4671  -19.2631  -50.7400 C.ar      23 UNK        -0.1150 
     11 C11        -5.9125  -20.5827  -50.6250 C.ar      23 UNK        -0.0193 
     12 C12        -6.8083  -20.9205  -49.6056 C.ar      23 UNK        -0.1150 
     13 C13        -7.2797  -19.9377  -48.7300 C.ar      23 UNK        -0.0193 
     14 C14        -6.8413  -18.6189  -48.8734 C.ar      23 UNK        -0.1150 
     15 C15        -8.2832  -20.2721  -47.6383 C.3       23 UNK        -0.0205 
     16 S16        -7.5371  -20.1280  -45.9820 S.3       23 UNK        -0.2404 
     17 C17        -7.0131  -21.8412  -45.6375 C.3       23 UNK        -0.0398 
     18 CA         -5.5261  -22.1375  -45.9560 C.3       11 UNK         0.1400 
     19 N          -4.6096  -21.1534  -45.3602 N.am      11 UNK        -0.5000 
     20 C          -3.2745  -21.1416  -45.4836 C.2       10 UNK         0.5000 
     21 O          -2.6333  -22.0060  -46.0900 O.2       10 UNK        -0.5000 
     22 CA         -2.5472  -20.0059  -44.7418 C.3       10 UNK         0.1400 
     23 CB         -2.5052  -20.2971  -43.2329 C.3       10 UNK        -0.1800 
     24 N          -1.1801  -19.8190  -45.2282 N.am      10 UNK        -0.5000 
     25 C          -0.8636  -19.1148  -46.3237 C.2       9 UNK         0.5000 
     26 O          -1.7015  -18.5574  -47.0301 O.2       9 UNK        -0.5000 
     27 CA          0.6197  -18.9843  -46.7174 C.3       9 UNK         0.1400 
     28 CB          1.0628  -17.5158  -46.6330 C.3       9 UNK        -0.1800 
     29 N           1.4954  -19.7902  -45.8702 N.am      9 UNK        -0.5000 
     30 C           1.9301  -21.0199  -46.1767 C.2       8 UNK         0.5000 
     31 O           1.7001  -21.5670  -47.2543 O.2       8 UNK        -0.5000 
     32 CA          2.7673  -21.7704  -45.1187 C.3       8 UNK         0.1400 
     33 CB          4.2544  -21.7503  -45.5015 C.3       8 UNK        -0.1800 
     34 N           2.6212  -21.2449  -43.7592 N.am      8 UNK        -0.5000 
     35 C           1.4867  -21.2598  -43.0457 C.2       7 UNK         0.5000 
     36 O           0.4482  -21.7873  -43.4383 O.2       7 UNK        -0.5000 
     37 CA          1.4892  -20.5018  -41.7020 C.3       7 UNK         0.1400 
     38 CB          1.7396  -21.4740  -40.5401 C.3       7 UNK        -0.1800 
     39 N           2.4574  -19.3994  -41.6257 N.am      7 UNK        -0.5000 
     40 C           2.4999  -18.3451  -42.4526 C.2       6 UNK         0.5000 
     41 O           1.7422  -18.2074  -43.4154 O.2       6 UNK        -0.5000 
     42 CA          3.6236  -17.3223  -42.1949 C.3       6 UNK         0.1400 
     43 CB          4.9790  -17.9012  -42.6347 C.3       6 UNK        -0.1800 
     44 N           3.4078  -16.0651  -42.9119 N.am      6 UNK        -0.5000 
     45 C           2.4728  -15.1553  -42.6124 C.2       5 UNK         0.5000 
     46 O           1.7182  -15.2394  -41.6396 O.2       5 UNK        -0.5000 
     47 CA          2.3752  -13.9627  -43.5830 C.3       5 UNK         0.1400 
     48 CB          1.7059  -14.3779  -44.9024 C.3       5 UNK        -0.1800 
     49 N           1.6348  -12.8404  -43.0070 N.am      5 UNK        -0.5000 
     50 C           2.1668  -11.9383  -42.1700 C.2       4 UNK         0.5000 
     51 O           3.3423  -11.9696  -41.8014 O.2       4 UNK        -0.5000 
     52 CA          1.2658  -10.7843  -41.6834 C.3       4 UNK         0.1400 
     53 CB          1.6947   -9.4601  -42.3366 C.3       4 UNK        -0.1800 
     54 N          -0.1541  -10.9967  -41.9640 N.am      4 UNK        -0.5000 
     55 C          -0.9921  -11.6985  -41.1903 C.2       3 UNK         0.5000 
     56 O          -0.6640  -12.2239  -40.1260 O.2       3 UNK        -0.5000 
     57 CA         -2.4438  -11.8395  -41.6932 C.3       3 UNK         0.1400 
     58 CB         -3.3458  -10.7871  -41.0302 C.3       3 UNK        -0.1800 
     59 N          -2.5829  -11.7372  -43.1512 N.am      3 UNK        -0.5000 
     60 C          -2.0829  -12.6235  -44.0211 C.2       2 UNK         0.5000 
     61 O          -1.4011  -13.5940  -43.6857 O.2       2 UNK        -0.5000 
     62 CA         -2.3444  -12.3563  -45.5131 C.3       2 UNK         0.1400 
     63 CB         -1.1866  -11.5536  -46.1259 C.3       2 UNK        -0.1800 
     64 N          -2.4838  -13.6188  -46.2356 N.am      2 UNK        -0.5000 
     65 C          -3.5891  -14.3756  -46.2349 C.2       1 UNK         0.5000 
     66 O          -4.6461  -14.0184  -45.7103 O.2       1 UNK        -0.5000 
     67 C          -5.2091  -23.5890  -45.5348 C.2       11 UNK         0.5000 
     68 O          -5.3705  -24.5048  -46.3413 O.2       11 UNK        -0.5000 
     69 N          -4.7300  -23.7670  -44.2938 N.am      12 UNK        -0.5000 
     70 CA         -4.3202  -25.0505  -43.7151 C.3       12 UNK         0.1400 
     71 CB         -3.9999  -24.8430  -42.2265 C.3       12 UNK        -0.1800 
     72 C          -3.1237  -25.7045  -44.4359 C.2       12 UNK         0.5000 
     73 O          -3.0001  -26.9296  -44.4128 O.2       12 UNK        -0.5000 
     74 N          -2.2855  -24.8819  -45.0795 N.am      13 UNK        -0.5000 
     75 CA         -1.1633  -25.3031  -45.9167 C.3       13 UNK         0.1400 
     76 CB          0.0355  -24.3909  -45.6047 C.3       13 UNK        -0.1800 
     77 C          -1.5161  -25.2423  -47.4164 C.2       13 UNK         0.5000 
     78 O          -0.6158  -25.3714  -48.2450 O.2       13 UNK        -0.5000 
     79 N          -2.7933  -24.9849  -47.7489 N.am      14 UNK        -0.5000 
     80 CA         -3.3264  -24.7055  -49.0904 C.3       14 UNK         0.1400 
     81 CB         -3.2611  -25.9648  -49.9784 C.3       14 UNK        -0.1800 
     82 C          -2.6725  -23.4725  -49.7538 C.2       14 UNK         0.5000 
     83 O          -2.6167  -23.3894  -50.9815 O.2       14 UNK        -0.5000 
     84 N          -2.1725  -22.5526  -48.9151 N.am      15 UNK        -0.5000 
     85 CA         -1.3722  -21.3763  -49.2424 C.3       15 UNK         0.1400 
     86 CB         -2.2533  -20.2652  -49.8439 C.3       15 UNK        -0.1800 
     87 C          -0.1243  -21.6883  -50.0905 C.2       15 UNK         0.5000 
     88 O           0.2068  -20.9073  -50.9784 O.2       15 UNK        -0.5000 
     89 N           0.5550  -22.8086  -49.7961 N.am      16 UNK        -0.5000 
     90 CA          1.7319  -23.3351  -50.5002 C.3       16 UNK         0.1400 
     91 CB          2.2774  -24.5476  -49.7310 C.3       16 UNK        -0.1800 
     92 C           2.8717  -22.3296  -50.7698 C.2       16 UNK         0.5000 
     93 O           3.5576  -22.4614  -51.7844 O.2       16 UNK        -0.5000 
     94 N           3.0369  -21.3303  -49.8913 N.am      17 UNK        -0.5000 
     95 CA          3.9777  -20.2166  -50.0570 C.3       17 UNK         0.1400 
     96 CB          4.0069  -19.3883  -48.7638 C.3       17 UNK        -0.1800 
     97 C           3.6798  -19.3029  -51.2685 C.2       17 UNK         0.5000 
     98 O           4.5883  -18.6178  -51.7400 O.2       17 UNK        -0.5000 
     99 N           2.4326  -19.3069  -51.7535 N.am      18 UNK        -0.5000 
    100 CA         1.9593  -18.5595  -52.9149 C.3       18 UNK         0.1400 
    101 CB         1.4550  -17.1745  -52.4679 C.3       18 UNK        -0.1800 
    102 C          0.8821  -19.4003  -53.6202 C.2       18 UNK         0.5000 
    103 O         -0.2384  -18.9300  -53.8264 O.2       18 UNK        -0.5000 
    104 N          1.2404  -20.6568  -53.9335 N.am      19 UNK        -0.5000 
    105 CA         0.3495  -21.7476  -54.3563 C.3       19 UNK         0.1400 
    106 CB         1.1995  -22.9885  -54.6693 C.3       19 UNK        -0.1800 
    107 C         -0.5812  -21.4353  -55.5440 C.2       19 UNK         0.5000 
    108 O         -1.6644  -22.0158  -55.6325 O.2       19 UNK        -0.5000 
    109 N         -0.1655  -20.4957  -56.4058 N.am      20 UNK        -0.5000 
    110 CA        -0.9366  -19.9499  -57.5248 C.3       20 UNK         0.1400 
    111 CB        -0.0756  -18.9134  -58.2627 C.3       20 UNK        -0.1800 
    112 C         -2.2930  -19.3333  -57.1210 C.2       20 UNK         0.5000 
    113 O         -3.2041  -19.3080  -57.9499 O.2       20 UNK        -0.5000 
    114 N         -2.4310  -18.9050  -55.8555 N.am      21 UNK        -0.5000 
    115 CA        -3.6729  -18.4048  -55.2563 C.3       21 UNK         0.1400 
    116 CB        -3.3822  -17.9350  -53.8225 C.3       21 UNK        -0.1800 
    117 C         -4.8387  -19.4190  -55.2687 C.2       21 UNK         0.5000 
    118 O         -5.9956  -18.9970  -55.2789 O.2       21 UNK        -0.5000 
    119 N         -4.5169  -20.7186  -55.3075 N.am      22 UNK        -0.5000 
    120 CA        -5.4583  -21.8304  -55.5181 C.3       22 UNK         0.1400 
    121 C         -5.0844  -22.6715  -56.7759 C.2       22 UNK         0.5000 
    122 N         -4.3822  -22.1164  -57.7578 N.am      22 UNK        -0.7600 
    123 O         -5.4546  -23.8374  -56.8881 O.2       22 UNK        -0.5000 
    124 C124       -5.6450  -22.6884  -54.2353 C.3       23 UNK        -0.0398 
    125 S125       -6.6312  -21.8106  -52.9750 S.3       23 UNK        -0.2404 
    126 C126       -5.4368  -21.6299  -51.6193 C.3       23 UNK        -0.0205 
    127 H127       -0.7242  -16.8215  -49.5527 H         1 UNK         0.0600 
    128 H128       -0.1792  -15.1691  -49.8662 H         1 UNK         0.0600 
    129 H129       -1.4136  -15.9075  -50.8938 H         1 UNK         0.0600 
    130 H130       -1.9195  -16.8570  -47.7175 H         1 UNK         0.3000 
    131 H131       -3.1248  -16.3823  -46.0249 H         1 UNK         0.0600 
    132 H132       -4.6495  -17.4911  -47.4865 H         1 UNK         0.0800 
    133 H133       -5.5085  -16.4425  -46.4142 H         1 UNK         0.0800 
    134 H134       -4.2859  -16.9030  -50.1753 H         1 UNK         0.0800 
    135 H135       -5.7766  -16.4360  -50.9536 H         1 UNK         0.0800 
    136 H136       -4.7674  -19.0073  -51.5214 H         1 UNK         0.1150 
    137 H137       -7.1551  -21.9401  -49.5122 H         1 UNK         0.1150 
    138 H138       -7.2252  -17.8730  -48.1933 H         1 UNK         0.1150 
    139 H139       -9.1168  -19.5707  -47.7042 H         1 UNK         0.0800 
    140 H140       -8.7145  -21.2634  -47.7868 H         1 UNK         0.0800 
    141 H141       -7.6626  -22.5315  -46.1790 H         1 UNK         0.0800 
    142 H142       -7.2135  -22.0195  -44.5788 H         1 UNK         0.0800 
    143 H143       -5.3921  -22.0777  -47.0386 H         1 UNK         0.0600 
    144 H144       -5.0578  -20.4075  -44.8471 H         1 UNK         0.3000 
    145 H145       -3.1046  -19.0794  -44.8969 H         1 UNK         0.0600 
    146 H146       -1.9200  -19.5467  -42.7005 H         1 UNK         0.0600 
    147 H147       -3.5075  -20.2883  -42.8034 H         1 UNK         0.0600 
    148 H148       -2.0716  -21.2748  -43.0207 H         1 UNK         0.0600 
    149 H149       -0.4560  -20.3293  -44.7382 H         1 UNK         0.3000 
    150 H150        0.7108  -19.2998  -47.7585 H         1 UNK         0.0600 
    151 H151        0.5260  -16.8993  -47.3540 H         1 UNK         0.0600 
    152 H152        2.1270  -17.4060  -46.8408 H         1 UNK         0.0600 
    153 H153        0.8694  -17.1017  -45.6438 H         1 UNK         0.0600 
    154 H154        1.7162  -19.3900  -44.9625 H         1 UNK         0.3000 
    155 H155        2.4306  -22.8084  -45.1154 H         1 UNK         0.0600 
    156 H156        4.6577  -20.7368  -45.4940 H         1 UNK         0.0600 
    157 H157        4.4069  -22.1588  -46.5017 H         1 UNK         0.0600 
    158 H158        4.8471  -22.3532  -44.8134 H         1 UNK         0.0600 
    159 H159        3.4266  -20.7844  -43.3627 H         1 UNK         0.3000 
    160 H160        0.4941  -20.0701  -41.5770 H         1 UNK         0.0600 
    161 H161        2.7360  -21.9144  -40.5916 H         1 UNK         0.0600 
    162 H162        1.0180  -22.2922  -40.5527 H         1 UNK         0.0600 
    163 H163        1.6419  -20.9726  -39.5771 H         1 UNK         0.0600 
    164 H164        3.1265  -19.4501  -40.8708 H         1 UNK         0.3000 
    165 H165        3.6582  -17.1100  -41.1243 H         1 UNK         0.0600 
    166 H166        5.7883  -17.1949  -42.4482 H         1 UNK         0.0600 
    167 H167        5.2184  -18.8132  -42.0866 H         1 UNK         0.0600 
    168 H168        4.9866  -18.1460  -43.6979 H         1 UNK         0.0600 
    169 H169        3.9604  -15.9336  -43.7460 H         1 UNK         0.3000 
    170 H170        3.3898  -13.6296  -43.8130 H         1 UNK         0.0600 
    171 H171        0.7091  -14.7885  -44.7391 H         1 UNK         0.0600 
    172 H172        1.6176  -13.5327  -45.5846 H         1 UNK         0.0600 
    173 H173        2.2960  -15.1388  -45.4137 H         1 UNK         0.0600 
    174 H174        0.6400  -12.8182  -43.1902 H         1 UNK         0.3000 
    175 H175        1.4084  -10.6911  -40.6046 H         1 UNK         0.0600 
    176 H176        1.5823   -9.4911  -43.4212 H         1 UNK         0.0600 
    177 H177        1.1032   -8.6249  -41.9606 H         1 UNK         0.0600 
    178 H178        2.7406   -9.2371  -42.1213 H         1 UNK         0.0600 
    179 H179       -0.5138  -10.5937  -42.8164 H         1 UNK         0.3000 
    180 H180       -2.7964  -12.8283  -41.3921 H         1 UNK         0.0600 
    181 H181       -4.3903  -10.9303  -41.3080 H         1 UNK         0.0600 
    182 H182       -3.0575   -9.7740  -41.3134 H         1 UNK         0.0600 
    183 H183       -3.2889  -10.8525  -39.9428 H         1 UNK         0.0600 
    184 H184       -3.1221  -10.9564  -43.4976 H         1 UNK         0.3000 
    185 H185       -3.2650  -11.7782  -45.6196 H         1 UNK         0.0600 
    186 H186       -0.2368  -12.0815  -46.0381 H         1 UNK         0.0600 
    187 H187       -1.3624  -11.3557  -47.1836 H         1 UNK         0.0600 
    188 H188       -1.0728  -10.5887  -45.6302 H         1 UNK         0.0600 
    189 H189       -1.6492  -13.9944  -46.6600 H         1 UNK         0.3000 
    190 H190       -4.6242  -22.9552  -43.7027 H         1 UNK         0.3000 
    191 H191       -5.1654  -25.7381  -43.7934 H         1 UNK         0.0600 
    192 H192       -3.7139  -25.7835  -41.7531 H         1 UNK         0.0600 
    193 H193       -4.8652  -24.4594  -41.6852 H         1 UNK         0.0600 
    194 H194       -3.1764  -24.1407  -42.0864 H         1 UNK         0.0600 
    195 H195       -2.4758  -23.8862  -45.0757 H         1 UNK         0.3000 
    196 H196       -0.8791  -26.3324  -45.6893 H         1 UNK         0.0600 
    197 H197       -0.1788  -23.3499  -45.8510 H         1 UNK         0.0600 
    198 H198        0.2993  -24.4347  -44.5480 H         1 UNK         0.0600 
    199 H199        0.9193  -24.6871  -46.1714 H         1 UNK         0.0600 
    200 H200       -3.4732  -24.9047  -47.0013 H         1 UNK         0.3000 
    201 H201       -4.3784  -24.4513  -48.9550 H         1 UNK         0.0600 
    202 H202       -3.7878  -25.8069  -50.9203 H         1 UNK         0.0600 
    203 H203       -3.7277  -26.8183  -49.4865 H         1 UNK         0.0600 
    204 H204       -2.2335  -26.2367  -50.2211 H         1 UNK         0.0600 
    205 H205       -2.3095  -22.6953  -47.9190 H         1 UNK         0.3000 
    206 H206       -0.9898  -21.0224  -48.2889 H         1 UNK         0.0600 
    207 H207       -1.6966  -19.3323  -49.9407 H         1 UNK         0.0600 
    208 H208       -3.1145  -20.0603  -49.2075 H         1 UNK         0.0600 
    209 H209       -2.6148  -20.5340  -50.8358 H         1 UNK         0.0600 
    210 H210        0.1985  -23.3948  -49.0519 H         1 UNK         0.3000 
    211 H211        1.3807  -23.6830  -51.4727 H         1 UNK         0.0600 
    212 H212        3.1897  -24.9311  -50.1904 H         1 UNK         0.0600 
    213 H213        1.5577  -25.3656  -49.7238 H         1 UNK         0.0600 
    214 H214        2.5104  -24.2927  -48.6960 H         1 UNK         0.0600 
    215 H215        2.4501  -21.3233  -49.0616 H         1 UNK         0.3000 
    216 H216        4.9714  -20.6427  -50.2106 H         1 UNK         0.0600 
    217 H217        3.0291  -18.9603  -48.5440 H         1 UNK         0.0600 
    218 H218        4.7162  -18.5633  -48.8409 H         1 UNK         0.0600 
    219 H219        4.3109  -19.9955  -47.9123 H         1 UNK         0.0600 
    220 H220        1.7372  -19.9257  -51.3372 H         1 UNK         0.3000 
    221 H221        2.7748  -18.4231  -53.6283 H         1 UNK         0.0600 
    222 H222        2.2474  -16.5995  -51.9887 H         1 UNK         0.0600 
    223 H223        0.6308  -17.2644  -51.7602 H         1 UNK         0.0600 
    224 H224        1.0989  -16.5927  -53.3191 H         1 UNK         0.0600 
    225 H225        2.1844  -20.9353  -53.7055 H         1 UNK         0.3000 
    226 H226       -0.2923  -21.9801  -53.5038 H         1 UNK         0.0600 
    227 H227        1.8794  -22.8077  -55.5031 H         1 UNK         0.0600 
    228 H228        1.7983  -23.2897  -53.8105 H         1 UNK         0.0600 
    229 H229        0.5690  -23.8378  -54.9369 H         1 UNK         0.0600 
    230 H230        0.7319  -20.0688  -56.2298 H         1 UNK         0.3000 
    231 H231       -1.1464  -20.7742  -58.2093 H         1 UNK         0.0600 
    232 H232        0.1921  -18.0790  -57.6132 H         1 UNK         0.0600 
    233 H233       -0.6079  -18.5031  -59.1223 H         1 UNK         0.0600 
    234 H234        0.8467  -19.3590  -58.6363 H         1 UNK         0.0600 
    235 H235       -1.6306  -18.9682  -55.2313 H         1 UNK         0.3000 
    236 H236       -3.9908  -17.5391  -55.8408 H         1 UNK         0.0600 
    237 H237       -3.0335  -18.7570  -53.1957 H         1 UNK         0.0600 
    238 H238       -2.6164  -17.1591  -53.8088 H         1 UNK         0.0600 
    239 H239       -4.2761  -17.5165  -53.3585 H         1 UNK         0.0600 
    240 H240       -3.5368  -20.9788  -55.3297 H         1 UNK         0.3000 
    241 H241       -6.4382  -21.4260  -55.7777 H         1 UNK         0.0600 
    242 H242       -4.1547  -22.6690  -58.5691 H         1 UNK         0.3800 
    243 H243       -4.1038  -21.1431  -57.7206 H         1 UNK         0.3800 
    244 H244       -6.1842  -23.6112  -54.4537 H         1 UNK         0.0800 
    245 H245       -4.6783  -22.9923  -53.8298 H         1 UNK         0.0800 
    246 H246       -4.4646  -21.3498  -52.0275 H         1 UNK         0.0800 
    247 H247       -5.3040  -22.5916  -51.1223 H         1 UNK         0.0800 
@<TRIPOS>BOND
     1    1    2 1    
     2    1  127 1    
     3    1  128 1    
     4    1  129 1    
     5    2    3 2    
     6    2    4 am   BACKBONE|DICT|INTERRES
     7    4    5 1    
     8    4  130 1    
     9    5    6 1    
    10    5   65 1    
    11    5  131 1    
    12    6    7 1    
    13    6  132 1    
    14    6  133 1    
    15    7    8 1    
    16    8    9 1    
    17    8  134 1    
    18    8  135 1    
    19    9   10 ar   
    20    9   14 ar   
    21   10   11 ar   
    22   10  136 1    
    23   11   12 ar   
    24   11  126 1    
    25   12   13 ar   
    26   12  137 1    
    27   13   14 ar   
    28   13   15 1    
    29   14  138 1    
    30   15   16 1    
    31   15  139 1    
    32   15  140 1    
    33   16   17 1    
    34   17   18 1    
    35   17  141 1    
    36   17  142 1    
    37   18   19 1    
    38   18   67 1    
    39   18  143 1    
    40   19   20 am   BACKBONE|DICT|INTERRES
    41   19  144 1    
    42   20   21 2    
    43   20   22 1    
    44   22   23 1    
    45   22   24 1    
    46   22  145 1    
    47   23  146 1    
    48   23  147 1    
    49   23  148 1    
    50   24   25 am   BACKBONE|DICT|INTERRES
    51   24  149 1    
    52   25   26 2    
    53   25   27 1    
    54   27   28 1    
    55   27   29 1    
    56   27  150 1    
    57   28  151 1    
    58   28  152 1    
    59   28  153 1    
    60   29   30 am   BACKBONE|DICT|INTERRES
    61   29  154 1    
    62   30   31 2    
    63   30   32 1    
    64   32   33 1    
    65   32   34 1    
    66   32  155 1    
    67   33  156 1    
    68   33  157 1    
    69   33  158 1    
    70   34   35 am   BACKBONE|DICT|INTERRES
    71   34  159 1    
    72   35   36 2    
    73   35   37 1    
    74   37   38 1    
    75   37   39 1    
    76   37  160 1    
    77   38  161 1    
    78   38  162 1    
    79   38  163 1    
    80   39   40 am   BACKBONE|DICT|INTERRES
    81   39  164 1    
    82   40   41 2    
    83   40   42 1    
    84   42   43 1    
    85   42   44 1    
    86   42  165 1    
    87   43  166 1    
    88   43  167 1    
    89   43  168 1    
    90   44   45 am   BACKBONE|DICT|INTERRES
    91   44  169 1    
    92   45   46 2    
    93   45   47 1    
    94   47   48 1    
    95   47   49 1    
    96   47  170 1    
    97   48  171 1    
    98   48  172 1    
    99   48  173 1    
   100   49   50 am   BACKBONE|DICT|INTERRES
   101   49  174 1    
   102   50   51 2    
   103   50   52 1    
   104   52   53 1    
   105   52   54 1    
   106   52  175 1    
   107   53  176 1    
   108   53  177 1    
   109   53  178 1    
   110   54   55 am   BACKBONE|DICT|INTERRES
   111   54  179 1    
   112   55   56 2    
   113   55   57 1    
   114   57   58 1    
   115   57   59 1    
   116   57  180 1    
   117   58  181 1    
   118   58  182 1    
   119   58  183 1    
   120   59   60 am   BACKBONE|DICT|INTERRES
   121   59  184 1    
   122   60   61 2    
   123   60   62 1    
   124   62   63 1    
   125   62   64 1    
   126   62  185 1    
   127   63  186 1    
   128   63  187 1    
   129   63  188 1    
   130   64   65 am   BACKBONE|DICT|INTERRES
   131   64  189 1    
   132   65   66 2    
   133   67   68 2    
   134   67   69 am   BACKBONE|DICT|INTERRES
   135   69   70 1    
   136   69  190 1    
   137   70   71 1    
   138   70   72 1    
   139   70  191 1    
   140   71  192 1    
   141   71  193 1    
   142   71  194 1    
   143   72   73 2    
   144   72   74 am   BACKBONE|DICT|INTERRES
   145   74   75 1    
   146   74  195 1    
   147   75   76 1    
   148   75   77 1    
   149   75  196 1    
   150   76  197 1    
   151   76  198 1    
   152   76  199 1    
   153   77   78 2    
   154   77   79 am   BACKBONE|DICT|INTERRES
   155   79   80 1    
   156   79  200 1    
   157   80   81 1    
   158   80   82 1    
   159   80  201 1    
   160   81  202 1    
   161   81  203 1    
   162   81  204 1    
   163   82   83 2    
   164   82   84 am   BACKBONE|DICT|INTERRES
   165   84   85 1    
   166   84  205 1    
   167   85   86 1    
   168   85   87 1    
   169   85  206 1    
   170   86  207 1    
   171   86  208 1    
   172   86  209 1    
   173   87   88 2    
   174   87   89 am   BACKBONE|DICT|INTERRES
   175   89   90 1    
   176   89  210 1    
   177   90   91 1    
   178   90   92 1    
   179   90  211 1    
   180   91  212 1    
   181   91  213 1    
   182   91  214 1    
   183   92   93 2    
   184   92   94 am   BACKBONE|DICT|INTERRES
   185   94   95 1    
   186   94  215 1    
   187   95   96 1    
   188   95   97 1    
   189   95  216 1    
   190   96  217 1    
   191   96  218 1    
   192   96  219 1    
   193   97   98 2    
   194   97   99 am   BACKBONE|DICT|INTERRES
   195   99  100 1    
   196   99  220 1    
   197  100  101 1    
   198  100  102 1    
   199  100  221 1    
   200  101  222 1    
   201  101  223 1    
   202  101  224 1    
   203  102  103 2    
   204  102  104 am   BACKBONE|DICT|INTERRES
   205  104  105 1    
   206  104  225 1    
   207  105  106 1    
   208  105  107 1    
   209  105  226 1    
   210  106  227 1    
   211  106  228 1    
   212  106  229 1    
   213  107  108 2    
   214  107  109 am   BACKBONE|DICT|INTERRES
   215  109  110 1    
   216  109  230 1    
   217  110  111 1    
   218  110  112 1    
   219  110  231 1    
   220  111  232 1    
   221  111  233 1    
   222  111  234 1    
   223  112  113 2    
   224  112  114 am   BACKBONE|DICT|INTERRES
   225  114  115 1    
   226  114  235 1    
   227  115  116 1    
   228  115  117 1    
   229  115  236 1    
   230  116  237 1    
   231  116  238 1    
   232  116  239 1    
   233  117  118 2    
   234  117  119 am   BACKBONE|DICT|INTERRES
   235  119  120 1    
   236  119  240 1    
   237  120  121 1    
   238  120  124 1    
   239  120  241 1    
   240  121  122 am   BACKBONE|DICT|INTERRES
   241  121  123 2    
   242  122  242 1    
   243  122  243 1    
   244  124  125 1    
   245  124  244 1    
   246  124  245 1    
   247  125  126 1    
   248  126  246 1    
   249  126  247 1    
@<TRIPOS>SUBSTRUCTURE
     1 UNK         1 GROUP             0       ****    0 ROOT    
