@<TRIPOS>MOLECULE
3R540
247   249    1
SMALL
USER_CHARGES


@<TRIPOS>ATOM
      1 CA          7.1106  -13.0020  -43.6310 C.3       0 UNK        -0.1800 
      2 C           6.0573  -13.4779  -44.6204 C.2       0 UNK         0.5000 
      3 O           4.8736  -13.1917  -44.4420 O.2       0 UNK        -0.5000 
      4 N           6.4798  -14.1865  -45.6775 N.am      1 UNK        -0.5000 
      5 CA          5.6060  -14.7592  -46.7148 C.3       1 UNK         0.1400 
      6 C6          6.3662  -15.7758  -47.6119 C.3       23 UNK        -0.0398 
      7 S7          5.4233  -17.3195  -47.8400 S.3       23 UNK        -0.2404 
      8 C8          4.8333  -17.1476  -49.5522 C.3       23 UNK        -0.0205 
      9 C9          3.6109  -18.0182  -49.8046 C.ar      23 UNK        -0.0193 
     10 C10         2.3601  -17.4289  -50.0029 C.ar      23 UNK        -0.1150 
     11 C11         1.2326  -18.2189  -50.2361 C.ar      23 UNK        -0.0193 
     12 C12         1.3622  -19.6103  -50.2735 C.ar      23 UNK        -0.1150 
     13 C13         2.6024  -20.2210  -50.0425 C.ar      23 UNK        -0.0193 
     14 C14         3.7235  -19.4117  -49.8278 C.ar      23 UNK        -0.1150 
     15 C15         2.7789  -21.7430  -50.0069 C.3       23 UNK        -0.0205 
     16 S16         1.2861  -22.7162  -49.5859 S.3       23 UNK        -0.2404 
     17 C17         0.7494  -21.9562  -48.0128 C.3       23 UNK        -0.0398 
     18 CA          0.5683  -22.9259  -46.8215 C.3       11 UNK         0.1400 
     19 N           0.4389  -22.1584  -45.5782 N.am      11 UNK        -0.5000 
     20 C           0.4698  -22.6375  -44.3282 C.2       10 UNK         0.5000 
     21 O           0.6153  -23.8292  -44.0537 O.2       10 UNK        -0.5000 
     22 CA          0.2653  -21.6034  -43.2050 C.3       10 UNK         0.1400 
     23 CB          1.5561  -20.8116  -42.9443 C.3       10 UNK        -0.1800 
     24 N          -0.8211  -20.6726  -43.5212 N.am      10 UNK        -0.5000 
     25 C          -2.1225  -20.9634  -43.3865 C.2       9 UNK         0.5000 
     26 O          -2.5340  -22.0154  -42.8987 O.2       9 UNK        -0.5000 
     27 CA         -3.1423  -19.9222  -43.8922 C.3       9 UNK         0.1400 
     28 CB         -3.5149  -18.9370  -42.7748 C.3       9 UNK        -0.1800 
     29 N          -2.6852  -19.1746  -45.0643 N.am      9 UNK        -0.5000 
     30 C          -2.4591  -19.7139  -46.2704 C.2       8 UNK         0.5000 
     31 O          -2.6411  -20.8998  -46.5377 O.2       8 UNK        -0.5000 
     32 CA         -1.8824  -18.7807  -47.3476 C.3       8 UNK         0.1400 
     33 CB         -3.0058  -17.9790  -48.0220 C.3       8 UNK        -0.1800 
     34 N          -0.8686  -17.8652  -46.8234 N.am      8 UNK        -0.5000 
     35 C           0.2756  -18.2354  -46.2297 C.2       7 UNK         0.5000 
     36 O           0.6191  -19.4056  -46.0808 O.2       7 UNK        -0.5000 
     37 CA          1.1437  -17.1182  -45.6303 C.3       7 UNK         0.1400 
     38 CB          1.9107  -16.3593  -46.7165 C.3       7 UNK        -0.1800 
     39 N           0.3456  -16.1764  -44.8530 N.am      7 UNK        -0.5000 
     40 C          -0.2480  -16.4657  -43.6873 C.2       6 UNK         0.5000 
     41 O          -0.1408  -17.5489  -43.1126 O.2       6 UNK        -0.5000 
     42 CA         -1.1396  -15.3639  -43.0862 C.3       6 UNK         0.1400 
     43 CB         -0.3238  -14.4563  -42.1540 C.3       6 UNK        -0.1800 
     44 N          -1.7831  -14.5467  -44.1179 N.am      6 UNK        -0.5000 
     45 C          -2.7391  -14.9965  -44.9428 C.2       5 UNK         0.5000 
     46 O          -3.2035  -16.1363  -44.8953 O.2       5 UNK        -0.5000 
     47 CA         -3.2051  -14.0206  -46.0366 C.3       5 UNK         0.1400 
     48 CB         -4.1145  -12.9292  -45.4526 C.3       5 UNK        -0.1800 
     49 N          -2.0812  -13.3973  -46.7401 N.am      5 UNK        -0.5000 
     50 C          -1.2374  -14.0474  -47.5497 C.2       4 UNK         0.5000 
     51 O          -1.3006  -15.2565  -47.7535 O.2       4 UNK        -0.5000 
     52 CA         -0.1254  -13.2350  -48.2355 C.3       4 UNK         0.1400 
     53 CB         -0.7018  -12.2092  -49.2297 C.3       4 UNK        -0.1800 
     54 N           0.8282  -12.6153  -47.3094 N.am      4 UNK        -0.5000 
     55 C           0.6169  -11.6387  -46.4129 C.2       3 UNK         0.5000 
     56 O          -0.4868  -11.1451  -46.1771 O.2       3 UNK        -0.5000 
     57 CA          1.8494  -11.1158  -45.6457 C.3       3 UNK         0.1400 
     58 CB          1.9114  -11.7571  -44.2516 C.3       3 UNK        -0.1800 
     59 N           3.1220  -11.3482  -46.3365 N.am      3 UNK        -0.5000 
     60 C           3.4706  -10.8050  -47.5149 C.2       2 UNK         0.5000 
     61 O           2.7776   -9.9774  -48.1076 O.2       2 UNK        -0.5000 
     62 CA          4.8002  -11.2596  -48.1576 C.3       2 UNK         0.1400 
     63 CB          5.8361  -10.1252  -48.1115 C.3       2 UNK        -0.1800 
     64 N           5.3910  -12.4538  -47.5499 N.am      2 UNK        -0.5000 
     65 C           4.8633  -13.6868  -47.5503 C.2       1 UNK         0.5000 
     66 O           3.8136  -13.9718  -48.1278 O.2       1 UNK        -0.5000 
     67 C          -0.5935  -23.9267  -47.0356 C.2       11 UNK         0.5000 
     68 O          -0.4111  -24.9105  -47.7519 O.2       11 UNK        -0.5000 
     69 N          -1.7338  -23.7048  -46.3613 N.am      12 UNK        -0.5000 
     70 CA         -2.9372  -24.5459  -46.3295 C.3       12 UNK         0.1400 
     71 CB         -3.9108  -23.9765  -45.2880 C.3       12 UNK        -0.1800 
     72 C          -2.6890  -26.0411  -46.0335 C.2       12 UNK         0.5000 
     73 O          -3.4752  -26.8859  -46.4631 O.2       12 UNK        -0.5000 
     74 N          -1.6089  -26.3424  -45.3001 N.am      13 UNK        -0.5000 
     75 CA         -1.1646  -27.7003  -44.9912 C.3       13 UNK         0.1400 
     76 CB         -0.2219  -27.6400  -43.7793 C.3       13 UNK        -0.1800 
     77 C          -0.4701  -28.4067  -46.1746 C.2       13 UNK         0.5000 
     78 O          -0.4182  -29.6374  -46.1842 O.2       13 UNK        -0.5000 
     79 N           0.0695  -27.6362  -47.1289 N.am      14 UNK        -0.5000 
     80 CA          0.8379  -28.1319  -48.2712 C.3       14 UNK         0.1400 
     81 CB          2.0971  -27.2651  -48.4369 C.3       14 UNK        -0.1800 
     82 C           0.0168  -28.1274  -49.5712 C.2       14 UNK         0.5000 
     83 O           0.1815  -29.0339  -50.3891 O.2       14 UNK        -0.5000 
     84 N          -0.8444  -27.1201  -49.7485 N.am      15 UNK        -0.5000 
     85 CA         -1.6847  -26.9211  -50.9269 C.3       15 UNK         0.1400 
     86 CB         -0.8791  -26.1759  -52.0069 C.3       15 UNK        -0.1800 
     87 C          -2.9298  -26.1212  -50.5254 C.2       15 UNK         0.5000 
     88 O          -2.9504  -25.5271  -49.4491 O.2       15 UNK        -0.5000 
     89 N          -3.9366  -26.0621  -51.4059 N.am      16 UNK        -0.5000 
     90 CA         -5.2066  -25.3458  -51.2089 C.3       16 UNK         0.1400 
     91 CB         -6.2436  -25.9086  -52.1974 C.3       16 UNK        -0.1800 
     92 C          -5.0874  -23.8032  -51.3002 C.2       16 UNK         0.5000 
     93 O          -5.9807  -23.1410  -51.8320 O.2       16 UNK        -0.5000 
     94 N          -3.9876  -23.2490  -50.7771 N.am      17 UNK        -0.5000 
     95 CA         -3.6197  -21.8361  -50.8350 C.3       17 UNK         0.1400 
     96 CB         -2.2201  -21.6587  -50.2374 C.3       17 UNK        -0.1800 
     97 C          -4.6185  -20.9094  -50.1283 C.2       17 UNK         0.5000 
     98 O          -4.8744  -19.8154  -50.6280 O.2       17 UNK        -0.5000 
     99 N          -5.1768  -21.3648  -48.9986 N.am      18 UNK        -0.5000 
    100 CA        -6.1866  -20.6377  -48.2274 C.3       18 UNK         0.1400 
    101 CB        -6.3446  -21.2870  -46.8455 C.3       18 UNK        -0.1800 
    102 C         -7.5414  -20.5483  -48.9518 C.2       18 UNK         0.5000 
    103 O         -8.2096  -19.5192  -48.8561 O.2       18 UNK        -0.5000 
    104 N         -7.9063  -21.6074  -49.6885 N.am      19 UNK        -0.5000 
    105 CA        -9.1120  -21.6565  -50.5182 C.3       19 UNK         0.1400 
    106 CB        -9.4348  -23.1163  -50.8713 C.3       19 UNK        -0.1800 
    107 C         -8.9620  -20.8038  -51.7904 C.2       19 UNK         0.5000 
    108 O         -9.9119  -20.1313  -52.1922 O.2       19 UNK        -0.5000 
    109 N         -7.7582  -20.8231  -52.3779 N.am      20 UNK        -0.5000 
    110 CA        -7.3741  -20.0114  -53.5330 C.3       20 UNK         0.1400 
    111 CB        -6.1137  -20.6276  -54.1610 C.3       20 UNK        -0.1800 
    112 C         -7.1218  -18.5284  -53.1912 C.2       20 UNK         0.5000 
    113 O         -7.0113  -17.7163  -54.1103 O.2       20 UNK        -0.5000 
    114 N         -6.9758  -18.2086  -51.8958 N.am      21 UNK        -0.5000 
    115 CA        -6.5797  -16.9113  -51.3313 C.3       21 UNK         0.1400 
    116 CB        -7.7048  -15.8729  -51.5158 C.3       21 UNK        -0.1800 
    117 C         -5.2132  -16.4308  -51.8707 C.2       21 UNK         0.5000 
    118 O         -5.0370  -15.2484  -52.1687 O.2       21 UNK        -0.5000 
    119 N         -4.2863  -17.3853  -52.0238 N.am      22 UNK        -0.5000 
    120 CA        -2.9839  -17.2502  -52.6956 C.3       22 UNK         0.1400 
    121 C         -3.0569  -17.0269  -54.2421 C.2       22 UNK         0.5000 
    122 N         -4.2117  -17.1341  -54.8894 N.am      22 UNK        -0.7600 
    123 O         -2.0409  -16.7816  -54.8858 O.2       22 UNK        -0.5000 
    124 C124       -2.0409  -16.2427  -51.9740 C.3       23 UNK        -0.0398 
    125 S125       -0.2897  -16.7580  -52.0283 S.3       23 UNK        -0.2404 
    126 C126       -0.1287  -17.5670  -50.4109 C.3       23 UNK        -0.0205 
    127 H127        7.1014  -11.9138  -43.5687 H         1 UNK         0.0600 
    128 H128        8.1127  -13.3184  -43.9214 H         1 UNK         0.0600 
    129 H129        6.9008  -13.4031  -42.6395 H         1 UNK         0.0600 
    130 H130        7.4668  -14.3797  -45.7749 H         1 UNK         0.3000 
    131 H131        4.8310  -15.2960  -46.1643 H         1 UNK         0.0600 
    132 H132        6.6483  -15.3516  -48.5775 H         1 UNK         0.0800 
    133 H133        7.3078  -16.0690  -47.1456 H         1 UNK         0.0800 
    134 H134        4.5964  -16.1019  -49.7541 H         1 UNK         0.0800 
    135 H135        5.6320  -17.4245  -50.2416 H         1 UNK         0.0800 
    136 H136        2.2595  -16.3528  -49.9697 H         1 UNK         0.1150 
    137 H137        0.4881  -20.2153  -50.4605 H         1 UNK         0.1150 
    138 H138        4.6896  -19.8665  -49.6580 H         1 UNK         0.1150 
    139 H139        3.1396  -22.0706  -50.9825 H         1 UNK         0.0800 
    140 H140        3.5577  -22.0023  -49.2880 H         1 UNK         0.0800 
    141 H141       -0.1675  -21.3962  -48.1890 H         1 UNK         0.0800 
    142 H142        1.4971  -21.2114  -47.7396 H         1 UNK         0.0800 
    143 H143        1.4805  -23.5191  -46.7313 H         1 UNK         0.0600 
    144 H144        0.3593  -21.1499  -45.6972 H         1 UNK         0.3000 
    145 H145        0.0140  -22.1450  -42.2905 H         1 UNK         0.0600 
    146 H146        1.4268  -20.1115  -42.1186 H         1 UNK         0.0600 
    147 H147        1.8668  -20.2393  -43.8188 H         1 UNK         0.0600 
    148 H148        2.3767  -21.4798  -42.6803 H         1 UNK         0.0600 
    149 H149       -0.5584  -19.7743  -43.9061 H         1 UNK         0.3000 
    150 H150       -4.0459  -20.4639  -44.1791 H         1 UNK         0.0600 
    151 H151       -3.9098  -19.4641  -41.9055 H         1 UNK         0.0600 
    152 H152       -4.2810  -18.2356  -43.1062 H         1 UNK         0.0600 
    153 H153       -2.6525  -18.3586  -42.4436 H         1 UNK         0.0600 
    154 H154       -2.5555  -18.1757  -44.9486 H         1 UNK         0.3000 
    155 H155       -1.4041  -19.4018  -48.1053 H         1 UNK         0.0600 
    156 H156       -3.7550  -18.6420  -48.4485 H         1 UNK         0.0600 
    157 H157       -2.6274  -17.3616  -48.8346 H         1 UNK         0.0600 
    158 H158       -3.5137  -17.3216  -47.3163 H         1 UNK         0.0600 
    159 H159       -1.0594  -16.8738  -46.9503 H         1 UNK         0.3000 
    160 H160        1.8732  -17.5785  -44.9603 H         1 UNK         0.0600 
    161 H161        1.2526  -15.9503  -47.4815 H         1 UNK         0.0600 
    162 H162        2.6123  -17.0255  -47.2144 H         1 UNK         0.0600 
    163 H163        2.4833  -15.5364  -46.2912 H         1 UNK         0.0600 
    164 H164        0.1749  -15.2730  -45.2655 H         1 UNK         0.3000 
    165 H165       -1.9198  -15.8497  -42.4962 H         1 UNK         0.0600 
    166 H166       -0.9546  -13.6995  -41.6874 H         1 UNK         0.0600 
    167 H167        0.1352  -15.0354  -41.3517 H         1 UNK         0.0600 
    168 H168        0.4774  -13.9447  -42.6875 H         1 UNK         0.0600 
    169 H169       -1.4597  -13.5963  -44.2225 H         1 UNK         0.3000 
    170 H170       -3.7854  -14.5921  -46.7643 H         1 UNK         0.0600 
    171 H171       -3.5804  -12.2901  -44.7484 H         1 UNK         0.0600 
    172 H172       -4.5190  -12.2931  -46.2400 H         1 UNK         0.0600 
    173 H173       -4.9611  -13.3681  -44.9230 H         1 UNK         0.0600 
    174 H174       -1.9004  -12.4130  -46.5658 H         1 UNK         0.3000 
    175 H175        0.4609  -13.9463  -48.8201 H         1 UNK         0.0600 
    176 H176       -1.3013  -11.4450  -48.7348 H         1 UNK         0.0600 
    177 H177        0.0949  -11.7048  -49.7767 H         1 UNK         0.0600 
    178 H178       -1.3412  -12.6991  -49.9652 H         1 UNK         0.0600 
    179 H179        1.7797  -12.9488  -47.4032 H         1 UNK         0.3000 
    180 H180        1.7256  -10.0379  -45.5234 H         1 UNK         0.0600 
    181 H181        2.7315  -11.3444  -43.6637 H         1 UNK         0.0600 
    182 H182        2.0554  -12.8366  -44.3134 H         1 UNK         0.0600 
    183 H183        0.9910  -11.5771  -43.6945 H         1 UNK         0.0600 
    184 H184        3.7593  -11.9992  -45.8923 H         1 UNK         0.3000 
    185 H185        4.5883  -11.4890  -49.2038 H         1 UNK         0.0600 
    186 H186        6.1000   -9.8641  -47.0859 H         1 UNK         0.0600 
    187 H187        6.7512  -10.4040  -48.6344 H         1 UNK         0.0600 
    188 H188        5.4528   -9.2237  -48.5914 H         1 UNK         0.0600 
    189 H189        6.2460  -12.3126  -47.0319 H         1 UNK         0.3000 
    190 H190       -1.8069  -22.8261  -45.8648 H         1 UNK         0.3000 
    191 H191       -3.4170  -24.4591  -47.3020 H         1 UNK         0.0600 
    192 H192       -4.1026  -22.9185  -45.4566 H         1 UNK         0.0600 
    193 H193       -3.5215  -24.0877  -44.2756 H         1 UNK         0.0600 
    194 H194       -4.8711  -24.4920  -45.3280 H         1 UNK         0.0600 
    195 H195       -1.0201  -25.5856  -44.9784 H         1 UNK         0.3000 
    196 H196       -2.0356  -28.2984  -44.7151 H         1 UNK         0.0600 
    197 H197       -0.7223  -27.2106  -42.9112 H         1 UNK         0.0600 
    198 H198        0.6627  -27.0367  -43.9884 H         1 UNK         0.0600 
    199 H199        0.1187  -28.6372  -43.4971 H         1 UNK         0.0600 
    200 H200       -0.0790  -26.6312  -47.0977 H         1 UNK         0.3000 
    201 H201        1.1640  -29.1581  -48.0894 H         1 UNK         0.0600 
    202 H202        2.7160  -27.2947  -47.5401 H         1 UNK         0.0600 
    203 H203        1.8478  -26.2221  -48.6373 H         1 UNK         0.0600 
    204 H204        2.7091  -27.6207  -49.2667 H         1 UNK         0.0600 
    205 H205       -0.9472  -26.4068  -49.0305 H         1 UNK         0.3000 
    206 H206       -2.0152  -27.8882  -51.3111 H         1 UNK         0.0600 
    207 H207       -0.5375  -25.2033  -51.6492 H         1 UNK         0.0600 
    208 H208       -0.0010  -26.7464  -52.3099 H         1 UNK         0.0600 
    209 H209       -1.4775  -26.0061  -52.9026 H         1 UNK         0.0600 
    210 H210       -3.8330  -26.5372  -52.2909 H         1 UNK         0.3000 
    211 H211       -5.5628  -25.5662  -50.2005 H         1 UNK         0.0600 
    212 H212       -5.9702  -25.6926  -53.2309 H         1 UNK         0.0600 
    213 H213       -7.2308  -25.4804  -52.0218 H         1 UNK         0.0600 
    214 H214       -6.3423  -26.9893  -52.0941 H         1 UNK         0.0600 
    215 H215       -3.3440  -23.8736  -50.3002 H         1 UNK         0.3000 
    216 H216       -3.5841  -21.5442  -51.8862 H         1 UNK         0.0600 
    217 H217       -1.9136  -20.6128  -50.2612 H         1 UNK         0.0600 
    218 H218       -1.4791  -22.2294  -50.7969 H         1 UNK         0.0600 
    219 H219       -2.1887  -21.9924  -49.1996 H         1 UNK         0.0600 
    220 H220       -4.8906  -22.2666  -48.6482 H         1 UNK         0.3000 
    221 H221       -5.8351  -19.6156  -48.0765 H         1 UNK         0.0600 
    222 H222       -6.5978  -22.3451  -46.9196 H         1 UNK         0.0600 
    223 H223       -5.4249  -21.1969  -46.2692 H         1 UNK         0.0600 
    224 H224       -7.1317  -20.7984  -46.2697 H         1 UNK         0.0600 
    225 H225       -7.2796  -22.3962  -49.7498 H         1 UNK         0.3000 
    226 H226       -9.9476  -21.2554  -49.9404 H         1 UNK         0.0600 
    227 H227       -9.5710  -23.7194  -49.9735 H         1 UNK         0.0600 
    228 H228      -10.3572  -23.1809  -51.4496 H         1 UNK         0.0600 
    229 H229       -8.6441  -23.5726  -51.4665 H         1 UNK         0.0600 
    230 H230       -7.0556  -21.4646  -52.0230 H         1 UNK         0.3000 
    231 H231       -8.1796  -20.0485  -54.2691 H         1 UNK         0.0600 
    232 H232       -5.8180  -20.0875  -55.0614 H         1 UNK         0.0600 
    233 H233       -6.2816  -21.6666  -54.4456 H         1 UNK         0.0600 
    234 H234       -5.2696  -20.6022  -53.4712 H         1 UNK         0.0600 
    235 H235       -7.0198  -18.9691  -51.2316 H         1 UNK         0.3000 
    236 H236       -6.4463  -17.0714  -50.2603 H         1 UNK         0.0600 
    237 H237       -7.8615  -15.6272  -52.5665 H         1 UNK         0.0600 
    238 H238       -8.6485  -16.2409  -51.1130 H         1 UNK         0.0600 
    239 H239       -7.4695  -14.9447  -50.9939 H         1 UNK         0.0600 
    240 H240       -4.5218  -18.3204  -51.6989 H         1 UNK         0.3000 
    241 H241       -2.5475  -18.2440  -52.5895 H         1 UNK         0.0600 
    242 H242       -5.0853  -17.3099  -54.4063 H         1 UNK         0.3800 
    243 H243       -4.2228  -16.9947  -55.8871 H         1 UNK         0.3800 
    244 H244       -2.3278  -16.1285  -50.9279 H         1 UNK         0.0800 
    245 H245       -2.1325  -15.2447  -52.4059 H         1 UNK         0.0800 
    246 H246       -0.2786  -16.8309  -49.6208 H         1 UNK         0.0800 
    247 H247       -0.9210  -18.3082  -50.3048 H         1 UNK         0.0800 
@<TRIPOS>BOND
     1    1    2 1    
     2    1  127 1    
     3    1  128 1    
     4    1  129 1    
     5    2    3 2    
     6    2    4 am   BACKBONE|DICT|INTERRES
     7    4    5 1    
     8    4  130 1    
     9    5    6 1    
    10    5   65 1    
    11    5  131 1    
    12    6    7 1    
    13    6  132 1    
    14    6  133 1    
    15    7    8 1    
    16    8    9 1    
    17    8  134 1    
    18    8  135 1    
    19    9   10 ar   
    20    9   14 ar   
    21   10   11 ar   
    22   10  136 1    
    23   11   12 ar   
    24   11  126 1    
    25   12   13 ar   
    26   12  137 1    
    27   13   14 ar   
    28   13   15 1    
    29   14  138 1    
    30   15   16 1    
    31   15  139 1    
    32   15  140 1    
    33   16   17 1    
    34   17   18 1    
    35   17  141 1    
    36   17  142 1    
    37   18   19 1    
    38   18   67 1    
    39   18  143 1    
    40   19   20 am   BACKBONE|DICT|INTERRES
    41   19  144 1    
    42   20   21 2    
    43   20   22 1    
    44   22   23 1    
    45   22   24 1    
    46   22  145 1    
    47   23  146 1    
    48   23  147 1    
    49   23  148 1    
    50   24   25 am   BACKBONE|DICT|INTERRES
    51   24  149 1    
    52   25   26 2    
    53   25   27 1    
    54   27   28 1    
    55   27   29 1    
    56   27  150 1    
    57   28  151 1    
    58   28  152 1    
    59   28  153 1    
    60   29   30 am   BACKBONE|DICT|INTERRES
    61   29  154 1    
    62   30   31 2    
    63   30   32 1    
    64   32   33 1    
    65   32   34 1    
    66   32  155 1    
    67   33  156 1    
    68   33  157 1    
    69   33  158 1    
    70   34   35 am   BACKBONE|DICT|INTERRES
    71   34  159 1    
    72   35   36 2    
    73   35   37 1    
    74   37   38 1    
    75   37   39 1    
    76   37  160 1    
    77   38  161 1    
    78   38  162 1    
    79   38  163 1    
    80   39   40 am   BACKBONE|DICT|INTERRES
    81   39  164 1    
    82   40   41 2    
    83   40   42 1    
    84   42   43 1    
    85   42   44 1    
    86   42  165 1    
    87   43  166 1    
    88   43  167 1    
    89   43  168 1    
    90   44   45 am   BACKBONE|DICT|INTERRES
    91   44  169 1    
    92   45   46 2    
    93   45   47 1    
    94   47   48 1    
    95   47   49 1    
    96   47  170 1    
    97   48  171 1    
    98   48  172 1    
    99   48  173 1    
   100   49   50 am   BACKBONE|DICT|INTERRES
   101   49  174 1    
   102   50   51 2    
   103   50   52 1    
   104   52   53 1    
   105   52   54 1    
   106   52  175 1    
   107   53  176 1    
   108   53  177 1    
   109   53  178 1    
   110   54   55 am   BACKBONE|DICT|INTERRES
   111   54  179 1    
   112   55   56 2    
   113   55   57 1    
   114   57   58 1    
   115   57   59 1    
   116   57  180 1    
   117   58  181 1    
   118   58  182 1    
   119   58  183 1    
   120   59   60 am   BACKBONE|DICT|INTERRES
   121   59  184 1    
   122   60   61 2    
   123   60   62 1    
   124   62   63 1    
   125   62   64 1    
   126   62  185 1    
   127   63  186 1    
   128   63  187 1    
   129   63  188 1    
   130   64   65 am   BACKBONE|DICT|INTERRES
   131   64  189 1    
   132   65   66 2    
   133   67   68 2    
   134   67   69 am   BACKBONE|DICT|INTERRES
   135   69   70 1    
   136   69  190 1    
   137   70   71 1    
   138   70   72 1    
   139   70  191 1    
   140   71  192 1    
   141   71  193 1    
   142   71  194 1    
   143   72   73 2    
   144   72   74 am   BACKBONE|DICT|INTERRES
   145   74   75 1    
   146   74  195 1    
   147   75   76 1    
   148   75   77 1    
   149   75  196 1    
   150   76  197 1    
   151   76  198 1    
   152   76  199 1    
   153   77   78 2    
   154   77   79 am   BACKBONE|DICT|INTERRES
   155   79   80 1    
   156   79  200 1    
   157   80   81 1    
   158   80   82 1    
   159   80  201 1    
   160   81  202 1    
   161   81  203 1    
   162   81  204 1    
   163   82   83 2    
   164   82   84 am   BACKBONE|DICT|INTERRES
   165   84   85 1    
   166   84  205 1    
   167   85   86 1    
   168   85   87 1    
   169   85  206 1    
   170   86  207 1    
   171   86  208 1    
   172   86  209 1    
   173   87   88 2    
   174   87   89 am   BACKBONE|DICT|INTERRES
   175   89   90 1    
   176   89  210 1    
   177   90   91 1    
   178   90   92 1    
   179   90  211 1    
   180   91  212 1    
   181   91  213 1    
   182   91  214 1    
   183   92   93 2    
   184   92   94 am   BACKBONE|DICT|INTERRES
   185   94   95 1    
   186   94  215 1    
   187   95   96 1    
   188   95   97 1    
   189   95  216 1    
   190   96  217 1    
   191   96  218 1    
   192   96  219 1    
   193   97   98 2    
   194   97   99 am   BACKBONE|DICT|INTERRES
   195   99  100 1    
   196   99  220 1    
   197  100  101 1    
   198  100  102 1    
   199  100  221 1    
   200  101  222 1    
   201  101  223 1    
   202  101  224 1    
   203  102  103 2    
   204  102  104 am   BACKBONE|DICT|INTERRES
   205  104  105 1    
   206  104  225 1    
   207  105  106 1    
   208  105  107 1    
   209  105  226 1    
   210  106  227 1    
   211  106  228 1    
   212  106  229 1    
   213  107  108 2    
   214  107  109 am   BACKBONE|DICT|INTERRES
   215  109  110 1    
   216  109  230 1    
   217  110  111 1    
   218  110  112 1    
   219  110  231 1    
   220  111  232 1    
   221  111  233 1    
   222  111  234 1    
   223  112  113 2    
   224  112  114 am   BACKBONE|DICT|INTERRES
   225  114  115 1    
   226  114  235 1    
   227  115  116 1    
   228  115  117 1    
   229  115  236 1    
   230  116  237 1    
   231  116  238 1    
   232  116  239 1    
   233  117  118 2    
   234  117  119 am   BACKBONE|DICT|INTERRES
   235  119  120 1    
   236  119  240 1    
   237  120  121 1    
   238  120  124 1    
   239  120  241 1    
   240  121  122 am   BACKBONE|DICT|INTERRES
   241  121  123 2    
   242  122  242 1    
   243  122  243 1    
   244  124  125 1    
   245  124  244 1    
   246  124  245 1    
   247  125  126 1    
   248  126  246 1    
   249  126  247 1    
@<TRIPOS>SUBSTRUCTURE
     1 UNK         1 GROUP             0       ****    0 ROOT    
