@<TRIPOS>MOLECULE
3R540
247   249    1
SMALL
USER_CHARGES


@<TRIPOS>ATOM
      1 CA         -2.4057  -10.9631  -49.0530 C.3       0 UNK        -0.1800 
      2 C          -2.0602  -12.4330  -48.8647 C.2       0 UNK         0.5000 
      3 O          -0.8809  -12.7834  -48.8361 O.2       0 UNK        -0.5000 
      4 N          -3.0830  -13.2877  -48.7172 N.am      1 UNK        -0.5000 
      5 CA         -2.9794  -14.7474  -48.5503 C.3       1 UNK         0.1400 
      6 C6         -4.3875  -15.4014  -48.5330 C.3       23 UNK        -0.0398 
      7 S7         -4.4294  -17.0649  -49.2795 S.3       23 UNK        -0.2404 
      8 C8         -5.0164  -18.0940  -47.8892 C.3       23 UNK        -0.0205 
      9 C9         -5.5783  -19.4481  -48.3217 C.ar      23 UNK        -0.0193 
     10 C10        -6.4274  -19.5534  -49.4300 C.ar      23 UNK        -0.1150 
     11 C11        -6.9855  -20.7822  -49.7926 C.ar      23 UNK        -0.0193 
     12 C12        -6.6902  -21.9183  -49.0348 C.ar      23 UNK        -0.1150 
     13 C13        -5.8565  -21.8322  -47.9163 C.ar      23 UNK        -0.0193 
     14 C14        -5.3074  -20.5938  -47.5640 C.ar      23 UNK        -0.1150 
     15 C15        -5.6050  -23.0702  -47.0649 C.3       23 UNK        -0.0205 
     16 S16        -4.0643  -23.9325  -47.5256 S.3       23 UNK        -0.2404 
     17 C17        -2.9756  -23.4979  -46.1285 C.3       23 UNK        -0.0398 
     18 CA         -2.2005  -22.1806  -46.3792 C.3       11 UNK         0.1400 
     19 N          -2.2752  -21.2691  -45.2356 N.am      11 UNK        -0.5000 
     20 C          -2.0789  -19.9487  -45.3374 C.2       10 UNK         0.5000 
     21 O          -1.7254  -19.4200  -46.3881 O.2       10 UNK        -0.5000 
     22 CA         -2.2770  -19.0568  -44.0947 C.3       10 UNK         0.1400 
     23 CB         -3.2651  -17.9056  -44.3747 C.3       10 UNK        -0.1800 
     24 N          -2.6231  -19.7716  -42.8630 N.am      10 UNK        -0.5000 
     25 C          -3.7571  -20.4163  -42.5573 C.2       9 UNK         0.5000 
     26 O          -4.7484  -20.4639  -43.2863 O.2       9 UNK        -0.5000 
     27 CA         -3.7243  -21.1874  -41.2202 C.3       9 UNK         0.1400 
     28 CB         -4.9287  -22.1347  -41.0382 C.3       9 UNK        -0.1800 
     29 N          -2.4585  -21.9123  -41.0341 N.am      9 UNK        -0.5000 
     30 C          -1.9446  -22.8447  -41.8518 C.2       8 UNK         0.5000 
     31 O          -2.4984  -23.2356  -42.8802 O.2       8 UNK        -0.5000 
     32 CA         -0.5449  -23.3728  -41.4792 C.3       8 UNK         0.1400 
     33 CB          0.0012  -24.3875  -42.5026 C.3       8 UNK        -0.1800 
     34 N           0.4226  -22.2909  -41.2587 N.am      8 UNK        -0.5000 
     35 C           0.7508  -21.3014  -42.1026 C.2       7 UNK         0.5000 
     36 O           0.2923  -21.1662  -43.2413 O.2       7 UNK        -0.5000 
     37 CA          1.7758  -20.2811  -41.5722 C.3       7 UNK         0.1400 
     38 CB          3.1171  -20.4391  -42.3036 C.3       7 UNK        -0.1800 
     39 N           1.3241  -18.8974  -41.7127 N.am      7 UNK        -0.5000 
     40 C           0.1725  -18.3834  -41.2679 C.2       6 UNK         0.5000 
     41 O          -0.6694  -19.0382  -40.6485 O.2       6 UNK        -0.5000 
     42 CA         -0.0896  -16.8966  -41.5960 C.3       6 UNK         0.1400 
     43 CB         -1.4307  -16.4007  -41.0247 C.3       6 UNK        -0.1800 
     44 N           0.9710  -15.9873  -41.1514 N.am      6 UNK        -0.5000 
     45 C           2.1698  -15.8336  -41.7285 C.2       5 UNK         0.5000 
     46 O           2.6075  -16.5644  -42.6208 O.2       5 UNK        -0.5000 
     47 CA          3.0243  -14.6585  -41.2423 C.3       5 UNK         0.1400 
     48 CB          4.1925  -15.1504  -40.3684 C.3       5 UNK        -0.1800 
     49 N           3.5193  -13.9567  -42.4223 N.am      5 UNK        -0.5000 
     50 C           4.0096  -12.7120  -42.4494 C.2       4 UNK         0.5000 
     51 O           4.1152  -11.9998  -41.4498 O.2       4 UNK        -0.5000 
     52 CA          4.4673  -12.1632  -43.8160 C.3       4 UNK         0.1400 
     53 CB          5.9674  -12.4266  -44.0211 C.3       4 UNK        -0.1800 
     54 N           3.7271  -12.7343  -44.9432 N.am      4 UNK        -0.5000 
     55 C           2.5015  -12.3483  -45.3243 C.2       3 UNK         0.5000 
     56 O           1.8882  -11.4185  -44.7949 O.2       3 UNK        -0.5000 
     57 CA          1.8432  -13.1158  -46.4974 C.3       3 UNK         0.1400 
     58 CB          2.6513  -14.3411  -46.9805 C.3       3 UNK        -0.1800 
     59 N           0.4602  -13.5103  -46.2058 N.am      3 UNK        -0.5000 
     60 C           0.0322  -14.1990  -45.1358 C.2       2 UNK         0.5000 
     61 O           0.7760  -14.6032  -44.2466 O.2       2 UNK        -0.5000 
     62 CA         -1.4754  -14.4883  -45.0082 C.3       2 UNK         0.1400 
     63 CB         -2.1058  -13.5843  -43.9378 C.3       2 UNK        -0.1800 
     64 N          -2.2258  -14.3330  -46.2530 N.am      2 UNK        -0.5000 
     65 C          -2.1545  -15.1567  -47.3085 C.2       1 UNK         0.5000 
     66 O          -1.4586  -16.1695  -47.3377 O.2       1 UNK        -0.5000 
     67 C          -0.7510  -22.4210  -46.8407 C.2       11 UNK         0.5000 
     68 O          -0.4978  -22.4381  -48.0460 O.2       11 UNK        -0.5000 
     69 N           0.1878  -22.5469  -45.8902 N.am      12 UNK        -0.5000 
     70 CA          1.6199  -22.6497  -46.1849 C.3       12 UNK         0.1400 
     71 CB          2.3735  -23.3037  -45.0184 C.3       12 UNK        -0.1800 
     72 C           2.2220  -21.2808  -46.5396 C.2       12 UNK         0.5000 
     73 O           3.1411  -21.2233  -47.3559 O.2       12 UNK        -0.5000 
     74 N           1.6534  -20.2011  -45.9814 N.am      13 UNK        -0.5000 
     75 CA          1.9578  -18.8155  -46.3537 C.3       13 UNK         0.1400 
     76 CB          1.2265  -17.8593  -45.4041 C.3       13 UNK        -0.1800 
     77 C           1.5961  -18.5181  -47.8236 C.2       13 UNK         0.5000 
     78 O           2.3533  -17.8393  -48.5165 O.2       13 UNK        -0.5000 
     79 N           0.4886  -19.1116  -48.2875 N.am      14 UNK        -0.5000 
     80 CA          0.0314  -19.1285  -49.6752 C.3       14 UNK         0.1400 
     81 CB         -1.4919  -19.3291  -49.6835 C.3       14 UNK        -0.1800 
     82 C           0.7361  -20.1917  -50.5477 C.2       14 UNK         0.5000 
     83 O           0.2520  -20.4735  -51.6446 O.2       14 UNK        -0.5000 
     84 N           1.8466  -20.7709  -50.0650 N.am      15 UNK        -0.5000 
     85 CA          2.7017  -21.7554  -50.7366 C.3       15 UNK         0.1400 
     86 CB          3.3797  -21.1296  -51.9745 C.3       15 UNK        -0.1800 
     87 C           1.9627  -23.0716  -51.0497 C.2       15 UNK         0.5000 
     88 O           2.0279  -23.5657  -52.1747 O.2       15 UNK        -0.5000 
     89 N           1.2416  -23.5950  -50.0476 N.am      16 UNK        -0.5000 
     90 CA          0.3394  -24.7522  -50.1196 C.3       16 UNK         0.1400 
     91 CB          1.1027  -26.0486  -50.4641 C.3       16 UNK        -0.1800 
     92 C          -0.8553  -24.4689  -51.0525 C.2       16 UNK         0.5000 
     93 O          -1.2274  -25.3123  -51.8695 O.2       16 UNK        -0.5000 
     94 N          -1.3972  -23.2492  -50.9212 N.am      17 UNK        -0.5000 
     95 CA         -2.4781  -22.6437  -51.7056 C.3       17 UNK         0.1400 
     96 CB         -3.7907  -23.4326  -51.5381 C.3       17 UNK        -0.1800 
     97 C          -2.1442  -22.3845  -53.1923 C.2       17 UNK         0.5000 
     98 O          -3.0391  -21.9995  -53.9467 O.2       17 UNK        -0.5000 
     99 N          -0.8777  -22.5451  -53.6024 N.am      18 UNK        -0.5000 
    100 CA        -0.4182  -22.3008  -54.9715 C.3       18 UNK         0.1400 
    101 CB         0.9980  -22.8635  -55.1532 C.3       18 UNK        -0.1800 
    102 C         -0.4608  -20.8136  -55.3666 C.2       18 UNK         0.5000 
    103 O         -0.7468  -20.5077  -56.5245 O.2       18 UNK        -0.5000 
    104 N         -0.2037  -19.9174  -54.4027 N.am      19 UNK        -0.5000 
    105 CA        -0.3028  -18.4683  -54.5880 C.3       19 UNK         0.1400 
    106 CB         0.5264  -17.7548  -53.5098 C.3       19 UNK        -0.1800 
    107 C         -1.7630  -17.9809  -54.5551 C.2       19 UNK         0.5000 
    108 O         -2.0804  -16.9768  -55.1934 O.2       19 UNK        -0.5000 
    109 N         -2.6228  -18.7011  -53.8202 N.am      20 UNK        -0.5000 
    110 CA        -4.0631  -18.4536  -53.7517 C.3       20 UNK         0.1400 
    111 CB        -4.6441  -19.1635  -52.5201 C.3       20 UNK        -0.1800 
    112 C         -4.7861  -18.9108  -55.0316 C.2       20 UNK         0.5000 
    113 O         -5.7204  -18.2410  -55.4721 O.2       20 UNK        -0.5000 
    114 N         -4.3305  -20.0406  -55.5961 N.am      21 UNK        -0.5000 
    115 CA        -4.8244  -20.7063  -56.8073 C.3       21 UNK         0.1400 
    116 CB        -4.6274  -19.8130  -58.0494 C.3       21 UNK        -0.1800 
    117 C         -6.2664  -21.2435  -56.6704 C.2       21 UNK         0.5000 
    118 O         -6.9586  -21.4217  -57.6741 O.2       21 UNK        -0.5000 
    119 N         -6.6872  -21.5033  -55.4275 N.am      22 UNK        -0.5000 
    120 CA        -8.0063  -22.0373  -55.0558 C.3       22 UNK         0.1400 
    121 C         -8.1416  -23.5844  -55.1790 C.2       22 UNK         0.5000 
    122 N         -7.0789  -24.3277  -55.4641 N.am      22 UNK        -0.7600 
    123 O         -9.2374  -24.1194  -55.0325 O.2       22 UNK        -0.5000 
    124 C124       -8.4478  -21.5182  -53.6617 C.3       23 UNK        -0.0398 
    125 S125       -7.2182  -21.8230  -52.3470 S.3       23 UNK        -0.2404 
    126 C126       -7.9386  -20.8740  -50.9759 C.3       23 UNK        -0.0205 
    127 H127       -2.0105  -10.6045  -50.0033 H         1 UNK         0.0600 
    128 H128       -3.4829  -10.7947  -49.0472 H         1 UNK         0.0600 
    129 H129       -1.9640  -10.3689  -48.2531 H         1 UNK         0.0600 
    130 H130       -4.0235  -12.9201  -48.7458 H         1 UNK         0.3000 
    131 H131       -2.4367  -15.1104  -49.4260 H         1 UNK         0.0600 
    132 H132       -4.8109  -15.4165  -47.5270 H         1 UNK         0.0800 
    133 H133       -5.0828  -14.8047  -49.1251 H         1 UNK         0.0800 
    134 H134       -5.7995  -17.5649  -47.3452 H         1 UNK         0.0800 
    135 H135       -4.1848  -18.2311  -47.1972 H         1 UNK         0.0800 
    136 H136       -6.6676  -18.6705  -50.0049 H         1 UNK         0.1150 
    137 H137       -7.1262  -22.8687  -49.3095 H         1 UNK         0.1150 
    138 H138       -4.6871  -20.5179  -46.6829 H         1 UNK         0.1150 
    139 H139       -5.6012  -22.7926  -46.0101 H         1 UNK         0.0800 
    140 H140       -6.4343  -23.7699  -47.1795 H         1 UNK         0.0800 
    141 H141       -3.5917  -23.4270  -45.2322 H         1 UNK         0.0800 
    142 H142       -2.3042  -24.3367  -45.9350 H         1 UNK         0.0800 
    143 H143       -2.6810  -21.6621  -47.2115 H         1 UNK         0.0600 
    144 H144       -2.5159  -21.6743  -44.3386 H         1 UNK         0.3000 
    145 H145       -1.3020  -18.6101  -43.9060 H         1 UNK         0.0600 
    146 H146       -3.3343  -17.2231  -43.5286 H         1 UNK         0.0600 
    147 H147       -2.9466  -17.3214  -45.2374 H         1 UNK         0.0600 
    148 H148       -4.2679  -18.2708  -44.5954 H         1 UNK         0.0600 
    149 H149       -1.8748  -19.8302  -42.1810 H         1 UNK         0.3000 
    150 H150       -3.7713  -20.4350  -40.4316 H         1 UNK         0.0600 
    151 H151       -5.8676  -21.5805  -41.0614 H         1 UNK         0.0600 
    152 H152       -4.8816  -22.6520  -40.0800 H         1 UNK         0.0600 
    153 H153       -4.9757  -22.8888  -41.8245 H         1 UNK         0.0600 
    154 H154       -1.8994  -21.6153  -40.2459 H         1 UNK         0.3000 
    155 H155       -0.6536  -23.8929  -40.5264 H         1 UNK         0.0600 
    156 H156        1.0054  -24.7188  -42.2386 H         1 UNK         0.0600 
    157 H157        0.0368  -23.9664  -43.5052 H         1 UNK         0.0600 
    158 H158       -0.6336  -25.2731  -42.5473 H         1 UNK         0.0600 
    159 H159        0.8559  -22.2911  -40.3458 H         1 UNK         0.3000 
    160 H160        1.9399  -20.4617  -40.5082 H         1 UNK         0.0600 
    161 H161        3.0217  -20.2254  -43.3690 H         1 UNK         0.0600 
    162 H162        3.5015  -21.4549  -42.2040 H         1 UNK         0.0600 
    163 H163        3.8705  -19.7652  -41.8953 H         1 UNK         0.0600 
    164 H164        1.9508  -18.2606  -42.1988 H         1 UNK         0.3000 
    165 H165       -0.1539  -16.8237  -42.6835 H         1 UNK         0.0600 
    166 H166       -1.4353  -16.4251  -39.9343 H         1 UNK         0.0600 
    167 H167       -1.6412  -15.3785  -41.3370 H         1 UNK         0.0600 
    168 H168       -2.2605  -17.0188  -41.3685 H         1 UNK         0.0600 
    169 H169        0.7207  -15.3652  -40.3967 H         1 UNK         0.3000 
    170 H170        2.3988  -13.9768  -40.6622 H         1 UNK         0.0600 
    171 H171        3.8259  -15.7094  -39.5067 H         1 UNK         0.0600 
    172 H172        4.8612  -15.8069  -40.9266 H         1 UNK         0.0600 
    173 H173        4.7833  -14.3180  -39.9862 H         1 UNK         0.0600 
    174 H174        3.4017  -14.4675  -43.2883 H         1 UNK         0.3000 
    175 H175        4.3140  -11.0819  -43.8063 H         1 UNK         0.0600 
    176 H176        6.1894  -13.4941  -44.0495 H         1 UNK         0.0600 
    177 H177        6.3221  -11.9840  -44.9520 H         1 UNK         0.0600 
    178 H178        6.5543  -11.9911  -43.2112 H         1 UNK         0.0600 
    179 H179        4.1659  -13.5009  -45.4321 H         1 UNK         0.3000 
    180 H180        1.7852  -12.4109  -47.3278 H         1 UNK         0.0600 
    181 H181        3.6146  -14.0409  -47.3942 H         1 UNK         0.0600 
    182 H182        2.8405  -15.0499  -46.1749 H         1 UNK         0.0600 
    183 H183        2.1194  -14.8744  -47.7692 H         1 UNK         0.0600 
    184 H184       -0.2199  -13.2327  -46.9039 H         1 UNK         0.3000 
    185 H185       -1.5671  -15.5230  -44.6755 H         1 UNK         0.0600 
    186 H186       -2.0967  -12.5368  -44.2413 H         1 UNK         0.0600 
    187 H187       -3.1387  -13.8700  -43.7385 H         1 UNK         0.0600 
    188 H188       -1.5623  -13.6530  -42.9949 H         1 UNK         0.0600 
    189 H189       -2.8087  -13.5122  -46.3283 H         1 UNK         0.3000 
    190 H190       -0.0709  -22.4179  -44.9183 H         1 UNK         0.3000 
    191 H191        1.7505  -23.2980  -47.0538 H         1 UNK         0.0600 
    192 H192        3.4382  -23.3837  -45.2414 H         1 UNK         0.0600 
    193 H193        2.0091  -24.3136  -44.8320 H         1 UNK         0.0600 
    194 H194        2.2789  -22.7331  -44.0972 H         1 UNK         0.0600 
    195 H195        0.9204  -20.3460  -45.2996 H         1 UNK         0.3000 
    196 H196        3.0324  -18.6687  -46.2277 H         1 UNK         0.0600 
    197 H197        1.6364  -16.8549  -45.4854 H         1 UNK         0.0600 
    198 H198        1.3351  -18.1692  -44.3672 H         1 UNK         0.0600 
    199 H199        0.1632  -17.7875  -45.6282 H         1 UNK         0.0600 
    200 H200       -0.1249  -19.5657  -47.6191 H         1 UNK         0.3000 
    201 H201        0.2443  -18.1541  -50.1178 H         1 UNK         0.0600 
    202 H202       -1.9803  -18.5857  -49.0550 H         1 UNK         0.0600 
    203 H203       -1.7734  -20.3129  -49.3076 H         1 UNK         0.0600 
    204 H204       -1.9013  -19.2241  -50.6883 H         1 UNK         0.0600 
    205 H205        2.1556  -20.5024  -49.1391 H         1 UNK         0.3000 
    206 H206        3.4902  -22.0123  -50.0282 H         1 UNK         0.0600 
    207 H207        3.9261  -20.2251  -51.7076 H         1 UNK         0.0600 
    208 H208        4.0959  -21.8213  -52.4193 H         1 UNK         0.0600 
    209 H209        2.6573  -20.8667  -52.7476 H         1 UNK         0.0600 
    210 H210        1.1604  -23.0551  -49.1948 H         1 UNK         0.3000 
    211 H211       -0.0787  -24.8809  -49.1203 H         1 UNK         0.0600 
    212 H212        1.4873  -26.0402  -51.4841 H         1 UNK         0.0600 
    213 H213        0.4503  -26.9175  -50.3719 H         1 UNK         0.0600 
    214 H214        1.9442  -26.2016  -49.7886 H         1 UNK         0.0600 
    215 H215       -1.0045  -22.6571  -50.1990 H         1 UNK         0.3000 
    216 H216       -2.6397  -21.6572  -51.2703 H         1 UNK         0.0600 
    217 H217       -3.7249  -24.4350  -51.9606 H         1 UNK         0.0600 
    218 H218       -4.6134  -22.9270  -52.0397 H         1 UNK         0.0600 
    219 H219       -4.0655  -23.5241  -50.4882 H         1 UNK         0.0600 
    220 H220       -0.1774  -22.8237  -52.9281 H         1 UNK         0.3000 
    221 H221       -1.0843  -22.8420  -55.6469 H         1 UNK         0.0600 
    222 H222        1.7232  -22.3318  -54.5369 H         1 UNK         0.0600 
    223 H223        1.0417  -23.9202  -54.8883 H         1 UNK         0.0600 
    224 H224        1.3227  -22.7732  -56.1904 H         1 UNK         0.0600 
    225 H225        0.0147  -20.2447  -53.4630 H         1 UNK         0.3000 
    226 H226        0.1177  -18.2105  -55.5625 H         1 UNK         0.0600 
    227 H227        1.5496  -18.1302  -53.4806 H         1 UNK         0.0600 
    228 H228        0.5762  -16.6831  -53.7058 H         1 UNK         0.0600 
    229 H229        0.0912  -17.8831  -52.5194 H         1 UNK         0.0600 
    230 H230       -2.2748  -19.5211  -53.3476 H         1 UNK         0.3000 
    231 H231       -4.2268  -17.3803  -53.6335 H         1 UNK         0.0600 
    232 H232       -4.5429  -20.2464  -52.5843 H         1 UNK         0.0600 
    233 H233       -4.1496  -18.8394  -51.6060 H         1 UNK         0.0600 
    234 H234       -5.7062  -18.9420  -52.4106 H         1 UNK         0.0600 
    235 H235       -3.6168  -20.5592  -55.0918 H         1 UNK         0.3000 
    236 H236       -4.1921  -21.5857  -56.9366 H         1 UNK         0.0600 
    237 H237       -3.5993  -19.4566  -58.1171 H         1 UNK         0.0600 
    238 H238       -4.8391  -20.3646  -58.9660 H         1 UNK         0.0600 
    239 H239       -5.2847  -18.9434  -58.0332 H         1 UNK         0.0600 
    240 H240       -6.0489  -21.3477  -54.6603 H         1 UNK         0.3000 
    241 H241       -8.7286  -21.6401  -55.7716 H         1 UNK         0.0600 
    242 H242       -6.1739  -23.9019  -55.5815 H         1 UNK         0.3800 
    243 H243       -7.1796  -25.3269  -55.5488 H         1 UNK         0.3800 
    244 H244       -9.4055  -21.9494  -53.3648 H         1 UNK         0.0800 
    245 H245       -8.6143  -20.4418  -53.7236 H         1 UNK         0.0800 
    246 H246       -8.8683  -21.3477  -50.6577 H         1 UNK         0.0800 
    247 H247       -8.2031  -19.8761  -51.3290 H         1 UNK         0.0800 
@<TRIPOS>BOND
     1    1    2 1    
     2    1  127 1    
     3    1  128 1    
     4    1  129 1    
     5    2    3 2    
     6    2    4 am   BACKBONE|DICT|INTERRES
     7    4    5 1    
     8    4  130 1    
     9    5    6 1    
    10    5   65 1    
    11    5  131 1    
    12    6    7 1    
    13    6  132 1    
    14    6  133 1    
    15    7    8 1    
    16    8    9 1    
    17    8  134 1    
    18    8  135 1    
    19    9   10 ar   
    20    9   14 ar   
    21   10   11 ar   
    22   10  136 1    
    23   11   12 ar   
    24   11  126 1    
    25   12   13 ar   
    26   12  137 1    
    27   13   14 ar   
    28   13   15 1    
    29   14  138 1    
    30   15   16 1    
    31   15  139 1    
    32   15  140 1    
    33   16   17 1    
    34   17   18 1    
    35   17  141 1    
    36   17  142 1    
    37   18   19 1    
    38   18   67 1    
    39   18  143 1    
    40   19   20 am   BACKBONE|DICT|INTERRES
    41   19  144 1    
    42   20   21 2    
    43   20   22 1    
    44   22   23 1    
    45   22   24 1    
    46   22  145 1    
    47   23  146 1    
    48   23  147 1    
    49   23  148 1    
    50   24   25 am   BACKBONE|DICT|INTERRES
    51   24  149 1    
    52   25   26 2    
    53   25   27 1    
    54   27   28 1    
    55   27   29 1    
    56   27  150 1    
    57   28  151 1    
    58   28  152 1    
    59   28  153 1    
    60   29   30 am   BACKBONE|DICT|INTERRES
    61   29  154 1    
    62   30   31 2    
    63   30   32 1    
    64   32   33 1    
    65   32   34 1    
    66   32  155 1    
    67   33  156 1    
    68   33  157 1    
    69   33  158 1    
    70   34   35 am   BACKBONE|DICT|INTERRES
    71   34  159 1    
    72   35   36 2    
    73   35   37 1    
    74   37   38 1    
    75   37   39 1    
    76   37  160 1    
    77   38  161 1    
    78   38  162 1    
    79   38  163 1    
    80   39   40 am   BACKBONE|DICT|INTERRES
    81   39  164 1    
    82   40   41 2    
    83   40   42 1    
    84   42   43 1    
    85   42   44 1    
    86   42  165 1    
    87   43  166 1    
    88   43  167 1    
    89   43  168 1    
    90   44   45 am   BACKBONE|DICT|INTERRES
    91   44  169 1    
    92   45   46 2    
    93   45   47 1    
    94   47   48 1    
    95   47   49 1    
    96   47  170 1    
    97   48  171 1    
    98   48  172 1    
    99   48  173 1    
   100   49   50 am   BACKBONE|DICT|INTERRES
   101   49  174 1    
   102   50   51 2    
   103   50   52 1    
   104   52   53 1    
   105   52   54 1    
   106   52  175 1    
   107   53  176 1    
   108   53  177 1    
   109   53  178 1    
   110   54   55 am   BACKBONE|DICT|INTERRES
   111   54  179 1    
   112   55   56 2    
   113   55   57 1    
   114   57   58 1    
   115   57   59 1    
   116   57  180 1    
   117   58  181 1    
   118   58  182 1    
   119   58  183 1    
   120   59   60 am   BACKBONE|DICT|INTERRES
   121   59  184 1    
   122   60   61 2    
   123   60   62 1    
   124   62   63 1    
   125   62   64 1    
   126   62  185 1    
   127   63  186 1    
   128   63  187 1    
   129   63  188 1    
   130   64   65 am   BACKBONE|DICT|INTERRES
   131   64  189 1    
   132   65   66 2    
   133   67   68 2    
   134   67   69 am   BACKBONE|DICT|INTERRES
   135   69   70 1    
   136   69  190 1    
   137   70   71 1    
   138   70   72 1    
   139   70  191 1    
   140   71  192 1    
   141   71  193 1    
   142   71  194 1    
   143   72   73 2    
   144   72   74 am   BACKBONE|DICT|INTERRES
   145   74   75 1    
   146   74  195 1    
   147   75   76 1    
   148   75   77 1    
   149   75  196 1    
   150   76  197 1    
   151   76  198 1    
   152   76  199 1    
   153   77   78 2    
   154   77   79 am   BACKBONE|DICT|INTERRES
   155   79   80 1    
   156   79  200 1    
   157   80   81 1    
   158   80   82 1    
   159   80  201 1    
   160   81  202 1    
   161   81  203 1    
   162   81  204 1    
   163   82   83 2    
   164   82   84 am   BACKBONE|DICT|INTERRES
   165   84   85 1    
   166   84  205 1    
   167   85   86 1    
   168   85   87 1    
   169   85  206 1    
   170   86  207 1    
   171   86  208 1    
   172   86  209 1    
   173   87   88 2    
   174   87   89 am   BACKBONE|DICT|INTERRES
   175   89   90 1    
   176   89  210 1    
   177   90   91 1    
   178   90   92 1    
   179   90  211 1    
   180   91  212 1    
   181   91  213 1    
   182   91  214 1    
   183   92   93 2    
   184   92   94 am   BACKBONE|DICT|INTERRES
   185   94   95 1    
   186   94  215 1    
   187   95   96 1    
   188   95   97 1    
   189   95  216 1    
   190   96  217 1    
   191   96  218 1    
   192   96  219 1    
   193   97   98 2    
   194   97   99 am   BACKBONE|DICT|INTERRES
   195   99  100 1    
   196   99  220 1    
   197  100  101 1    
   198  100  102 1    
   199  100  221 1    
   200  101  222 1    
   201  101  223 1    
   202  101  224 1    
   203  102  103 2    
   204  102  104 am   BACKBONE|DICT|INTERRES
   205  104  105 1    
   206  104  225 1    
   207  105  106 1    
   208  105  107 1    
   209  105  226 1    
   210  106  227 1    
   211  106  228 1    
   212  106  229 1    
   213  107  108 2    
   214  107  109 am   BACKBONE|DICT|INTERRES
   215  109  110 1    
   216  109  230 1    
   217  110  111 1    
   218  110  112 1    
   219  110  231 1    
   220  111  232 1    
   221  111  233 1    
   222  111  234 1    
   223  112  113 2    
   224  112  114 am   BACKBONE|DICT|INTERRES
   225  114  115 1    
   226  114  235 1    
   227  115  116 1    
   228  115  117 1    
   229  115  236 1    
   230  116  237 1    
   231  116  238 1    
   232  116  239 1    
   233  117  118 2    
   234  117  119 am   BACKBONE|DICT|INTERRES
   235  119  120 1    
   236  119  240 1    
   237  120  121 1    
   238  120  124 1    
   239  120  241 1    
   240  121  122 am   BACKBONE|DICT|INTERRES
   241  121  123 2    
   242  122  242 1    
   243  122  243 1    
   244  124  125 1    
   245  124  244 1    
   246  124  245 1    
   247  125  126 1    
   248  126  246 1    
   249  126  247 1    
@<TRIPOS>SUBSTRUCTURE
     1 UNK         1 GROUP             0       ****    0 ROOT    
