@<TRIPOS>MOLECULE
3R540
247   249    1
SMALL
USER_CHARGES


@<TRIPOS>ATOM
      1 CA         -6.4545  -14.8819  -49.3905 C.3       0 UNK        -0.1800 
      2 C          -5.1614  -14.1124  -49.1646 C.2       0 UNK         0.5000 
      3 O          -5.1593  -12.8824  -49.2203 O.2       0 UNK        -0.5000 
      4 N          -4.0634  -14.8347  -48.9118 N.am      1 UNK        -0.5000 
      5 CA         -2.7522  -14.2835  -48.5652 C.3       1 UNK         0.1400 
      6 C6         -1.6331  -15.3490  -48.6720 C.3       23 UNK        -0.0398 
      7 S7          0.0353  -14.6341  -48.4720 S.3       23 UNK        -0.2404 
      8 C8          0.7793  -14.8794  -50.1150 C.3       23 UNK        -0.0205 
      9 C9          1.0131  -16.3462  -50.4575 C.ar      23 UNK        -0.0193 
     10 C10         0.4888  -16.8757  -51.6383 C.ar      23 UNK        -0.1150 
     11 C11         0.7483  -18.1993  -51.9983 C.ar      23 UNK        -0.0193 
     12 C12         1.5179  -19.0069  -51.1557 C.ar      23 UNK        -0.1150 
     13 C13         2.0265  -18.5032  -49.9526 C.ar      23 UNK        -0.0193 
     14 C14         1.7853  -17.1643  -49.6250 C.ar      23 UNK        -0.1150 
     15 C15         2.8710  -19.3647  -49.0114 C.3       23 UNK        -0.0205 
     16 S16         2.3737  -21.1214  -48.9108 S.3       23 UNK        -0.2404 
     17 C17         0.6553  -20.9855  -48.3227 C.3       23 UNK        -0.0398 
     18 CA          0.1205  -22.3204  -47.7472 C.3       11 UNK         0.1400 
     19 N           0.7407  -22.6796  -46.4751 N.am      11 UNK        -0.5000 
     20 C           0.7566  -23.9212  -45.9730 C.2       10 UNK         0.5000 
     21 O           0.3523  -24.9051  -46.5961 O.2       10 UNK        -0.5000 
     22 CA          1.2748  -24.0860  -44.5303 C.3       10 UNK         0.1400 
     23 CB          1.7148  -25.5279  -44.1997 C.3       10 UNK        -0.1800 
     24 N           2.3132  -23.1192  -44.1684 N.am      10 UNK        -0.5000 
     25 C           3.5583  -23.0161  -44.6572 C.2       9 UNK         0.5000 
     26 O           4.0201  -23.7611  -45.5221 O.2       9 UNK        -0.5000 
     27 CA          4.4482  -21.8899  -44.0835 C.3       9 UNK         0.1400 
     28 CB          4.7511  -20.8406  -45.1655 C.3       9 UNK        -0.1800 
     29 N           3.8621  -21.2152  -42.9213 N.am      9 UNK        -0.5000 
     30 C           3.7514  -21.7366  -41.6909 C.2       8 UNK         0.5000 
     31 O           4.2350  -22.8193  -41.3605 O.2       8 UNK        -0.5000 
     32 CA          2.9019  -20.9403  -40.6807 C.3       8 UNK         0.1400 
     33 CB          3.7604  -19.9237  -39.9124 C.3       8 UNK        -0.1800 
     34 N           1.7769  -20.2539  -41.3240 N.am      8 UNK        -0.5000 
     35 C           0.6995  -20.8731  -41.8301 C.2       7 UNK         0.5000 
     36 O           0.5133  -22.0868  -41.7532 O.2       7 UNK        -0.5000 
     37 CA         -0.3110  -20.0029  -42.5990 C.3       7 UNK         0.1400 
     38 CB         -1.3452  -19.3916  -41.6427 C.3       7 UNK        -0.1800 
     39 N           0.3496  -18.9425  -43.3609 N.am      7 UNK        -0.5000 
     40 C           1.0575  -19.1628  -44.4797 C.2       6 UNK         0.5000 
     41 O           1.1846  -20.2732  -44.9937 O.2       6 UNK        -0.5000 
     42 CA          1.7813  -17.9567  -45.1099 C.3       6 UNK         0.1400 
     43 CB          0.8655  -17.2354  -46.1061 C.3       6 UNK        -0.1800 
     44 N           2.2478  -16.9824  -44.1275 N.am      6 UNK        -0.5000 
     45 C           3.1046  -17.2273  -43.1276 C.2       5 UNK         0.5000 
     46 O           3.6879  -18.3001  -42.9819 O.2       5 UNK        -0.5000 
     47 CA          3.2884  -16.1078  -42.0830 C.3       5 UNK         0.1400 
     48 CB          4.5937  -15.3422  -42.3420 C.3       5 UNK        -0.1800 
     49 N           2.1749  -15.1534  -42.0490 N.am      5 UNK        -0.5000 
     50 C           0.8962  -15.4384  -41.7692 C.2       4 UNK         0.5000 
     51 O           0.5098  -16.5634  -41.4524 O.2       4 UNK        -0.5000 
     52 CA         -0.1360  -14.3103  -41.9600 C.3       4 UNK         0.1400 
     53 CB         -0.1943  -13.3874  -40.7285 C.3       4 UNK        -0.1800 
     54 N           0.0330  -13.5491  -43.2089 N.am      4 UNK        -0.5000 
     55 C           1.0176  -12.7066  -43.5607 C.2       3 UNK         0.5000 
     56 O           1.9876  -12.4507  -42.8463 O.2       3 UNK        -0.5000 
     57 CA          0.9382  -12.0710  -44.9632 C.3       3 UNK         0.1400 
     58 CB          1.9172  -12.7796  -45.9127 C.3       3 UNK        -0.1800 
     59 N          -0.3986  -12.0815  -45.5661 N.am      3 UNK        -0.5000 
     60 C          -1.4567  -11.3910  -45.1152 C.2       2 UNK         0.5000 
     61 O          -1.4245  -10.6961  -44.0989 O.2       2 UNK        -0.5000 
     62 CA         -2.7645  -11.4651  -45.9315 C.3       2 UNK         0.1400 
     63 CB         -3.2231  -10.0596  -46.3557 C.3       2 UNK        -0.1800 
     64 N          -2.6679  -12.2974  -47.1332 N.am      2 UNK        -0.5000 
     65 C          -2.8132  -13.6274  -47.1675 C.2       1 UNK         0.5000 
     66 O          -2.9884  -14.3253  -46.1670 O.2       1 UNK        -0.5000 
     67 C          -1.4030  -22.2410  -47.5484 C.2       11 UNK         0.5000 
     68 O          -1.8752  -21.3732  -46.8118 O.2       11 UNK        -0.5000 
     69 N          -2.1504  -23.0991  -48.2578 N.am      12 UNK        -0.5000 
     70 CA         -3.6197  -23.1039  -48.3186 C.3       12 UNK         0.1400 
     71 CB         -4.0741  -24.2706  -49.2069 C.3       12 UNK        -0.1800 
     72 C          -4.2285  -21.7796  -48.8256 C.2       12 UNK         0.5000 
     73 O          -5.3792  -21.4730  -48.5093 O.2       12 UNK        -0.5000 
     74 N          -3.4215  -20.9972  -49.5548 N.am      13 UNK        -0.5000 
     75 CA         -3.7050  -19.6388  -50.0073 C.3       13 UNK         0.1400 
     76 CB         -2.5646  -19.1772  -50.9260 C.3       13 UNK        -0.1800 
     77 C          -3.9099  -18.6304  -48.8600 C.2       13 UNK         0.5000 
     78 O          -4.5580  -17.6112  -49.0843 O.2       13 UNK        -0.5000 
     79 N          -3.4016  -18.9204  -47.6514 N.am      14 UNK        -0.5000 
     80 CA         -3.6432  -18.1184  -46.4464 C.3       14 UNK         0.1400 
     81 CB         -2.6863  -18.5710  -45.3346 C.3       14 UNK        -0.1800 
     82 C          -5.1047  -18.2007  -45.9665 C.2       14 UNK         0.5000 
     83 O          -5.6381  -17.2142  -45.4599 O.2       14 UNK        -0.5000 
     84 N          -5.7285  -19.3695  -46.1619 N.am      15 UNK        -0.5000 
     85 CA         -7.1418  -19.6225  -45.8784 C.3       15 UNK         0.1400 
     86 CB         -7.2811  -21.0769  -45.3989 C.3       15 UNK        -0.1800 
     87 C          -8.0368  -19.3817  -47.1105 C.2       15 UNK         0.5000 
     88 O          -9.2605  -19.4047  -46.9757 O.2       15 UNK        -0.5000 
     89 N          -7.4130  -19.2032  -48.2864 N.am      16 UNK        -0.5000 
     90 CA         -8.0078  -19.1841  -49.6281 C.3       16 UNK         0.1400 
     91 CB         -8.9444  -17.9713  -49.8066 C.3       16 UNK        -0.1800 
     92 C          -8.6823  -20.5264  -49.9923 C.2       16 UNK         0.5000 
     93 O          -9.6549  -20.5461  -50.7487 O.2       16 UNK        -0.5000 
     94 N          -8.1596  -21.6268  -49.4333 N.am      17 UNK        -0.5000 
     95 CA         -8.6996  -22.9775  -49.5854 C.3       17 UNK         0.1400 
     96 CB         -8.2806  -23.8166  -48.3684 C.3       17 UNK        -0.1800 
     97 C          -8.2590  -23.6504  -50.8975 C.2       17 UNK         0.5000 
     98 O          -8.9713  -24.5202  -51.4006 O.2       17 UNK        -0.5000 
     99 N          -7.1080  -23.2307  -51.4320 N.am      18 UNK        -0.5000 
    100 CA        -6.5231  -23.6709  -52.6930 C.3       18 UNK         0.1400 
    101 CB        -5.9349  -25.0894  -52.5521 C.3       18 UNK        -0.1800 
    102 C         -5.4461  -22.6547  -53.1005 C.2       18 UNK         0.5000 
    103 O         -5.1079  -21.7698  -52.3099 O.2       18 UNK        -0.5000 
    104 N         -4.9154  -22.8053  -54.3207 N.am      19 UNK        -0.5000 
    105 CA        -3.8497  -21.9601  -54.8689 C.3       19 UNK         0.1400 
    106 CB        -3.7429  -22.2013  -56.3822 C.3       19 UNK        -0.1800 
    107 C         -2.4796  -22.1752  -54.1968 C.2       19 UNK         0.5000 
    108 O         -1.6382  -21.2806  -54.2586 O.2       19 UNK        -0.5000 
    109 N         -2.2776  -23.3453  -53.5709 N.am      20 UNK        -0.5000 
    110 CA        -1.0628  -23.7607  -52.8629 C.3       20 UNK         0.1400 
    111 CB        -0.8936  -22.9241  -51.5728 C.3       20 UNK        -0.1800 
    112 C          0.1739  -23.7431  -53.7884 C.2       20 UNK         0.5000 
    113 O          0.0887  -24.2165  -54.9244 O.2       20 UNK        -0.5000 
    114 N          1.2868  -23.1707  -53.3091 N.am      21 UNK        -0.5000 
    115 CA         2.5433  -22.9932  -54.0431 C.3       21 UNK         0.1400 
    116 CB         3.5973  -22.4291  -53.0767 C.3       21 UNK        -0.1800 
    117 C          2.4274  -22.0951  -55.2934 C.2       21 UNK         0.5000 
    118 O          3.2972  -22.1607  -56.1632 O.2       21 UNK        -0.5000 
    119 N          1.3637  -21.2859  -55.3658 N.am      22 UNK        -0.5000 
    120 CA         1.0330  -20.4227  -56.5077 C.3       22 UNK         0.1400 
    121 C          0.2556  -21.1623  -57.6373 C.2       22 UNK         0.5000 
    122 N         -0.1398  -22.4209  -57.4717 N.am      22 UNK        -0.7600 
    123 O          0.0168  -20.5857  -58.6948 O.2       22 UNK        -0.5000 
    124 C124        0.2847  -19.1370  -56.0649 C.3       23 UNK        -0.0398 
    125 S125        1.1454  -18.2178  -54.7398 S.3       23 UNK        -0.2404 
    126 C126        0.1843  -18.7578  -53.2918 C.3       23 UNK        -0.0205 
    127 H127       -6.4908  -15.7753  -48.7670 H         1 UNK         0.0600 
    128 H128       -6.5382  -15.1837  -50.4344 H         1 UNK         0.0600 
    129 H129       -7.3175  -14.2649  -49.1402 H         1 UNK         0.0600 
    130 H130       -4.1512  -15.8489  -48.8937 H         1 UNK         0.3000 
    131 H131       -2.5288  -13.5093  -49.3029 H         1 UNK         0.0600 
    132 H132       -1.7580  -16.1303  -47.9224 H         1 UNK         0.0800 
    133 H133       -1.6945  -15.8520  -49.6379 H         1 UNK         0.0800 
    134 H134        1.7384  -14.3609  -50.1428 H         1 UNK         0.0800 
    135 H135        0.1487  -14.3966  -50.8632 H         1 UNK         0.0800 
    136 H136       -0.1035  -16.2532  -52.2944 H         1 UNK         0.1150 
    137 H137        1.7184  -20.0299  -51.4383 H         1 UNK         0.1150 
    138 H138        2.2056  -16.7499  -48.7207 H         1 UNK         0.1150 
    139 H139        3.9086  -19.3186  -49.3436 H         1 UNK         0.0800 
    140 H140        2.8532  -18.9494  -48.0033 H         1 UNK         0.0800 
    141 H141        0.0513  -20.6624  -49.1722 H         1 UNK         0.0800 
    142 H142        0.5874  -20.1898  -47.5807 H         1 UNK         0.0800 
    143 H143        0.3361  -23.1057  -48.4749 H         1 UNK         0.0600 
    144 H144        1.0363  -21.9011  -45.8899 H         1 UNK         0.3000 
    145 H145        0.4234  -23.8563  -43.8886 H         1 UNK         0.0600 
    146 H146        2.0677  -25.6059  -43.1713 H         1 UNK         0.0600 
    147 H147        0.8833  -26.2249  -44.3093 H         1 UNK         0.0600 
    148 H148        2.5145  -25.8702  -44.8569 H         1 UNK         0.0600 
    149 H149        2.0351  -22.4406  -43.4727 H         1 UNK         0.3000 
    150 H150        5.3917  -22.3436  -43.7740 H         1 UNK         0.0600 
    151 H151        5.2925  -21.2867  -46.0006 H         1 UNK         0.0600 
    152 H152        5.3666  -20.0306  -44.7736 H         1 UNK         0.0600 
    153 H153        3.8376  -20.4053  -45.5689 H         1 UNK         0.0600 
    154 H154        3.5133  -20.2743  -43.0739 H         1 UNK         0.3000 
    155 H155        2.4957  -21.6508  -39.9575 H         1 UNK         0.0600 
    156 H156        4.5642  -20.4259  -39.3728 H         1 UNK         0.0600 
    157 H157        3.1661  -19.3807  -39.1774 H         1 UNK         0.0600 
    158 H158        4.2223  -19.1935  -40.5764 H         1 UNK         0.0600 
    159 H159        1.8671  -19.2570  -41.4558 H         1 UNK         0.3000 
    160 H160       -0.8436  -20.6479  -43.3019 H         1 UNK         0.0600 
    161 H161       -2.0674  -18.7772  -42.1801 H         1 UNK         0.0600 
    162 H162       -0.8751  -18.7689  -40.8812 H         1 UNK         0.0600 
    163 H163       -1.9038  -20.1727  -41.1256 H         1 UNK         0.0600 
    164 H164        0.3268  -18.0137  -42.9559 H         1 UNK         0.3000 
    165 H165        2.6537  -18.3313  -45.6469 H         1 UNK         0.0600 
    166 H166        1.3972  -16.4168  -46.5880 H         1 UNK         0.0600 
    167 H167        0.5188  -17.9074  -46.8914 H         1 UNK         0.0600 
    168 H168       -0.0141  -16.8135  -45.6183 H         1 UNK         0.0600 
    169 H169        1.8240  -16.0683  -44.1637 H         1 UNK         0.3000 
    170 H170        3.3525  -16.5832  -41.1023 H         1 UNK         0.0600 
    171 H171        4.7762  -14.6004  -41.5642 H         1 UNK         0.0600 
    172 H172        5.4493  -16.0189  -42.3523 H         1 UNK         0.0600 
    173 H173        4.5714  -14.8237  -43.3015 H         1 UNK         0.0600 
    174 H174        2.3850  -14.1909  -42.3020 H         1 UNK         0.3000 
    175 H175       -1.1102  -14.7946  -42.0453 H         1 UNK         0.0600 
    176 H176       -0.4444  -13.9550  -39.8313 H         1 UNK         0.0600 
    177 H177        0.7575  -12.8899  -40.5412 H         1 UNK         0.0600 
    178 H178       -0.9568  -12.6179  -40.8496 H         1 UNK         0.0600 
    179 H179       -0.6948  -13.6958  -43.8945 H         1 UNK         0.3000 
    180 H180        1.2508  -11.0294  -44.8649 H         1 UNK         0.0600 
    181 H181        2.9390  -12.7241  -45.5347 H         1 UNK         0.0600 
    182 H182        1.6703  -13.8352  -46.0299 H         1 UNK         0.0600 
    183 H183        1.9138  -12.3211  -46.9018 H         1 UNK         0.0600 
    184 H184       -0.5099  -12.6234  -46.4107 H         1 UNK         0.3000 
    185 H185       -3.5287  -11.8840  -45.2735 H         1 UNK         0.0600 
    186 H186       -3.3742   -9.4150  -45.4888 H         1 UNK         0.0600 
    187 H187       -2.4898   -9.5750  -47.0015 H         1 UNK         0.0600 
    188 H188       -4.1704  -10.1002  -46.8941 H         1 UNK         0.0600 
    189 H189       -2.5378  -11.8012  -48.0035 H         1 UNK         0.3000 
    190 H190       -1.6846  -23.8172  -48.7935 H         1 UNK         0.3000 
    191 H191       -3.9973  -23.2678  -47.3075 H         1 UNK         0.0600 
    192 H192       -3.7456  -25.2275  -48.8010 H         1 UNK         0.0600 
    193 H193       -3.6783  -24.1811  -50.2183 H         1 UNK         0.0600 
    194 H194       -5.1603  -24.3098  -49.2861 H         1 UNK         0.0600 
    195 H195       -2.5071  -21.3537  -49.7783 H         1 UNK         0.3000 
    196 H196       -4.6284  -19.6662  -50.5888 H         1 UNK         0.0600 
    197 H197       -1.6105  -19.1436  -50.3988 H         1 UNK         0.0600 
    198 H198       -2.7563  -18.1774  -51.3180 H         1 UNK         0.0600 
    199 H199       -2.4546  -19.8438  -51.7820 H         1 UNK         0.0600 
    200 H200       -2.8760  -19.7790  -47.5196 H         1 UNK         0.3000 
    201 H201       -3.4310  -17.0736  -46.6765 H         1 UNK         0.0600 
    202 H202       -2.7348  -17.8959  -44.4796 H         1 UNK         0.0600 
    203 H203       -2.9240  -19.5740  -44.9779 H         1 UNK         0.0600 
    204 H204       -1.6562  -18.5842  -45.6853 H         1 UNK         0.0600 
    205 H205       -5.2199  -20.1248  -46.6016 H         1 UNK         0.3000 
    206 H206       -7.4890  -18.9628  -45.0806 H         1 UNK         0.0600 
    207 H207       -6.6851  -21.2552  -44.5037 H         1 UNK         0.0600 
    208 H208       -8.3169  -21.3114  -45.1501 H         1 UNK         0.0600 
    209 H209       -6.9590  -21.7860  -46.1626 H         1 UNK         0.0600 
    210 H210       -6.4039  -19.2077  -48.2660 H         1 UNK         0.3000 
    211 H211       -7.1772  -19.0638  -50.3248 H         1 UNK         0.0600 
    212 H212       -9.2493  -17.8643  -50.8481 H         1 UNK         0.0600 
    213 H213       -8.4512  -17.0444  -49.5179 H         1 UNK         0.0600 
    214 H214       -9.8521  -18.0670  -49.2104 H         1 UNK         0.0600 
    215 H215       -7.3170  -21.5316  -48.8747 H         1 UNK         0.3000 
    216 H216       -9.7904  -22.9233  -49.5956 H         1 UNK         0.0600 
    217 H217       -8.6372  -24.8436  -48.4569 H         1 UNK         0.0600 
    218 H218       -8.6986  -23.4063  -47.4489 H         1 UNK         0.0600 
    219 H219       -7.1977  -23.8510  -48.2534 H         1 UNK         0.0600 
    220 H220       -6.5990  -22.4744  -50.9900 H         1 UNK         0.3000 
    221 H221       -7.2993  -23.6688  -53.4609 H         1 UNK         0.0600 
    222 H222       -5.1414  -25.1255  -51.8071 H         1 UNK         0.0600 
    223 H223       -6.6971  -25.8111  -52.2590 H         1 UNK         0.0600 
    224 H224       -5.5148  -25.4396  -53.4952 H         1 UNK         0.0600 
    225 H225       -5.2503  -23.5493  -54.9158 H         1 UNK         0.3000 
    226 H226       -4.1272  -20.9159  -54.7096 H         1 UNK         0.0600 
    227 H227       -2.9852  -21.5546  -56.8272 H         1 UNK         0.0600 
    228 H228       -3.4663  -23.2321  -56.6074 H         1 UNK         0.0600 
    229 H229       -4.6861  -21.9868  -56.8848 H         1 UNK         0.0600 
    230 H230       -3.0149  -24.0322  -53.6188 H         1 UNK         0.3000 
    231 H231       -1.2140  -24.8008  -52.5712 H         1 UNK         0.0600 
    232 H232       -1.8156  -22.9318  -50.9968 H         1 UNK         0.0600 
    233 H233       -0.6526  -21.8813  -51.7832 H         1 UNK         0.0600 
    234 H234       -0.1081  -23.3308  -50.9353 H         1 UNK         0.0600 
    235 H235        1.2689  -22.8057  -52.3687 H         1 UNK         0.3000 
    236 H236        2.8745  -23.9777  -54.3793 H         1 UNK         0.0600 
    237 H237        3.7400  -23.0852  -52.2178 H         1 UNK         0.0600 
    238 H238        4.5650  -22.3273  -53.5697 H         1 UNK         0.0600 
    239 H239        3.3150  -21.4437  -52.7043 H         1 UNK         0.0600 
    240 H240        0.6649  -21.3269  -54.6367 H         1 UNK         0.3000 
    241 H241        1.9708  -20.0983  -56.9624 H         1 UNK         0.0600 
    242 H242       -0.6296  -22.8854  -58.2194 H         1 UNK         0.3800 
    243 H243        0.0433  -22.9179  -56.6084 H         1 UNK         0.3800 
    244 H244        0.1787  -18.4591  -56.9134 H         1 UNK         0.0800 
    245 H245       -0.7320  -19.3693  -55.7464 H         1 UNK         0.0800 
    246 H246        0.1839  -19.8455  -53.2445 H         1 UNK         0.0800 
    247 H247       -0.8563  -18.4506  -53.4059 H         1 UNK         0.0800 
@<TRIPOS>BOND
     1    1    2 1    
     2    1  127 1    
     3    1  128 1    
     4    1  129 1    
     5    2    3 2    
     6    2    4 am   BACKBONE|DICT|INTERRES
     7    4    5 1    
     8    4  130 1    
     9    5    6 1    
    10    5   65 1    
    11    5  131 1    
    12    6    7 1    
    13    6  132 1    
    14    6  133 1    
    15    7    8 1    
    16    8    9 1    
    17    8  134 1    
    18    8  135 1    
    19    9   10 ar   
    20    9   14 ar   
    21   10   11 ar   
    22   10  136 1    
    23   11   12 ar   
    24   11  126 1    
    25   12   13 ar   
    26   12  137 1    
    27   13   14 ar   
    28   13   15 1    
    29   14  138 1    
    30   15   16 1    
    31   15  139 1    
    32   15  140 1    
    33   16   17 1    
    34   17   18 1    
    35   17  141 1    
    36   17  142 1    
    37   18   19 1    
    38   18   67 1    
    39   18  143 1    
    40   19   20 am   BACKBONE|DICT|INTERRES
    41   19  144 1    
    42   20   21 2    
    43   20   22 1    
    44   22   23 1    
    45   22   24 1    
    46   22  145 1    
    47   23  146 1    
    48   23  147 1    
    49   23  148 1    
    50   24   25 am   BACKBONE|DICT|INTERRES
    51   24  149 1    
    52   25   26 2    
    53   25   27 1    
    54   27   28 1    
    55   27   29 1    
    56   27  150 1    
    57   28  151 1    
    58   28  152 1    
    59   28  153 1    
    60   29   30 am   BACKBONE|DICT|INTERRES
    61   29  154 1    
    62   30   31 2    
    63   30   32 1    
    64   32   33 1    
    65   32   34 1    
    66   32  155 1    
    67   33  156 1    
    68   33  157 1    
    69   33  158 1    
    70   34   35 am   BACKBONE|DICT|INTERRES
    71   34  159 1    
    72   35   36 2    
    73   35   37 1    
    74   37   38 1    
    75   37   39 1    
    76   37  160 1    
    77   38  161 1    
    78   38  162 1    
    79   38  163 1    
    80   39   40 am   BACKBONE|DICT|INTERRES
    81   39  164 1    
    82   40   41 2    
    83   40   42 1    
    84   42   43 1    
    85   42   44 1    
    86   42  165 1    
    87   43  166 1    
    88   43  167 1    
    89   43  168 1    
    90   44   45 am   BACKBONE|DICT|INTERRES
    91   44  169 1    
    92   45   46 2    
    93   45   47 1    
    94   47   48 1    
    95   47   49 1    
    96   47  170 1    
    97   48  171 1    
    98   48  172 1    
    99   48  173 1    
   100   49   50 am   BACKBONE|DICT|INTERRES
   101   49  174 1    
   102   50   51 2    
   103   50   52 1    
   104   52   53 1    
   105   52   54 1    
   106   52  175 1    
   107   53  176 1    
   108   53  177 1    
   109   53  178 1    
   110   54   55 am   BACKBONE|DICT|INTERRES
   111   54  179 1    
   112   55   56 2    
   113   55   57 1    
   114   57   58 1    
   115   57   59 1    
   116   57  180 1    
   117   58  181 1    
   118   58  182 1    
   119   58  183 1    
   120   59   60 am   BACKBONE|DICT|INTERRES
   121   59  184 1    
   122   60   61 2    
   123   60   62 1    
   124   62   63 1    
   125   62   64 1    
   126   62  185 1    
   127   63  186 1    
   128   63  187 1    
   129   63  188 1    
   130   64   65 am   BACKBONE|DICT|INTERRES
   131   64  189 1    
   132   65   66 2    
   133   67   68 2    
   134   67   69 am   BACKBONE|DICT|INTERRES
   135   69   70 1    
   136   69  190 1    
   137   70   71 1    
   138   70   72 1    
   139   70  191 1    
   140   71  192 1    
   141   71  193 1    
   142   71  194 1    
   143   72   73 2    
   144   72   74 am   BACKBONE|DICT|INTERRES
   145   74   75 1    
   146   74  195 1    
   147   75   76 1    
   148   75   77 1    
   149   75  196 1    
   150   76  197 1    
   151   76  198 1    
   152   76  199 1    
   153   77   78 2    
   154   77   79 am   BACKBONE|DICT|INTERRES
   155   79   80 1    
   156   79  200 1    
   157   80   81 1    
   158   80   82 1    
   159   80  201 1    
   160   81  202 1    
   161   81  203 1    
   162   81  204 1    
   163   82   83 2    
   164   82   84 am   BACKBONE|DICT|INTERRES
   165   84   85 1    
   166   84  205 1    
   167   85   86 1    
   168   85   87 1    
   169   85  206 1    
   170   86  207 1    
   171   86  208 1    
   172   86  209 1    
   173   87   88 2    
   174   87   89 am   BACKBONE|DICT|INTERRES
   175   89   90 1    
   176   89  210 1    
   177   90   91 1    
   178   90   92 1    
   179   90  211 1    
   180   91  212 1    
   181   91  213 1    
   182   91  214 1    
   183   92   93 2    
   184   92   94 am   BACKBONE|DICT|INTERRES
   185   94   95 1    
   186   94  215 1    
   187   95   96 1    
   188   95   97 1    
   189   95  216 1    
   190   96  217 1    
   191   96  218 1    
   192   96  219 1    
   193   97   98 2    
   194   97   99 am   BACKBONE|DICT|INTERRES
   195   99  100 1    
   196   99  220 1    
   197  100  101 1    
   198  100  102 1    
   199  100  221 1    
   200  101  222 1    
   201  101  223 1    
   202  101  224 1    
   203  102  103 2    
   204  102  104 am   BACKBONE|DICT|INTERRES
   205  104  105 1    
   206  104  225 1    
   207  105  106 1    
   208  105  107 1    
   209  105  226 1    
   210  106  227 1    
   211  106  228 1    
   212  106  229 1    
   213  107  108 2    
   214  107  109 am   BACKBONE|DICT|INTERRES
   215  109  110 1    
   216  109  230 1    
   217  110  111 1    
   218  110  112 1    
   219  110  231 1    
   220  111  232 1    
   221  111  233 1    
   222  111  234 1    
   223  112  113 2    
   224  112  114 am   BACKBONE|DICT|INTERRES
   225  114  115 1    
   226  114  235 1    
   227  115  116 1    
   228  115  117 1    
   229  115  236 1    
   230  116  237 1    
   231  116  238 1    
   232  116  239 1    
   233  117  118 2    
   234  117  119 am   BACKBONE|DICT|INTERRES
   235  119  120 1    
   236  119  240 1    
   237  120  121 1    
   238  120  124 1    
   239  120  241 1    
   240  121  122 am   BACKBONE|DICT|INTERRES
   241  121  123 2    
   242  122  242 1    
   243  122  243 1    
   244  124  125 1    
   245  124  244 1    
   246  124  245 1    
   247  125  126 1    
   248  126  246 1    
   249  126  247 1    
@<TRIPOS>SUBSTRUCTURE
     1 UNK         1 GROUP             0       ****    0 ROOT    
