@<TRIPOS>MOLECULE
3R540
247   249    1
SMALL
USER_CHARGES


@<TRIPOS>ATOM
      1 CA         -1.4576  -17.8435  -49.2872 C.3       0 UNK        -0.1800 
      2 C          -1.3001  -16.4003  -49.7384 C.2       0 UNK         0.5000 
      3 O          -1.2076  -16.1290  -50.9355 O.2       0 UNK        -0.5000 
      4 N          -1.2833  -15.4757  -48.7776 N.am      1 UNK        -0.5000 
      5 CA         -1.1220  -14.0393  -48.9730 C.3       1 UNK         0.1400 
      6 C6          0.3464  -13.6315  -49.2761 C.3       23 UNK        -0.0398 
      7 S7          1.5576  -14.1240  -47.9949 S.3       23 UNK        -0.2404 
      8 C8          2.9689  -14.6837  -49.0006 C.3       23 UNK        -0.0205 
      9 C9          2.8654  -16.1486  -49.4065 C.ar      23 UNK        -0.0193 
     10 C10         2.2369  -16.5144  -50.6026 C.ar      23 UNK        -0.1150 
     11 C11         2.1943  -17.8524  -51.0082 C.ar      23 UNK        -0.0193 
     12 C12         2.8130  -18.8218  -50.2144 C.ar      23 UNK        -0.1150 
     13 C13         3.4261  -18.4773  -49.0077 C.ar      23 UNK        -0.0193 
     14 C14         3.4481  -17.1383  -48.6069 C.ar      23 UNK        -0.1150 
     15 C15         4.0650  -19.5628  -48.1507 C.3       23 UNK        -0.0205 
     16 S16         3.0931  -19.9497  -46.6579 S.3       23 UNK        -0.2404 
     17 C17         1.4004  -20.1422  -47.3155 C.3       23 UNK        -0.0398 
     18 CA          0.5982  -21.3300  -46.7303 C.3       11 UNK         0.1400 
     19 N           0.7499  -21.4950  -45.2789 N.am      11 UNK        -0.5000 
     20 C           0.2032  -22.4779  -44.5472 C.2       10 UNK         0.5000 
     21 O          -0.4779  -23.3832  -45.0352 O.2       10 UNK        -0.5000 
     22 CA          0.4026  -22.4041  -43.0184 C.3       10 UNK         0.1400 
     23 CB          0.2791  -23.7805  -42.3328 C.3       10 UNK        -0.1800 
     24 N           1.6342  -21.7214  -42.6063 N.am      10 UNK        -0.5000 
     25 C           2.9015  -22.0919  -42.8479 C.2       9 UNK         0.5000 
     26 O           3.2110  -23.0872  -43.5038 O.2       9 UNK        -0.5000 
     27 CA          4.0160  -21.2068  -42.2517 C.3       9 UNK         0.1400 
     28 CB          4.9384  -20.6541  -43.3498 C.3       9 UNK        -0.1800 
     29 N           3.4842  -20.0872  -41.4679 N.am      9 UNK        -0.5000 
     30 C           3.2665  -20.1237  -40.1461 C.2       8 UNK         0.5000 
     31 O           3.5240  -21.0969  -39.4364 O.2       8 UNK        -0.5000 
     32 CA          2.6338  -18.8724  -39.5101 C.3       8 UNK         0.1400 
     33 CB          3.6833  -17.7653  -39.3281 C.3       8 UNK        -0.1800 
     34 N           1.4937  -18.3416  -40.2604 N.am      8 UNK        -0.5000 
     35 C           0.3304  -18.9815  -40.4545 C.2       7 UNK         0.5000 
     36 O           0.1114  -20.1352  -40.0867 O.2       7 UNK        -0.5000 
     37 CA         -0.7645  -18.2099  -41.2085 C.3       7 UNK         0.1400 
     38 CB         -1.4392  -17.1731  -40.2964 C.3       7 UNK        -0.1800 
     39 N          -0.2037  -17.5427  -42.3795 N.am      7 UNK        -0.5000 
     40 C          -0.0865  -18.1192  -43.5826 C.2       6 UNK         0.5000 
     41 O          -0.5498  -19.2261  -43.8614 O.2       6 UNK        -0.5000 
     42 CA          0.6918  -17.3490  -44.6625 C.3       6 UNK         0.1400 
     43 CB         -0.2739  -16.6514  -45.6261 C.3       6 UNK        -0.1800 
     44 N           1.6498  -16.3797  -44.1304 N.am      6 UNK        -0.5000 
     45 C           2.7743  -16.7204  -43.4823 C.2       5 UNK         0.5000 
     46 O           3.1016  -17.8835  -43.2516 O.2       5 UNK        -0.5000 
     47 CA          3.6500  -15.5728  -42.9435 C.3       5 UNK         0.1400 
     48 CB          4.6133  -15.0833  -44.0367 C.3       5 UNK        -0.1800 
     49 N           2.8764  -14.4364  -42.4416 N.am      5 UNK        -0.5000 
     50 C           1.9033  -14.4899  -41.5191 C.2       4 UNK         0.5000 
     51 O           1.5913  -15.5170  -40.9151 O.2       4 UNK        -0.5000 
     52 CA          1.1053  -13.1937  -41.2699 C.3       4 UNK         0.1400 
     53 CB          1.5870  -12.5091  -39.9813 C.3       4 UNK        -0.1800 
     54 N           1.1607  -12.2300  -42.3773 N.am      4 UNK        -0.5000 
     55 C           0.7206  -12.4547  -43.6245 C.2       3 UNK         0.5000 
     56 O           0.2480  -13.5303  -44.0008 O.2       3 UNK        -0.5000 
     57 CA          0.9178  -11.3043  -44.6283 C.3       3 UNK         0.1400 
     58 CB          2.3154  -11.3882  -45.2630 C.3       3 UNK        -0.1800 
     59 N          -0.0879  -11.3261  -45.6891 N.am      3 UNK        -0.5000 
     60 C          -1.3759  -10.9944  -45.5241 C.2       2 UNK         0.5000 
     61 O          -1.8392  -10.5779  -44.4609 O.2       2 UNK        -0.5000 
     62 CA         -2.3051  -11.1197  -46.7501 C.3       2 UNK         0.1400 
     63 CB         -2.6033   -9.7321  -47.3402 C.3       2 UNK        -0.1800 
     64 N          -1.7742  -11.9775  -47.8139 N.am      2 UNK        -0.5000 
     65 C          -1.7202  -13.3143  -47.7512 C.2       1 UNK         0.5000 
     66 O          -2.1306  -13.9668  -46.7871 O.2       1 UNK        -0.5000 
     67 C          -0.8773  -21.1665  -47.1457 C.2       11 UNK         0.5000 
     68 O          -1.2549  -21.6132  -48.2269 O.2       11 UNK        -0.5000 
     69 N          -1.6844  -20.5478  -46.2702 N.am      12 UNK        -0.5000 
     70 CA         -3.1196  -20.3387  -46.4494 C.3       12 UNK         0.1400 
     71 CB         -3.6595  -19.5263  -45.2634 C.3       12 UNK        -0.1800 
     72 C          -3.9160  -21.6465  -46.6216 C.2       12 UNK         0.5000 
     73 O          -4.8736  -21.6664  -47.3927 O.2       12 UNK        -0.5000 
     74 N          -3.4925  -22.7212  -45.9395 N.am      13 UNK        -0.5000 
     75 CA         -4.0997  -24.0491  -46.0498 C.3       13 UNK         0.1400 
     76 CB         -3.6326  -24.9295  -44.8810 C.3       13 UNK        -0.1800 
     77 C          -3.7882  -24.7187  -47.4001 C.2       13 UNK         0.5000 
     78 O          -4.6708  -25.3444  -47.9885 O.2       13 UNK        -0.5000 
     79 N          -2.5505  -24.5440  -47.8845 N.am      14 UNK        -0.5000 
     80 CA         -2.1107  -25.0060  -49.2012 C.3       14 UNK         0.1400 
     81 CB         -0.5800  -24.9173  -49.2977 C.3       14 UNK        -0.1800 
     82 C          -2.7854  -24.2140  -50.3339 C.2       14 UNK         0.5000 
     83 O          -3.2559  -24.8110  -51.3014 O.2       14 UNK        -0.5000 
     84 N          -2.8677  -22.8879  -50.1678 N.am      15 UNK        -0.5000 
     85 CA         -3.5442  -21.9717  -51.0820 C.3       15 UNK         0.1400 
     86 CB         -3.2577  -20.5297  -50.6574 C.3       15 UNK        -0.1800 
     87 C          -5.0571  -22.2264  -51.1818 C.2       15 UNK         0.5000 
     88 O          -5.6017  -22.1522  -52.2795 O.2       15 UNK        -0.5000 
     89 N          -5.7061  -22.5753  -50.0617 N.am      16 UNK        -0.5000 
     90 CA         -7.1164  -22.9707  -50.0223 C.3       16 UNK         0.1400 
     91 CB         -7.5761  -23.1154  -48.5638 C.3       16 UNK        -0.1800 
     92 C          -7.4048  -24.2614  -50.8134 C.2       16 UNK         0.5000 
     93 O          -8.4625  -24.3632  -51.4359 O.2       16 UNK        -0.5000 
     94 N          -6.4572  -25.2092  -50.7953 N.am      17 UNK        -0.5000 
     95 CA         -6.5193  -26.4474  -51.5709 C.3       17 UNK         0.1400 
     96 CB         -5.5523  -27.4792  -50.9694 C.3       17 UNK        -0.1800 
     97 C          -6.2225  -26.2139  -53.0645 C.2       17 UNK         0.5000 
     98 O          -6.9188  -26.7698  -53.9148 O.2       17 UNK        -0.5000 
     99 N          -5.2007  -25.3973  -53.3572 N.am      18 UNK        -0.5000 
    100 CA        -4.7648  -25.0564  -54.7146 C.3       18 UNK         0.1400 
    101 CB        -3.3675  -24.4202  -54.6425 C.3       18 UNK        -0.1800 
    102 C         -5.7332  -24.1204  -55.4656 C.2       18 UNK         0.5000 
    103 O         -5.7962  -24.1876  -56.6940 O.2       18 UNK        -0.5000 
    104 N         -6.4468  -23.2769  -54.7071 N.am      19 UNK        -0.5000 
    105 CA        -7.2669  -22.1273  -55.0993 C.3       19 UNK         0.1400 
    106 CB        -8.2798  -22.4675  -56.2106 C.3       19 UNK        -0.1800 
    107 C         -6.4041  -20.8994  -55.4546 C.2       19 UNK         0.5000 
    108 O         -5.2717  -21.0417  -55.9211 O.2       19 UNK        -0.5000 
    109 N         -6.9755  -19.7077  -55.2222 N.am      20 UNK        -0.5000 
    110 CA        -6.3592  -18.3813  -55.3676 C.3       20 UNK         0.1400 
    111 CB        -6.0043  -18.0991  -56.8450 C.3       20 UNK        -0.1800 
    112 C         -5.1709  -18.1635  -54.4011 C.2       20 UNK         0.5000 
    113 O         -5.0490  -18.8722  -53.3995 O.2       20 UNK        -0.5000 
    114 N         -4.3221  -17.1689  -54.6911 N.am      21 UNK        -0.5000 
    115 CA        -3.1059  -16.8501  -53.9384 C.3       21 UNK         0.1400 
    116 CB        -2.7525  -15.3698  -54.1705 C.3       21 UNK        -0.1800 
    117 C         -1.9607  -17.8071  -54.3286 C.2       21 UNK         0.5000 
    118 O         -0.9902  -17.3868  -54.9622 O.2       21 UNK        -0.5000 
    119 N         -2.1360  -19.0849  -53.9715 N.am      22 UNK        -0.5000 
    120 CA        -1.3058  -20.2436  -54.3414 C.3       22 UNK         0.1400 
    121 C         -1.4719  -20.6783  -55.8286 C.2       22 UNK         0.5000 
    122 N         -1.0256  -21.8791  -56.1754 N.am      22 UNK        -0.7600 
    123 O         -1.9821  -19.9525  -56.6790 O.2       22 UNK        -0.5000 
    124 C124        0.1965  -20.1004  -53.9632 C.3       23 UNK        -0.0398 
    125 S125        0.4802  -19.7276  -52.1992 S.3       23 UNK        -0.2404 
    126 C126        1.5299  -18.2376  -52.3268 C.3       23 UNK        -0.0205 
    127 H127       -1.2347  -17.9659  -48.2278 H         1 UNK         0.0600 
    128 H128       -2.4823  -18.1688  -49.4600 H         1 UNK         0.0600 
    129 H129       -0.7822  -18.4908  -49.8452 H         1 UNK         0.0600 
    130 H130       -1.4298  -15.7269  -47.8078 H         1 UNK         0.3000 
    131 H131       -1.7389  -13.7487  -49.8263 H         1 UNK         0.0600 
    132 H132        0.6373  -14.0665  -50.2311 H         1 UNK         0.0800 
    133 H133        0.4272  -12.5540  -49.4240 H         1 UNK         0.0800 
    134 H134        3.8809  -14.5323  -48.4212 H         1 UNK         0.0800 
    135 H135        3.0714  -14.0509  -49.8835 H         1 UNK         0.0800 
    136 H136        1.7900  -15.7562  -51.2288 H         1 UNK         0.1150 
    137 H137        2.8056  -19.8549  -50.5324 H         1 UNK         0.1150 
    138 H138        3.9297  -16.8667  -47.6778 H         1 UNK         0.1150 
    139 H139        4.2003  -20.4788  -48.7287 H         1 UNK         0.0800 
    140 H140        5.0639  -19.2441  -47.8488 H         1 UNK         0.0800 
    141 H141        1.4482  -20.2745  -48.3974 H         1 UNK         0.0800 
    142 H142        0.8843  -19.1923  -47.1617 H         1 UNK         0.0800 
    143 H143        0.9693  -22.2483  -47.1907 H         1 UNK         0.0600 
    144 H144        1.2846  -20.7835  -44.8011 H         1 UNK         0.3000 
    145 H145       -0.4150  -21.7846  -42.6466 H         1 UNK         0.0600 
    146 H146        0.4034  -23.6945  -41.2532 H         1 UNK         0.0600 
    147 H147       -0.7033  -24.2204  -42.5106 H         1 UNK         0.0600 
    148 H148        1.0237  -24.4858  -42.7030 H         1 UNK         0.0600 
    149 H149        1.4995  -20.8975  -42.0370 H         1 UNK         0.3000 
    150 H150        4.6215  -21.8502  -41.6100 H         1 UNK         0.0600 
    151 H151        5.3910  -21.4609  -43.9278 H         1 UNK         0.0600 
    152 H152        5.7506  -20.0652  -42.9228 H         1 UNK         0.0600 
    153 H153        4.3963  -20.0172  -44.0470 H         1 UNK         0.0600 
    154 H154        3.2622  -19.2427  -41.9926 H         1 UNK         0.3000 
    155 H155        2.2693  -19.1549  -38.5200 H         1 UNK         0.0600 
    156 H156        4.0833  -17.4307  -40.2852 H         1 UNK         0.0600 
    157 H157        4.5226  -18.1169  -38.7263 H         1 UNK         0.0600 
    158 H158        3.2592  -16.8983  -38.8210 H         1 UNK         0.0600 
    159 H159        1.5748  -17.3786  -40.5759 H         1 UNK         0.3000 
    160 H160       -1.5295  -18.9246  -41.5219 H         1 UNK         0.0600 
    161 H161       -2.2382  -16.6499  -40.8225 H         1 UNK         0.0600 
    162 H162       -0.7331  -16.4256  -39.9324 H         1 UNK         0.0600 
    163 H163       -1.8847  -17.6544  -39.4242 H         1 UNK         0.0600 
    164 H164        0.2408  -16.6471  -42.2224 H         1 UNK         0.3000 
    165 H165        1.2591  -18.0887  -45.2260 H         1 UNK         0.0600 
    166 H166        0.2592  -16.2762  -46.4993 H         1 UNK         0.0600 
    167 H167       -1.0425  -17.3403  -45.9809 H         1 UNK         0.0600 
    168 H168       -0.7818  -15.8113  -45.1490 H         1 UNK         0.0600 
    169 H169        1.4111  -15.3997  -44.2331 H         1 UNK         0.3000 
    170 H170        4.2419  -15.9625  -42.1138 H         1 UNK         0.0600 
    171 H171        5.2169  -15.9065  -44.4230 H         1 UNK         0.0600 
    172 H172        4.0763  -14.6469  -44.8808 H         1 UNK         0.0600 
    173 H173        5.3019  -14.3311  -43.6497 H         1 UNK         0.0600 
    174 H174        3.0549  -13.5456  -42.8797 H         1 UNK         0.3000 
    175 H175        0.0601  -13.4817  -41.1352 H         1 UNK         0.0600 
    176 H176        0.9704  -11.6426  -39.7394 H         1 UNK         0.0600 
    177 H177        1.5316  -13.1914  -39.1316 H         1 UNK         0.0600 
    178 H178        2.6222  -12.1743  -40.0661 H         1 UNK         0.0600 
    179 H179        1.5534  -11.3257  -42.1569 H         1 UNK         0.3000 
    180 H180        0.8335  -10.3542  -44.0960 H         1 UNK         0.0600 
    181 H181        2.4715  -12.3399  -45.7717 H         1 UNK         0.0600 
    182 H182        3.0958  -11.2915  -44.5072 H         1 UNK         0.0600 
    183 H183        2.4691  -10.5898  -45.9896 H         1 UNK         0.0600 
    184 H184        0.2002  -11.7070  -46.5775 H         1 UNK         0.3000 
    185 H185       -3.2470  -11.5477  -46.3998 H         1 UNK         0.0600 
    186 H186       -1.6994   -9.2529  -47.7186 H         1 UNK         0.0600 
    187 H187       -3.3192   -9.7967  -48.1600 H         1 UNK         0.0600 
    188 H188       -3.0343   -9.0706  -46.5874 H         1 UNK         0.0600 
    189 H189       -1.4395  -11.5041  -48.6407 H         1 UNK         0.3000 
    190 H190       -1.2840  -20.2074  -45.4002 H         1 UNK         0.3000 
    191 H191       -3.2554  -19.7470  -47.3562 H         1 UNK         0.0600 
    192 H192       -3.5032  -20.0450  -44.3166 H         1 UNK         0.0600 
    193 H193       -4.7299  -19.3442  -45.3677 H         1 UNK         0.0600 
    194 H194       -3.1702  -18.5546  -45.1955 H         1 UNK         0.0600 
    195 H195       -2.6599  -22.6460  -45.3704 H         1 UNK         0.3000 
    196 H196       -5.1836  -23.9372  -45.9754 H         1 UNK         0.0600 
    197 H197       -4.1154  -25.9070  -44.9144 H         1 UNK         0.0600 
    198 H198       -3.8816  -24.4766  -43.9212 H         1 UNK         0.0600 
    199 H199       -2.5554  -25.0966  -44.9038 H         1 UNK         0.0600 
    200 H200       -1.8938  -23.9949  -47.3480 H         1 UNK         0.3000 
    201 H201       -2.3975  -26.0543  -49.3095 H         1 UNK         0.0600 
    202 H202       -0.1012  -25.5158  -48.5225 H         1 UNK         0.0600 
    203 H203       -0.2235  -23.8920  -49.1966 H         1 UNK         0.0600 
    204 H204       -0.2298  -25.2914  -50.2605 H         1 UNK         0.0600 
    205 H205       -2.4017  -22.4671  -49.3666 H         1 UNK         0.3000 
    206 H206       -3.1187  -22.1222  -52.0753 H         1 UNK         0.0600 
    207 H207       -2.1867  -20.3304  -50.6688 H         1 UNK         0.0600 
    208 H208       -3.7299  -19.8163  -51.3317 H         1 UNK         0.0600 
    209 H209       -3.6305  -20.3294  -49.6533 H         1 UNK         0.0600 
    210 H210       -5.2162  -22.5428  -49.1738 H         1 UNK         0.3000 
    211 H211       -7.6986  -22.1688  -50.4811 H         1 UNK         0.0600 
    212 H212       -6.9887  -23.8613  -48.0281 H         1 UNK         0.0600 
    213 H213       -8.6221  -23.4202  -48.5111 H         1 UNK         0.0600 
    214 H214       -7.4878  -22.1705  -48.0279 H         1 UNK         0.0600 
    215 H215       -5.6213  -25.0525  -50.2473 H         1 UNK         0.3000 
    216 H216       -7.5299  -26.8538  -51.4913 H         1 UNK         0.0600 
    217 H217       -5.6103  -28.4264  -51.5070 H         1 UNK         0.0600 
    218 H218       -5.7927  -27.6815  -49.9254 H         1 UNK         0.0600 
    219 H219       -4.5169  -27.1415  -51.0127 H         1 UNK         0.0600 
    220 H220       -4.6357  -25.0333  -52.5943 H         1 UNK         0.3000 
    221 H221       -4.6871  -25.9824  -55.2882 H         1 UNK         0.0600 
    222 H222       -2.9892  -24.1956  -55.6404 H         1 UNK         0.0600 
    223 H223       -3.3830  -23.4855  -54.0811 H         1 UNK         0.0600 
    224 H224       -2.6514  -25.0884  -54.1640 H         1 UNK         0.0600 
    225 H225       -6.2145  -23.2681  -53.7182 H         1 UNK         0.3000 
    226 H226       -7.8350  -21.8748  -54.2024 H         1 UNK         0.0600 
    227 H227       -7.7950  -22.6100  -57.1765 H         1 UNK         0.0600 
    228 H228       -9.0036  -21.6612  -56.3328 H         1 UNK         0.0600 
    229 H229       -8.8384  -23.3732  -55.9744 H         1 UNK         0.0600 
    230 H230       -7.8993  -19.7010  -54.8138 H         1 UNK         0.3000 
    231 H231       -7.1249  -17.6638  -55.0696 H         1 UNK         0.0600 
    232 H232       -6.8360  -18.3497  -57.5035 H         1 UNK         0.0600 
    233 H233       -5.1366  -18.6740  -57.1713 H         1 UNK         0.0600 
    234 H234       -5.7800  -17.0445  -57.0066 H         1 UNK         0.0600 
    235 H235       -4.4666  -16.6445  -55.5414 H         1 UNK         0.3000 
    236 H236       -3.2947  -16.9796  -52.8702 H         1 UNK         0.0600 
    237 H237       -3.5562  -14.7158  -53.8322 H         1 UNK         0.0600 
    238 H238       -1.8557  -15.0944  -53.6137 H         1 UNK         0.0600 
    239 H239       -2.5660  -15.1570  -55.2238 H         1 UNK         0.0600 
    240 H240       -3.0196  -19.3100  -53.5290 H         1 UNK         0.3000 
    241 H241       -1.7130  -21.0658  -53.7526 H         1 UNK         0.0600 
    242 H242       -1.1233  -22.1708  -57.1353 H         1 UNK         0.3800 
    243 H243       -0.6004  -22.5060  -55.5110 H         1 UNK         0.3800 
    244 H244        0.7297  -21.0280  -54.1755 H         1 UNK         0.0800 
    245 H245        0.6744  -19.3422  -54.5846 H         1 UNK         0.0800 
    246 H246        0.9165  -17.4162  -52.7016 H         1 UNK         0.0800 
    247 H247        2.3149  -18.4085  -53.0644 H         1 UNK         0.0800 
@<TRIPOS>BOND
     1    1    2 1    
     2    1  127 1    
     3    1  128 1    
     4    1  129 1    
     5    2    3 2    
     6    2    4 am   BACKBONE|DICT|INTERRES
     7    4    5 1    
     8    4  130 1    
     9    5    6 1    
    10    5   65 1    
    11    5  131 1    
    12    6    7 1    
    13    6  132 1    
    14    6  133 1    
    15    7    8 1    
    16    8    9 1    
    17    8  134 1    
    18    8  135 1    
    19    9   10 ar   
    20    9   14 ar   
    21   10   11 ar   
    22   10  136 1    
    23   11   12 ar   
    24   11  126 1    
    25   12   13 ar   
    26   12  137 1    
    27   13   14 ar   
    28   13   15 1    
    29   14  138 1    
    30   15   16 1    
    31   15  139 1    
    32   15  140 1    
    33   16   17 1    
    34   17   18 1    
    35   17  141 1    
    36   17  142 1    
    37   18   19 1    
    38   18   67 1    
    39   18  143 1    
    40   19   20 am   BACKBONE|DICT|INTERRES
    41   19  144 1    
    42   20   21 2    
    43   20   22 1    
    44   22   23 1    
    45   22   24 1    
    46   22  145 1    
    47   23  146 1    
    48   23  147 1    
    49   23  148 1    
    50   24   25 am   BACKBONE|DICT|INTERRES
    51   24  149 1    
    52   25   26 2    
    53   25   27 1    
    54   27   28 1    
    55   27   29 1    
    56   27  150 1    
    57   28  151 1    
    58   28  152 1    
    59   28  153 1    
    60   29   30 am   BACKBONE|DICT|INTERRES
    61   29  154 1    
    62   30   31 2    
    63   30   32 1    
    64   32   33 1    
    65   32   34 1    
    66   32  155 1    
    67   33  156 1    
    68   33  157 1    
    69   33  158 1    
    70   34   35 am   BACKBONE|DICT|INTERRES
    71   34  159 1    
    72   35   36 2    
    73   35   37 1    
    74   37   38 1    
    75   37   39 1    
    76   37  160 1    
    77   38  161 1    
    78   38  162 1    
    79   38  163 1    
    80   39   40 am   BACKBONE|DICT|INTERRES
    81   39  164 1    
    82   40   41 2    
    83   40   42 1    
    84   42   43 1    
    85   42   44 1    
    86   42  165 1    
    87   43  166 1    
    88   43  167 1    
    89   43  168 1    
    90   44   45 am   BACKBONE|DICT|INTERRES
    91   44  169 1    
    92   45   46 2    
    93   45   47 1    
    94   47   48 1    
    95   47   49 1    
    96   47  170 1    
    97   48  171 1    
    98   48  172 1    
    99   48  173 1    
   100   49   50 am   BACKBONE|DICT|INTERRES
   101   49  174 1    
   102   50   51 2    
   103   50   52 1    
   104   52   53 1    
   105   52   54 1    
   106   52  175 1    
   107   53  176 1    
   108   53  177 1    
   109   53  178 1    
   110   54   55 am   BACKBONE|DICT|INTERRES
   111   54  179 1    
   112   55   56 2    
   113   55   57 1    
   114   57   58 1    
   115   57   59 1    
   116   57  180 1    
   117   58  181 1    
   118   58  182 1    
   119   58  183 1    
   120   59   60 am   BACKBONE|DICT|INTERRES
   121   59  184 1    
   122   60   61 2    
   123   60   62 1    
   124   62   63 1    
   125   62   64 1    
   126   62  185 1    
   127   63  186 1    
   128   63  187 1    
   129   63  188 1    
   130   64   65 am   BACKBONE|DICT|INTERRES
   131   64  189 1    
   132   65   66 2    
   133   67   68 2    
   134   67   69 am   BACKBONE|DICT|INTERRES
   135   69   70 1    
   136   69  190 1    
   137   70   71 1    
   138   70   72 1    
   139   70  191 1    
   140   71  192 1    
   141   71  193 1    
   142   71  194 1    
   143   72   73 2    
   144   72   74 am   BACKBONE|DICT|INTERRES
   145   74   75 1    
   146   74  195 1    
   147   75   76 1    
   148   75   77 1    
   149   75  196 1    
   150   76  197 1    
   151   76  198 1    
   152   76  199 1    
   153   77   78 2    
   154   77   79 am   BACKBONE|DICT|INTERRES
   155   79   80 1    
   156   79  200 1    
   157   80   81 1    
   158   80   82 1    
   159   80  201 1    
   160   81  202 1    
   161   81  203 1    
   162   81  204 1    
   163   82   83 2    
   164   82   84 am   BACKBONE|DICT|INTERRES
   165   84   85 1    
   166   84  205 1    
   167   85   86 1    
   168   85   87 1    
   169   85  206 1    
   170   86  207 1    
   171   86  208 1    
   172   86  209 1    
   173   87   88 2    
   174   87   89 am   BACKBONE|DICT|INTERRES
   175   89   90 1    
   176   89  210 1    
   177   90   91 1    
   178   90   92 1    
   179   90  211 1    
   180   91  212 1    
   181   91  213 1    
   182   91  214 1    
   183   92   93 2    
   184   92   94 am   BACKBONE|DICT|INTERRES
   185   94   95 1    
   186   94  215 1    
   187   95   96 1    
   188   95   97 1    
   189   95  216 1    
   190   96  217 1    
   191   96  218 1    
   192   96  219 1    
   193   97   98 2    
   194   97   99 am   BACKBONE|DICT|INTERRES
   195   99  100 1    
   196   99  220 1    
   197  100  101 1    
   198  100  102 1    
   199  100  221 1    
   200  101  222 1    
   201  101  223 1    
   202  101  224 1    
   203  102  103 2    
   204  102  104 am   BACKBONE|DICT|INTERRES
   205  104  105 1    
   206  104  225 1    
   207  105  106 1    
   208  105  107 1    
   209  105  226 1    
   210  106  227 1    
   211  106  228 1    
   212  106  229 1    
   213  107  108 2    
   214  107  109 am   BACKBONE|DICT|INTERRES
   215  109  110 1    
   216  109  230 1    
   217  110  111 1    
   218  110  112 1    
   219  110  231 1    
   220  111  232 1    
   221  111  233 1    
   222  111  234 1    
   223  112  113 2    
   224  112  114 am   BACKBONE|DICT|INTERRES
   225  114  115 1    
   226  114  235 1    
   227  115  116 1    
   228  115  117 1    
   229  115  236 1    
   230  116  237 1    
   231  116  238 1    
   232  116  239 1    
   233  117  118 2    
   234  117  119 am   BACKBONE|DICT|INTERRES
   235  119  120 1    
   236  119  240 1    
   237  120  121 1    
   238  120  124 1    
   239  120  241 1    
   240  121  122 am   BACKBONE|DICT|INTERRES
   241  121  123 2    
   242  122  242 1    
   243  122  243 1    
   244  124  125 1    
   245  124  244 1    
   246  124  245 1    
   247  125  126 1    
   248  126  246 1    
   249  126  247 1    
@<TRIPOS>SUBSTRUCTURE
     1 UNK         1 GROUP             0       ****    0 ROOT    
