@<TRIPOS>MOLECULE
3R540
247   249    1
SMALL
USER_CHARGES


@<TRIPOS>ATOM
      1 CA          3.8227  -16.5479  -46.7270 C.3       0 UNK        -0.1800 
      2 C           3.3662  -15.2382  -47.3521 C.2       0 UNK         0.5000 
      3 O           4.0969  -14.2478  -47.2988 O.2       0 UNK        -0.5000 
      4 N           2.1563  -15.2295  -47.9249 N.am      1 UNK        -0.5000 
      5 CA          1.4633  -14.1087  -48.5776 C.3       1 UNK         0.1400 
      6 C6          2.1585  -13.5485  -49.8526 C.3       23 UNK        -0.0398 
      7 S7          2.6602  -14.8005  -51.0826 S.3       23 UNK        -0.2404 
      8 C8          1.0992  -15.1387  -51.9625 C.3       23 UNK        -0.0205 
      9 C9          0.1975  -16.0635  -51.1596 C.ar      23 UNK        -0.0193 
     10 C10        -1.0599  -15.6364  -50.7217 C.ar      23 UNK        -0.1150 
     11 C11        -1.8560  -16.4708  -49.9303 C.ar      23 UNK        -0.0193 
     12 C12        -1.3921  -17.7447  -49.5906 C.ar      23 UNK        -0.1150 
     13 C13        -0.1457  -18.1866  -50.0405 C.ar      23 UNK        -0.0193 
     14 C14         0.6399  -17.3468  -50.8298 C.ar      23 UNK        -0.1150 
     15 C15         0.3638  -19.5606  -49.6540 C.3       23 UNK        -0.0205 
     16 S16         1.0357  -19.5375  -47.9648 S.3       23 UNK        -0.2404 
     17 C17         1.5300  -21.2772  -47.7514 C.3       23 UNK        -0.0398 
     18 CA          0.4920  -22.1969  -47.0621 C.3       11 UNK         0.1400 
     19 N           0.3104  -21.9107  -45.6362 N.am      11 UNK        -0.5000 
     20 C          -0.1953  -22.8086  -44.7772 C.2       10 UNK         0.5000 
     21 O          -0.5408  -23.9432  -45.1084 O.2       10 UNK        -0.5000 
     22 CA         -0.3831  -22.3679  -43.3171 C.3       10 UNK         0.1400 
     23 CB          0.9553  -22.3876  -42.5641 C.3       10 UNK        -0.1800 
     24 N          -1.0135  -21.0541  -43.1944 N.am      10 UNK        -0.5000 
     25 C          -2.2554  -20.7688  -43.6110 C.2       9 UNK         0.5000 
     26 O          -3.0017  -21.5909  -44.1411 O.2       9 UNK        -0.5000 
     27 CA         -2.7402  -19.3193  -43.4324 C.3       9 UNK         0.1400 
     28 CB         -3.2097  -19.0764  -41.9904 C.3       9 UNK        -0.1800 
     29 N          -1.7210  -18.3353  -43.7948 N.am      9 UNK        -0.5000 
     30 C          -1.2359  -18.1731  -45.0343 C.2       8 UNK         0.5000 
     31 O          -1.6415  -18.8021  -46.0107 O.2       8 UNK        -0.5000 
     32 CA         -0.0699  -17.1796  -45.1992 C.3       8 UNK         0.1400 
     33 CB         -0.5750  -15.7307  -45.2511 C.3       8 UNK        -0.1800 
     34 N           0.9332  -17.3109  -44.1421 N.am      8 UNK        -0.5000 
     35 C           1.6540  -18.4179  -43.9077 C.2       7 UNK         0.5000 
     36 O           1.5912  -19.4426  -44.5872 O.2       7 UNK        -0.5000 
     37 CA          2.5592  -18.3924  -42.6658 C.3       7 UNK         0.1400 
     38 CB          3.8598  -17.6243  -42.9453 C.3       7 UNK        -0.1800 
     39 N           1.8764  -17.8174  -41.5058 N.am      7 UNK        -0.5000 
     40 C           0.8558  -18.4068  -40.8655 C.2       6 UNK         0.5000 
     41 O           0.4017  -19.5075  -41.1718 O.2       6 UNK        -0.5000 
     42 CA          0.2076  -17.6196  -39.7133 C.3       6 UNK         0.1400 
     43 CB          1.0014  -17.8106  -38.4124 C.3       6 UNK        -0.1800 
     44 N           0.0905  -16.1918  -40.0053 N.am      6 UNK        -0.5000 
     45 C          -0.6863  -15.6727  -40.9668 C.2       5 UNK         0.5000 
     46 O          -1.4198  -16.3416  -41.6930 O.2       5 UNK        -0.5000 
     47 CA         -0.5752  -14.1539  -41.1882 C.3       5 UNK         0.1400 
     48 CB         -1.5074  -13.3951  -40.2322 C.3       5 UNK        -0.1800 
     49 N           0.7969  -13.6637  -41.0281 N.am      5 UNK        -0.5000 
     50 C           1.8133  -14.0167  -41.8238 C.2       4 UNK         0.5000 
     51 O           1.6998  -14.7870  -42.7825 O.2       4 UNK        -0.5000 
     52 CA          3.1921  -13.4482  -41.4764 C.3       4 UNK         0.1400 
     53 CB          3.9772  -14.4161  -40.5729 C.3       4 UNK        -0.1800 
     54 N           3.8874  -13.2308  -42.7347 N.am      4 UNK        -0.5000 
     55 C           4.9554  -12.4527  -42.9316 C.2       3 UNK         0.5000 
     56 O           5.5892  -11.9048  -42.0288 O.2       3 UNK        -0.5000 
     57 CA          5.3464  -12.2111  -44.4020 C.3       3 UNK         0.1400 
     58 CB          6.2598  -13.3381  -44.9085 C.3       3 UNK        -0.1800 
     59 N           4.1794  -12.0963  -45.2854 N.am      3 UNK        -0.5000 
     60 C           3.2671  -11.1098  -45.2152 C.2       2 UNK         0.5000 
     61 O           3.3492  -10.1758  -44.4163 O.2       2 UNK        -0.5000 
     62 CA          2.0625  -11.1549  -46.1761 C.3       2 UNK         0.1400 
     63 CB          1.9200   -9.8457  -46.9741 C.3       2 UNK        -0.1800 
     64 N           2.1411  -12.2786  -47.1037 N.am      2 UNK        -0.5000 
     65 C           1.1110  -12.9703  -47.5977 C.2       1 UNK         0.5000 
     66 O          -0.0667  -12.7446  -47.3179 O.2       1 UNK        -0.5000 
     67 C          -0.8542  -22.3015  -47.8142 C.2       11 UNK         0.5000 
     68 O          -0.9630  -23.1116  -48.7358 O.2       11 UNK        -0.5000 
     69 N          -1.8664  -21.5264  -47.3927 N.am      12 UNK        -0.5000 
     70 CA         -3.2396  -21.6275  -47.8909 C.3       12 UNK         0.1400 
     71 CB         -4.0797  -20.4496  -47.3780 C.3       12 UNK        -0.1800 
     72 C          -3.8942  -22.9698  -47.5171 C.2       12 UNK         0.5000 
     73 O          -4.4979  -23.6094  -48.3773 O.2       12 UNK        -0.5000 
     74 N          -3.7143  -23.4084  -46.2620 N.am      13 UNK        -0.5000 
     75 CA         -4.1675  -24.7094  -45.7592 C.3       13 UNK         0.1400 
     76 CB         -3.9573  -24.7766  -44.2392 C.3       13 UNK        -0.1800 
     77 C          -3.4827  -25.8995  -46.4600 C.2       13 UNK         0.5000 
     78 O          -4.1288  -26.9211  -46.6946 O.2       13 UNK        -0.5000 
     79 N          -2.2039  -25.7290  -46.8224 N.am      14 UNK        -0.5000 
     80 CA         -1.4261  -26.6659  -47.6373 C.3       14 UNK         0.1400 
     81 CB          0.0687  -26.3638  -47.4460 C.3       14 UNK        -0.1800 
     82 C          -1.7937  -26.6352  -49.1379 C.2       14 UNK         0.5000 
     83 O          -1.3156  -27.4895  -49.8851 O.2       14 UNK        -0.5000 
     84 N          -2.6156  -25.6586  -49.5523 N.am      15 UNK        -0.5000 
     85 CA         -3.0746  -25.3832  -50.9160 C.3       15 UNK         0.1400 
     86 CB         -3.9592  -26.5291  -51.4485 C.3       15 UNK        -0.1800 
     87 C          -1.9303  -25.0019  -51.8765 C.2       15 UNK         0.5000 
     88 O          -1.9845  -25.3305  -53.0627 O.2       15 UNK        -0.5000 
     89 N          -0.9247  -24.2760  -51.3652 N.am      16 UNK        -0.5000 
     90 CA          0.2280  -23.7914  -52.1336 C.3       16 UNK         0.1400 
     91 CB          1.2741  -23.2261  -51.1659 C.3       16 UNK        -0.1800 
     92 C          -0.1471  -22.7335  -53.1913 C.2       16 UNK         0.5000 
     93 O           0.5626  -22.5871  -54.1863 O.2       16 UNK        -0.5000 
     94 N          -1.2757  -22.0447  -52.9725 N.am      17 UNK        -0.5000 
     95 CA         -1.9049  -21.1199  -53.9170 C.3       17 UNK         0.1400 
     96 CB         -2.8198  -20.1710  -53.1273 C.3       17 UNK        -0.1800 
     97 C          -2.6888  -21.8335  -55.0430 C.2       17 UNK         0.5000 
     98 O          -3.2336  -21.1547  -55.9147 O.2       17 UNK        -0.5000 
     99 N          -2.7471  -23.1747  -55.0087 N.am      18 UNK        -0.5000 
    100 CA        -3.4328  -24.0602  -55.9505 C.3       18 UNK         0.1400 
    101 CB        -2.7461  -24.0195  -57.3351 C.3       18 UNK        -0.1800 
    102 C         -4.9509  -23.7915  -55.9772 C.2       18 UNK         0.5000 
    103 O         -5.5630  -23.7030  -54.9107 O.2       18 UNK        -0.5000 
    104 N         -5.5315  -23.6585  -57.1775 N.am      19 UNK        -0.5000 
    105 CA        -6.9632  -23.4615  -57.4236 C.3       19 UNK         0.1400 
    106 CB        -7.2139  -23.5041  -58.9390 C.3       19 UNK        -0.1800 
    107 C         -7.5557  -22.1734  -56.8165 C.2       19 UNK         0.5000 
    108 O         -8.7684  -22.1135  -56.6089 O.2       19 UNK        -0.5000 
    109 N         -6.7066  -21.1756  -56.5302 N.am      20 UNK        -0.5000 
    110 CA        -7.0940  -19.9412  -55.8456 C.3       20 UNK         0.1400 
    111 CB        -5.9890  -18.8905  -56.0308 C.3       20 UNK        -0.1800 
    112 C         -7.3872  -20.1506  -54.3467 C.2       20 UNK         0.5000 
    113 O         -8.1432  -19.3649  -53.7731 O.2       20 UNK        -0.5000 
    114 N         -6.7849  -21.1906  -53.7460 N.am      21 UNK        -0.5000 
    115 CA        -6.8467  -21.6253  -52.3435 C.3       21 UNK         0.1400 
    116 CB        -8.2739  -22.0498  -51.9508 C.3       21 UNK        -0.1800 
    117 C         -6.2617  -20.6200  -51.3311 C.2       21 UNK         0.5000 
    118 O         -5.3972  -20.9952  -50.5413 O.2       21 UNK        -0.5000 
    119 N         -6.7227  -19.3658  -51.3874 N.am      22 UNK        -0.5000 
    120 CA        -6.2965  -18.2275  -50.5580 C.3       22 UNK         0.1400 
    121 C         -6.7040  -18.3173  -49.0532 C.2       22 UNK         0.5000 
    122 N         -7.6382  -19.1817  -48.6754 N.am      22 UNK        -0.7600 
    123 O         -6.1971  -17.5770  -48.2158 O.2       22 UNK        -0.5000 
    124 C124       -4.7990  -17.8744  -50.7842 C.3       23 UNK        -0.0398 
    125 S125       -4.4781  -16.0786  -50.7196 S.3       23 UNK        -0.2404 
    126 C126       -3.2045  -15.9825  -49.4246 C.3       23 UNK        -0.0205 
    127 H127        4.6831  -16.9414  -47.2678 H         1 UNK         0.0600 
    128 H128        3.0354  -17.3024  -46.7401 H         1 UNK         0.0600 
    129 H129        4.1161  -16.3820  -45.6911 H         1 UNK         0.0600 
    130 H130        1.6327  -16.0930  -47.9349 H         1 UNK         0.3000 
    131 H131        0.5061  -14.5230  -48.8852 H         1 UNK         0.0600 
    132 H132        1.5109  -12.8219  -50.3463 H         1 UNK         0.0800 
    133 H133        3.0642  -13.0027  -49.5845 H         1 UNK         0.0800 
    134 H134        0.5965  -14.2002  -52.2011 H         1 UNK         0.0800 
    135 H135        1.3292  -15.6160  -52.9160 H         1 UNK         0.0800 
    136 H136       -1.4125  -14.6463  -50.9751 H         1 UNK         0.1150 
    137 H137       -1.9893  -18.3902  -48.9623 H         1 UNK         0.1150 
    138 H138        1.6129  -17.6786  -51.1645 H         1 UNK         0.1150 
    139 H139       -0.4519  -20.2788  -49.7332 H         1 UNK         0.0800 
    140 H140        1.1380  -19.8885  -50.3493 H         1 UNK         0.0800 
    141 H141        2.4485  -21.2791  -47.1629 H         1 UNK         0.0800 
    142 H142        1.8181  -21.6888  -48.7174 H         1 UNK         0.0800 
    143 H143        0.9288  -23.1963  -47.1135 H         1 UNK         0.0600 
    144 H144        0.5940  -20.9916  -45.3054 H         1 UNK         0.3000 
    145 H145       -1.0443  -23.0940  -42.8395 H         1 UNK         0.0600 
    146 H146        0.8115  -22.1942  -41.5012 H         1 UNK         0.0600 
    147 H147        1.6476  -21.6397  -42.9504 H         1 UNK         0.0600 
    148 H148        1.4396  -23.3609  -42.6529 H         1 UNK         0.0600 
    149 H149       -0.4743  -20.3366  -42.7196 H         1 UNK         0.3000 
    150 H150       -3.5956  -19.1720  -44.0947 H         1 UNK         0.0600 
    151 H151       -3.9780  -19.7953  -41.7033 H         1 UNK         0.0600 
    152 H152       -3.6384  -18.0804  -41.8788 H         1 UNK         0.0600 
    153 H153       -2.3894  -19.1690  -41.2782 H         1 UNK         0.0600 
    154 H154       -1.3782  -17.7382  -43.0480 H         1 UNK         0.3000 
    155 H155        0.4217  -17.3934  -46.1483 H         1 UNK         0.0600 
    156 H156       -1.2711  -15.5902  -46.0790 H         1 UNK         0.0600 
    157 H157        0.2488  -15.0316  -45.3958 H         1 UNK         0.0600 
    158 H158       -1.0916  -15.4499  -44.3331 H         1 UNK         0.0600 
    159 H159        1.0744  -16.5012  -43.5458 H         1 UNK         0.3000 
    160 H160        2.8243  -19.4242  -42.4252 H         1 UNK         0.0600 
    161 H161        3.6717  -16.5794  -43.1924 H         1 UNK         0.0600 
    162 H162        4.3976  -18.0671  -43.7845 H         1 UNK         0.0600 
    163 H163        4.5269  -17.6525  -42.0838 H         1 UNK         0.0600 
    164 H164        2.1579  -16.8917  -41.2223 H         1 UNK         0.3000 
    165 H165       -0.7980  -18.0178  -39.5619 H         1 UNK         0.0600 
    166 H166        0.5073  -17.3203  -37.5735 H         1 UNK         0.0600 
    167 H167        1.0905  -18.8687  -38.1622 H         1 UNK         0.0600 
    168 H168        2.0112  -17.4056  -38.4913 H         1 UNK         0.0600 
    169 H169        0.6596  -15.5649  -39.4564 H         1 UNK         0.3000 
    170 H170       -0.8918  -13.9444  -42.2122 H         1 UNK         0.0600 
    171 H171       -1.2254  -13.5437  -39.1891 H         1 UNK         0.0600 
    172 H172       -1.4930  -12.3241  -40.4351 H         1 UNK         0.0600 
    173 H173       -2.5388  -13.7320  -40.3447 H         1 UNK         0.0600 
    174 H174        0.9644  -13.0276  -40.2616 H         1 UNK         0.3000 
    175 H175        3.0652  -12.4894  -40.9695 H         1 UNK         0.0600 
    176 H176        4.1619  -15.3693  -41.0669 H         1 UNK         0.0600 
    177 H177        4.9428  -13.9980  -40.2887 H         1 UNK         0.0600 
    178 H178        3.4321  -14.6218  -39.6510 H         1 UNK         0.0600 
    179 H179        3.4179  -13.6371  -43.5340 H         1 UNK         0.3000 
    180 H180        5.9013  -11.2719  -44.4510 H         1 UNK         0.0600 
    181 H181        6.5895  -13.1493  -45.9304 H         1 UNK         0.0600 
    182 H182        5.7539  -14.3045  -44.8941 H         1 UNK         0.0600 
    183 H183        7.1532  -13.4253  -44.2889 H         1 UNK         0.0600 
    184 H184        4.0666  -12.8450  -45.9605 H         1 UNK         0.3000 
    185 H185        1.1792  -11.2753  -45.5455 H         1 UNK         0.0600 
    186 H186        1.0296   -9.8612  -47.6028 H         1 UNK         0.0600 
    187 H187        1.8293   -8.9853  -46.3100 H         1 UNK         0.0600 
    188 H188        2.7828   -9.6756  -47.6190 H         1 UNK         0.0600 
    189 H189        3.0713  -12.5968  -47.3551 H         1 UNK         0.3000 
    190 H190       -1.6932  -20.8342  -46.6718 H         1 UNK         0.3000 
    191 H191       -3.2054  -21.5663  -48.9806 H         1 UNK         0.0600 
    192 H192       -3.6935  -19.4981  -47.7414 H         1 UNK         0.0600 
    193 H193       -4.1019  -20.4078  -46.2897 H         1 UNK         0.0600 
    194 H194       -5.1106  -20.5318  -47.7231 H         1 UNK         0.0600 
    195 H195       -3.2502  -22.8007  -45.5914 H         1 UNK         0.3000 
    196 H196       -5.2388  -24.7846  -45.9563 H         1 UNK         0.0600 
    197 H197       -4.5088  -23.9861  -43.7302 H         1 UNK         0.0600 
    198 H198       -2.9052  -24.6744  -43.9726 H         1 UNK         0.0600 
    199 H199       -4.3074  -25.7282  -43.8375 H         1 UNK         0.0600 
    200 H200       -1.7249  -24.8890  -46.5157 H         1 UNK         0.3000 
    201 H201       -1.6172  -27.6779  -47.2749 H         1 UNK         0.0600 
    202 H202        0.3466  -26.3859  -46.3921 H         1 UNK         0.0600 
    203 H203        0.3331  -25.3845  -47.8437 H         1 UNK         0.0600 
    204 H204        0.6858  -27.1016  -47.9601 H         1 UNK         0.0600 
    205 H205       -2.9521  -25.0037  -48.8568 H         1 UNK         0.3000 
    206 H206       -3.7053  -24.4961  -50.8454 H         1 UNK         0.0600 
    207 H207       -3.3857  -27.4408  -51.6172 H         1 UNK         0.0600 
    208 H208       -4.7636  -26.7616  -50.7505 H         1 UNK         0.0600 
    209 H209       -4.4234  -26.2552  -52.3968 H         1 UNK         0.0600 
    210 H210       -0.9592  -24.0111  -50.3826 H         1 UNK         0.3000 
    211 H211        0.6669  -24.6440  -52.6557 H         1 UNK         0.0600 
    212 H212        0.8951  -22.3359  -50.6675 H         1 UNK         0.0600 
    213 H213        2.1862  -22.9451  -51.6937 H         1 UNK         0.0600 
    214 H214        1.5468  -23.9543  -50.4016 H         1 UNK         0.0600 
    215 H215       -1.7840  -22.2331  -52.1213 H         1 UNK         0.3000 
    216 H216       -1.1258  -20.5220  -54.3942 H         1 UNK         0.0600 
    217 H217       -3.2728  -19.4243  -53.7803 H         1 UNK         0.0600 
    218 H218       -2.2644  -19.6326  -52.3584 H         1 UNK         0.0600 
    219 H219       -3.6274  -20.7152  -52.6397 H         1 UNK         0.0600 
    220 H220       -2.3035  -23.6553  -54.2348 H         1 UNK         0.3000 
    221 H221       -3.3156  -25.0706  -55.5565 H         1 UNK         0.0600 
    222 H222       -2.8524  -23.0491  -57.8213 H         1 UNK         0.0600 
    223 H223       -1.6793  -24.2244  -57.2432 H         1 UNK         0.0600 
    224 H224       -3.1564  -24.7772  -58.0038 H         1 UNK         0.0600 
    225 H225       -4.9451  -23.7232  -57.9969 H         1 UNK         0.3000 
    226 H226       -7.4912  -24.3012  -56.9670 H         1 UNK         0.0600 
    227 H227       -6.8905  -24.4531  -59.3671 H         1 UNK         0.0600 
    228 H228       -8.2756  -23.3940  -59.1642 H         1 UNK         0.0600 
    229 H229       -6.6841  -22.7030  -59.4561 H         1 UNK         0.0600 
    230 H230       -5.7222  -21.3019  -56.7240 H         1 UNK         0.3000 
    231 H231       -8.0054  -19.5597  -56.3110 H         1 UNK         0.0600 
    232 H232       -6.2750  -17.9400  -55.5784 H         1 UNK         0.0600 
    233 H233       -5.7947  -18.7022  -57.0867 H         1 UNK         0.0600 
    234 H234       -5.0534  -19.2034  -55.5674 H         1 UNK         0.0600 
    235 H235       -6.2167  -21.7916  -54.3327 H         1 UNK         0.3000 
    236 H236       -6.2195  -22.5170  -52.2907 H         1 UNK         0.0600 
    237 H237       -8.9747  -21.2152  -51.9824 H         1 UNK         0.0600 
    238 H238       -8.6486  -22.8260  -52.6183 H         1 UNK         0.0600 
    239 H239       -8.2937  -22.4547  -50.9382 H         1 UNK         0.0600 
    240 H240       -7.4139  -19.1631  -52.1063 H         1 UNK         0.3000 
    241 H241       -6.8903  -17.3986  -50.9445 H         1 UNK         0.0600 
    242 H242       -7.9087  -19.2252  -47.7059 H         1 UNK         0.3800 
    243 H243       -8.0774  -19.7881  -49.3486 H         1 UNK         0.3800 
    244 H244       -4.1634  -18.4175  -50.0841 H         1 UNK         0.0800 
    245 H245       -4.4822  -18.1966  -51.7763 H         1 UNK         0.0800 
    246 H246       -3.5232  -16.5516  -48.5493 H         1 UNK         0.0800 
    247 H247       -3.1125  -14.9463  -49.0958 H         1 UNK         0.0800 
@<TRIPOS>BOND
     1    1    2 1    
     2    1  127 1    
     3    1  128 1    
     4    1  129 1    
     5    2    3 2    
     6    2    4 am   BACKBONE|DICT|INTERRES
     7    4    5 1    
     8    4  130 1    
     9    5    6 1    
    10    5   65 1    
    11    5  131 1    
    12    6    7 1    
    13    6  132 1    
    14    6  133 1    
    15    7    8 1    
    16    8    9 1    
    17    8  134 1    
    18    8  135 1    
    19    9   10 ar   
    20    9   14 ar   
    21   10   11 ar   
    22   10  136 1    
    23   11   12 ar   
    24   11  126 1    
    25   12   13 ar   
    26   12  137 1    
    27   13   14 ar   
    28   13   15 1    
    29   14  138 1    
    30   15   16 1    
    31   15  139 1    
    32   15  140 1    
    33   16   17 1    
    34   17   18 1    
    35   17  141 1    
    36   17  142 1    
    37   18   19 1    
    38   18   67 1    
    39   18  143 1    
    40   19   20 am   BACKBONE|DICT|INTERRES
    41   19  144 1    
    42   20   21 2    
    43   20   22 1    
    44   22   23 1    
    45   22   24 1    
    46   22  145 1    
    47   23  146 1    
    48   23  147 1    
    49   23  148 1    
    50   24   25 am   BACKBONE|DICT|INTERRES
    51   24  149 1    
    52   25   26 2    
    53   25   27 1    
    54   27   28 1    
    55   27   29 1    
    56   27  150 1    
    57   28  151 1    
    58   28  152 1    
    59   28  153 1    
    60   29   30 am   BACKBONE|DICT|INTERRES
    61   29  154 1    
    62   30   31 2    
    63   30   32 1    
    64   32   33 1    
    65   32   34 1    
    66   32  155 1    
    67   33  156 1    
    68   33  157 1    
    69   33  158 1    
    70   34   35 am   BACKBONE|DICT|INTERRES
    71   34  159 1    
    72   35   36 2    
    73   35   37 1    
    74   37   38 1    
    75   37   39 1    
    76   37  160 1    
    77   38  161 1    
    78   38  162 1    
    79   38  163 1    
    80   39   40 am   BACKBONE|DICT|INTERRES
    81   39  164 1    
    82   40   41 2    
    83   40   42 1    
    84   42   43 1    
    85   42   44 1    
    86   42  165 1    
    87   43  166 1    
    88   43  167 1    
    89   43  168 1    
    90   44   45 am   BACKBONE|DICT|INTERRES
    91   44  169 1    
    92   45   46 2    
    93   45   47 1    
    94   47   48 1    
    95   47   49 1    
    96   47  170 1    
    97   48  171 1    
    98   48  172 1    
    99   48  173 1    
   100   49   50 am   BACKBONE|DICT|INTERRES
   101   49  174 1    
   102   50   51 2    
   103   50   52 1    
   104   52   53 1    
   105   52   54 1    
   106   52  175 1    
   107   53  176 1    
   108   53  177 1    
   109   53  178 1    
   110   54   55 am   BACKBONE|DICT|INTERRES
   111   54  179 1    
   112   55   56 2    
   113   55   57 1    
   114   57   58 1    
   115   57   59 1    
   116   57  180 1    
   117   58  181 1    
   118   58  182 1    
   119   58  183 1    
   120   59   60 am   BACKBONE|DICT|INTERRES
   121   59  184 1    
   122   60   61 2    
   123   60   62 1    
   124   62   63 1    
   125   62   64 1    
   126   62  185 1    
   127   63  186 1    
   128   63  187 1    
   129   63  188 1    
   130   64   65 am   BACKBONE|DICT|INTERRES
   131   64  189 1    
   132   65   66 2    
   133   67   68 2    
   134   67   69 am   BACKBONE|DICT|INTERRES
   135   69   70 1    
   136   69  190 1    
   137   70   71 1    
   138   70   72 1    
   139   70  191 1    
   140   71  192 1    
   141   71  193 1    
   142   71  194 1    
   143   72   73 2    
   144   72   74 am   BACKBONE|DICT|INTERRES
   145   74   75 1    
   146   74  195 1    
   147   75   76 1    
   148   75   77 1    
   149   75  196 1    
   150   76  197 1    
   151   76  198 1    
   152   76  199 1    
   153   77   78 2    
   154   77   79 am   BACKBONE|DICT|INTERRES
   155   79   80 1    
   156   79  200 1    
   157   80   81 1    
   158   80   82 1    
   159   80  201 1    
   160   81  202 1    
   161   81  203 1    
   162   81  204 1    
   163   82   83 2    
   164   82   84 am   BACKBONE|DICT|INTERRES
   165   84   85 1    
   166   84  205 1    
   167   85   86 1    
   168   85   87 1    
   169   85  206 1    
   170   86  207 1    
   171   86  208 1    
   172   86  209 1    
   173   87   88 2    
   174   87   89 am   BACKBONE|DICT|INTERRES
   175   89   90 1    
   176   89  210 1    
   177   90   91 1    
   178   90   92 1    
   179   90  211 1    
   180   91  212 1    
   181   91  213 1    
   182   91  214 1    
   183   92   93 2    
   184   92   94 am   BACKBONE|DICT|INTERRES
   185   94   95 1    
   186   94  215 1    
   187   95   96 1    
   188   95   97 1    
   189   95  216 1    
   190   96  217 1    
   191   96  218 1    
   192   96  219 1    
   193   97   98 2    
   194   97   99 am   BACKBONE|DICT|INTERRES
   195   99  100 1    
   196   99  220 1    
   197  100  101 1    
   198  100  102 1    
   199  100  221 1    
   200  101  222 1    
   201  101  223 1    
   202  101  224 1    
   203  102  103 2    
   204  102  104 am   BACKBONE|DICT|INTERRES
   205  104  105 1    
   206  104  225 1    
   207  105  106 1    
   208  105  107 1    
   209  105  226 1    
   210  106  227 1    
   211  106  228 1    
   212  106  229 1    
   213  107  108 2    
   214  107  109 am   BACKBONE|DICT|INTERRES
   215  109  110 1    
   216  109  230 1    
   217  110  111 1    
   218  110  112 1    
   219  110  231 1    
   220  111  232 1    
   221  111  233 1    
   222  111  234 1    
   223  112  113 2    
   224  112  114 am   BACKBONE|DICT|INTERRES
   225  114  115 1    
   226  114  235 1    
   227  115  116 1    
   228  115  117 1    
   229  115  236 1    
   230  116  237 1    
   231  116  238 1    
   232  116  239 1    
   233  117  118 2    
   234  117  119 am   BACKBONE|DICT|INTERRES
   235  119  120 1    
   236  119  240 1    
   237  120  121 1    
   238  120  124 1    
   239  120  241 1    
   240  121  122 am   BACKBONE|DICT|INTERRES
   241  121  123 2    
   242  122  242 1    
   243  122  243 1    
   244  124  125 1    
   245  124  244 1    
   246  124  245 1    
   247  125  126 1    
   248  126  246 1    
   249  126  247 1    
@<TRIPOS>SUBSTRUCTURE
     1 UNK         1 GROUP             0       ****    0 ROOT    
