@<TRIPOS>MOLECULE
3R540
247   249    1
SMALL
USER_CHARGES


@<TRIPOS>ATOM
      1 CA         -1.2609  -13.2236  -55.1897 C.3       0 UNK        -0.1800 
      2 C          -1.6242  -12.7593  -53.7878 C.2       0 UNK         0.5000 
      3 O          -2.6364  -12.0814  -53.6099 O.2       0 UNK        -0.5000 
      4 N          -0.7991  -13.1126  -52.7957 N.am      1 UNK        -0.5000 
      5 CA         -1.0262  -12.8406  -51.3755 C.3       1 UNK         0.1400 
      6 C6          0.2520  -13.0392  -50.5149 C.3       23 UNK        -0.0398 
      7 S7          1.2209  -14.5469  -50.8838 S.3       23 UNK        -0.2404 
      8 C8          0.7482  -15.6545  -49.5156 C.3       23 UNK        -0.0205 
      9 C9          1.2236  -17.0797  -49.7628 C.ar      23 UNK        -0.0193 
     10 C10         0.8087  -17.7658  -50.9085 C.ar      23 UNK        -0.1150 
     11 C11         1.2397  -19.0718  -51.1499 C.ar      23 UNK        -0.0193 
     12 C12         2.0759  -19.7002  -50.2257 C.ar      23 UNK        -0.1150 
     13 C13         2.4609  -19.0485  -49.0489 C.ar      23 UNK        -0.0193 
     14 C14         2.0466  -17.7287  -48.8362 C.ar      23 UNK        -0.1150 
     15 C15         3.3096  -19.7597  -47.9952 C.3       23 UNK        -0.0205 
     16 S16         2.8487  -21.5104  -47.7249 S.3       23 UNK        -0.2404 
     17 C17         1.0628  -21.3566  -47.3810 C.3       23 UNK        -0.0398 
     18 CA          0.4635  -22.5422  -46.5958 C.3       11 UNK         0.1400 
     19 N           1.2125  -22.8233  -45.3714 N.am      11 UNK        -0.5000 
     20 C           1.2915  -24.0315  -44.8038 C.2       10 UNK         0.5000 
     21 O           0.5137  -24.9485  -45.0751 O.2       10 UNK        -0.5000 
     22 CA          2.4557  -24.2710  -43.8160 C.3       10 UNK         0.1400 
     23 CB          3.5976  -23.2450  -43.9402 C.3       10 UNK        -0.1800 
     24 N           1.9736  -24.2697  -42.4429 N.am      10 UNK        -0.5000 
     25 C           1.3636  -25.2986  -41.8429 C.2       9 UNK         0.5000 
     26 O           1.3249  -26.4378  -42.3089 O.2       9 UNK        -0.5000 
     27 CA          0.6729  -25.0175  -40.4921 C.3       9 UNK         0.1400 
     28 CB          1.4852  -25.6242  -39.3373 C.3       9 UNK        -0.1800 
     29 N           0.4357  -23.6006  -40.2003 N.am      9 UNK        -0.5000 
     30 C          -0.2684  -22.7284  -40.9365 C.2       8 UNK         0.5000 
     31 O          -0.8159  -23.0126  -42.0037 O.2       8 UNK        -0.5000 
     32 CA         -0.3503  -21.2841  -40.3980 C.3       8 UNK         0.1400 
     33 CB         -0.1863  -21.1937  -38.8647 C.3       8 UNK        -0.1800 
     34 N           0.5853  -20.3581  -41.0488 N.am      8 UNK        -0.5000 
     35 C           1.9128  -20.4916  -41.2083 C.2       7 UNK         0.5000 
     36 O           2.5422  -21.5133  -40.9282 O.2       7 UNK        -0.5000 
     37 CA          2.6544  -19.2458  -41.7487 C.3       7 UNK         0.1400 
     38 CB          4.0906  -19.5379  -42.2327 C.3       7 UNK        -0.1800 
     39 N           1.8967  -18.5111  -42.7689 N.am      7 UNK        -0.5000 
     40 C           1.4948  -18.9821  -43.9583 C.2       6 UNK         0.5000 
     41 O           1.7353  -20.1184  -44.3649 O.2       6 UNK        -0.5000 
     42 CA          0.6341  -18.0444  -44.8241 C.3       6 UNK         0.1400 
     43 CB         -0.8400  -18.4251  -44.6660 C.3       6 UNK        -0.1800 
     44 N           0.7806  -16.6251  -44.4973 N.am      6 UNK        -0.5000 
     45 C           1.8011  -15.8650  -44.9076 C.2       5 UNK         0.5000 
     46 O           2.7570  -16.2889  -45.5597 O.2       5 UNK        -0.5000 
     47 CA          1.7398  -14.3784  -44.5341 C.3       5 UNK         0.1400 
     48 CB          2.7827  -14.0533  -43.4537 C.3       5 UNK        -0.1800 
     49 N           2.0363  -13.5974  -45.7331 N.am      5 UNK        -0.5000 
     50 C           1.2296  -12.8039  -46.4507 C.2       4 UNK         0.5000 
     51 O           1.6250  -12.3049  -47.5029 O.2       4 UNK        -0.5000 
     52 CA         -0.2207  -12.5280  -45.9981 C.3       4 UNK         0.1400 
     53 CB         -0.7404  -11.1802  -46.5341 C.3       4 UNK        -0.1800 
     54 N          -1.0995  -13.5800  -46.5061 N.am      4 UNK        -0.5000 
     55 C          -1.8236  -14.4217  -45.7595 C.2       3 UNK         0.5000 
     56 O          -1.7548  -14.4710  -44.5307 O.2       3 UNK        -0.5000 
     57 CA         -2.7572  -15.3943  -46.5144 C.3       3 UNK         0.1400 
     58 CB         -3.9357  -15.8937  -45.6541 C.3       3 UNK        -0.1800 
     59 N          -3.2365  -14.9125  -47.8143 N.am      3 UNK        -0.5000 
     60 C          -3.9658  -13.8169  -48.0587 C.2       2 UNK         0.5000 
     61 O          -4.2935  -12.9954  -47.2011 O.2       2 UNK        -0.5000 
     62 CA         -4.3246  -13.5805  -49.5342 C.3       2 UNK         0.1400 
     63 CB         -5.5401  -12.6530  -49.7070 C.3       2 UNK        -0.1800 
     64 N          -3.1720  -12.9802  -50.2003 N.am      2 UNK        -0.5000 
     65 C          -2.2162  -13.6634  -50.8402 C.2       1 UNK         0.5000 
     66 O          -2.2346  -14.8849  -50.9950 O.2       1 UNK        -0.5000 
     67 C          -1.0470  -22.3253  -46.3728 C.2       11 UNK         0.5000 
     68 O          -1.8003  -22.4030  -47.3461 O.2       11 UNK        -0.5000 
     69 N          -1.4754  -22.0474  -45.1315 N.am      12 UNK        -0.5000 
     70 CA         -2.8943  -21.9118  -44.7827 C.3       12 UNK         0.1400 
     71 CB         -3.0935  -20.9758  -43.5798 C.3       12 UNK        -0.1800 
     72 C          -3.5388  -23.2823  -44.5366 C.2       12 UNK         0.5000 
     73 O          -4.6652  -23.5024  -44.9786 O.2       12 UNK        -0.5000 
     74 N          -2.7986  -24.2007  -43.9001 N.am      13 UNK        -0.5000 
     75 CA         -3.1937  -25.6021  -43.7336 C.3       13 UNK         0.1400 
     76 CB         -2.2363  -26.2915  -42.7556 C.3       13 UNK        -0.1800 
     77 C          -3.2495  -26.3605  -45.0741 C.2       13 UNK         0.5000 
     78 O          -4.1321  -27.1977  -45.2634 O.2       13 UNK        -0.5000 
     79 N          -2.3402  -26.0145  -45.9973 N.am      14 UNK        -0.5000 
     80 CA         -2.3457  -26.4783  -47.3878 C.3       14 UNK         0.1400 
     81 CB         -0.9594  -26.2220  -47.9986 C.3       14 UNK        -0.1800 
     82 C          -3.4366  -25.8079  -48.2523 C.2       14 UNK         0.5000 
     83 O          -3.7032  -26.2836  -49.3554 O.2       14 UNK        -0.5000 
     84 N          -4.0144  -24.7036  -47.7542 N.am      15 UNK        -0.5000 
     85 CA         -5.0449  -23.8410  -48.3479 C.3       15 UNK         0.1400 
     86 CB         -6.3317  -24.6325  -48.6514 C.3       15 UNK        -0.1800 
     87 C          -4.5833  -23.0125  -49.5639 C.2       15 UNK         0.5000 
     88 O          -5.3701  -22.2174  -50.0786 O.2       15 UNK        -0.5000 
     89 N          -3.3216  -23.1635  -49.9846 N.am      16 UNK        -0.5000 
     90 CA         -2.7311  -22.4855  -51.1372 C.3       16 UNK         0.1400 
     91 CB         -1.3420  -23.0781  -51.4137 C.3       16 UNK        -0.1800 
     92 C          -2.6468  -20.9617  -50.9560 C.2       16 UNK         0.5000 
     93 O          -2.9094  -20.2233  -51.9057 O.2       16 UNK        -0.5000 
     94 N          -2.3183  -20.5157  -49.7361 N.am      17 UNK        -0.5000 
     95 CA         -2.2582  -19.0941  -49.3945 C.3       17 UNK         0.1400 
     96 CB         -1.3583  -18.8965  -48.1746 C.3       17 UNK        -0.1800 
     97 C          -3.6442  -18.4857  -49.1407 C.2       17 UNK         0.5000 
     98 O          -3.8291  -17.2961  -49.3895 O.2       17 UNK        -0.5000 
     99 N          -4.5953  -19.3069  -48.6752 N.am      18 UNK        -0.5000 
    100 CA        -5.9933  -18.9181  -48.4808 C.3       18 UNK         0.1400 
    101 CB        -6.7046  -19.9715  -47.6174 C.3       18 UNK        -0.1800 
    102 C         -6.7164  -18.7168  -49.8253 C.2       18 UNK         0.5000 
    103 O         -7.4837  -17.7655  -49.9720 O.2       18 UNK        -0.5000 
    104 N         -6.4176  -19.5935  -50.7939 N.am      19 UNK        -0.5000 
    105 CA        -6.8681  -19.4994  -52.1828 C.3       19 UNK         0.1400 
    106 CB        -6.6774  -20.8717  -52.8487 C.3       19 UNK        -0.1800 
    107 C         -6.1305  -18.4134  -52.9934 C.2       19 UNK         0.5000 
    108 O         -6.6164  -18.0323  -54.0588 O.2       19 UNK        -0.5000 
    109 N         -4.9680  -17.9644  -52.4934 N.am      20 UNK        -0.5000 
    110 CA        -4.0072  -17.0564  -53.1312 C.3       20 UNK         0.1400 
    111 CB        -4.6036  -15.6438  -53.2987 C.3       20 UNK        -0.1800 
    112 C         -3.4420  -17.6398  -54.4447 C.2       20 UNK         0.5000 
    113 O         -3.2358  -16.9134  -55.4197 O.2       20 UNK        -0.5000 
    114 N         -3.1976  -18.9587  -54.4402 N.am      21 UNK        -0.5000 
    115 CA        -2.7886  -19.7683  -55.5924 C.3       21 UNK         0.1400 
    116 CB        -2.8119  -21.2491  -55.1820 C.3       21 UNK        -0.1800 
    117 C         -1.4111  -19.3919  -56.1701 C.2       21 UNK         0.5000 
    118 O         -1.1408  -19.6739  -57.3381 O.2       21 UNK        -0.5000 
    119 N         -0.5796  -18.7517  -55.3429 N.am      22 UNK        -0.5000 
    120 CA         0.7305  -18.1954  -55.7054 C.3       22 UNK         0.1400 
    121 C          0.6498  -16.8346  -56.4602 C.2       22 UNK         0.5000 
    122 N         -0.5198  -16.2297  -56.6387 N.am      22 UNK        -0.7600 
    123 O          1.6711  -16.3223  -56.9097 O.2       22 UNK        -0.5000 
    124 C124        1.6622  -18.1056  -54.4691 C.3       23 UNK        -0.0398 
    125 S125        1.9951  -19.7458  -53.7357 S.3       23 UNK        -0.2404 
    126 C126        0.7776  -19.8266  -52.3841 C.3       23 UNK        -0.0205 
    127 H127       -1.2159  -12.3727  -55.8693 H         1 UNK         0.0600 
    128 H128       -2.0159  -13.9182  -55.5582 H         1 UNK         0.0600 
    129 H129       -0.2931  -13.7254  -55.2092 H         1 UNK         0.0600 
    130 H130        0.0023  -13.6955  -52.9922 H         1 UNK         0.3000 
    131 H131       -1.2957  -11.7850  -51.2955 H         1 UNK         0.0600 
    132 H132        0.9197  -12.1931  -50.6817 H         1 UNK         0.0800 
    133 H133        0.0135  -13.0049  -49.4519 H         1 UNK         0.0800 
    134 H134        1.1602  -15.2626  -48.5842 H         1 UNK         0.0800 
    135 H135       -0.3350  -15.6673  -49.3989 H         1 UNK         0.0800 
    136 H136        0.1490  -17.2758  -51.6107 H         1 UNK         0.1150 
    137 H137        2.4032  -20.7131  -50.4127 H         1 UNK         0.1150 
    138 H138        2.3530  -17.2105  -47.9393 H         1 UNK         0.1150 
    139 H139        3.2416  -19.2379  -47.0388 H         1 UNK         0.0800 
    140 H140        4.3557  -19.7138  -48.2995 H         1 UNK         0.0800 
    141 H141        0.5603  -21.2702  -48.3453 H         1 UNK         0.0800 
    142 H142        0.8930  -20.4233  -46.8451 H         1 UNK         0.0800 
    143 H143        0.5540  -23.4178  -47.2409 H         1 UNK         0.0600 
    144 H144        1.8144  -22.0728  -45.0482 H         1 UNK         0.3000 
    145 H145        2.8726  -25.2528  -44.0496 H         1 UNK         0.0600 
    146 H146        3.9737  -23.1911  -44.9628 H         1 UNK         0.0600 
    147 H147        4.4377  -23.5173  -43.3011 H         1 UNK         0.0600 
    148 H148        3.2752  -22.2468  -43.6486 H         1 UNK         0.0600 
    149 H149        1.9743  -23.3760  -41.9652 H         1 UNK         0.3000 
    150 H150       -0.2987  -25.5116  -40.5185 H         1 UNK         0.0600 
    151 H151        2.4614  -25.1472  -39.2407 H         1 UNK         0.0600 
    152 H152        1.6547  -26.6903  -39.4941 H         1 UNK         0.0600 
    153 H153        0.9623  -25.5174  -38.3867 H         1 UNK         0.0600 
    154 H154        0.8856  -23.2446  -39.3698 H         1 UNK         0.3000 
    155 H155       -1.3542  -20.9301  -40.6350 H         1 UNK         0.0600 
    156 H156        0.8278  -21.4312  -38.5414 H         1 UNK         0.0600 
    157 H157       -0.8690  -21.8737  -38.3532 H         1 UNK         0.0600 
    158 H158       -0.4135  -20.1881  -38.5104 H         1 UNK         0.0600 
    159 H159        0.1768  -19.4880  -41.3568 H         1 UNK         0.3000 
    160 H160        2.7396  -18.5717  -40.8953 H         1 UNK         0.0600 
    161 H161        4.1067  -20.1893  -43.1049 H         1 UNK         0.0600 
    162 H162        4.6803  -20.0198  -41.4521 H         1 UNK         0.0600 
    163 H163        4.6055  -18.6156  -42.5014 H         1 UNK         0.0600 
    164 H164        1.6386  -17.5649  -42.5292 H         1 UNK         0.3000 
    165 H165        0.9192  -18.1964  -45.8673 H         1 UNK         0.0600 
    166 H166       -1.4862  -17.8070  -45.2829 H         1 UNK         0.0600 
    167 H167       -0.9963  -19.4557  -44.9740 H         1 UNK         0.0600 
    168 H168       -1.1743  -18.3303  -43.6321 H         1 UNK         0.0600 
    169 H169        0.0264  -16.1990  -43.9750 H         1 UNK         0.3000 
    170 H170        0.7595  -14.1552  -44.1217 H         1 UNK         0.0600 
    171 H171        2.7490  -12.9984  -43.1806 H         1 UNK         0.0600 
    172 H172        3.7966  -14.2794  -43.7868 H         1 UNK         0.0600 
    173 H173        2.5987  -14.6299  -42.5463 H         1 UNK         0.0600 
    174 H174        2.9495  -13.7907  -46.1187 H         1 UNK         0.3000 
    175 H175       -0.2565  -12.4563  -44.9111 H         1 UNK         0.0600 
    176 H176       -0.0999  -10.3583  -46.2119 H         1 UNK         0.0600 
    177 H177       -0.7813  -11.1596  -47.6239 H         1 UNK         0.0600 
    178 H178       -1.7447  -10.9742  -46.1629 H         1 UNK         0.0600 
    179 H179       -1.1989  -13.6307  -47.5082 H         1 UNK         0.3000 
    180 H180       -2.1372  -16.2548  -46.7425 H         1 UNK         0.0600 
    181 H181       -4.5919  -15.0754  -45.3565 H         1 UNK         0.0600 
    182 H182       -3.5840  -16.3795  -44.7432 H         1 UNK         0.0600 
    183 H183       -4.5349  -16.6250  -46.1969 H         1 UNK         0.0600 
    184 H184       -3.0779  -15.5413  -48.5970 H         1 UNK         0.3000 
    185 H185       -4.5722  -14.5435  -49.9870 H         1 UNK         0.0600 
    186 H186       -6.4153  -13.0610  -49.2001 H         1 UNK         0.0600 
    187 H187       -5.3565  -11.6581  -49.2992 H         1 UNK         0.0600 
    188 H188       -5.7981  -12.5395  -50.7601 H         1 UNK         0.0600 
    189 H189       -3.0836  -11.9784  -50.1065 H         1 UNK         0.3000 
    190 H190       -0.8049  -22.0277  -44.3745 H         1 UNK         0.3000 
    191 H191       -3.4275  -21.4609  -45.6231 H         1 UNK         0.0600 
    192 H192       -3.0171  -19.9326  -43.8791 H         1 UNK         0.0600 
    193 H193       -4.0856  -21.0980  -43.1427 H         1 UNK         0.0600 
    194 H194       -2.3658  -21.1535  -42.7923 H         1 UNK         0.0600 
    195 H195       -1.9065  -23.9225  -43.5048 H         1 UNK         0.3000 
    196 H196       -4.1952  -25.6216  -43.2988 H         1 UNK         0.0600 
    197 H197       -2.5208  -27.3320  -42.5950 H         1 UNK         0.0600 
    198 H198       -2.2482  -25.7961  -41.7854 H         1 UNK         0.0600 
    199 H199       -1.2137  -26.2838  -43.1318 H         1 UNK         0.0600 
    200 H200       -1.5979  -25.3792  -45.7296 H         1 UNK         0.3000 
    201 H201       -2.5308  -27.5544  -47.3947 H         1 UNK         0.0600 
    202 H202       -0.8913  -26.6417  -49.0030 H         1 UNK         0.0600 
    203 H203       -0.1710  -26.6802  -47.4009 H         1 UNK         0.0600 
    204 H204       -0.7473  -25.1561  -48.0758 H         1 UNK         0.0600 
    205 H205       -3.7138  -24.4096  -46.8351 H         1 UNK         0.3000 
    206 H206       -5.2910  -23.1092  -47.5779 H         1 UNK         0.0600 
    207 H207       -6.6705  -25.1838  -47.7743 H         1 UNK         0.0600 
    208 H208       -7.1412  -23.9631  -48.9452 H         1 UNK         0.0600 
    209 H209       -6.1902  -25.3450  -49.4642 H         1 UNK         0.0600 
    210 H210       -2.7293  -23.8006  -49.4738 H         1 UNK         0.3000 
    211 H211       -3.3673  -22.6825  -52.0026 H         1 UNK         0.0600 
    212 H212       -0.6463  -22.8789  -50.5971 H         1 UNK         0.0600 
    213 H213       -0.9158  -22.6583  -52.3250 H         1 UNK         0.0600 
    214 H214       -1.3949  -24.1581  -51.5528 H         1 UNK         0.0600 
    215 H215       -2.1389  -21.1873  -48.9967 H         1 UNK         0.3000 
    216 H216       -1.8148  -18.5488  -50.2300 H         1 UNK         0.0600 
    217 H217       -1.7325  -19.4289  -47.3005 H         1 UNK         0.0600 
    218 H218       -1.2668  -17.8427  -47.9248 H         1 UNK         0.0600 
    219 H219       -0.3528  -19.2398  -48.3909 H         1 UNK         0.0600 
    220 H220       -4.3653  -20.2777  -48.5284 H         1 UNK         0.3000 
    221 H221       -6.0137  -17.9676  -47.9429 H         1 UNK         0.0600 
    222 H222       -6.7388  -20.9445  -48.1077 H         1 UNK         0.0600 
    223 H223       -6.2057  -20.0970  -46.6562 H         1 UNK         0.0600 
    224 H224       -7.7337  -19.6736  -47.4130 H         1 UNK         0.0600 
    225 H225       -5.8435  -20.3996  -50.5631 H         1 UNK         0.3000 
    226 H226       -7.9324  -19.2556  -52.1899 H         1 UNK         0.0600 
    227 H227       -7.2370  -21.6461  -52.3236 H         1 UNK         0.0600 
    228 H228       -7.0277  -20.8604  -53.8815 H         1 UNK         0.0600 
    229 H229       -5.6276  -21.1685  -52.8602 H         1 UNK         0.0600 
    230 H230       -4.6642  -18.3619  -51.6162 H         1 UNK         0.3000 
    231 H231       -3.1629  -16.9796  -52.4448 H         1 UNK         0.0600 
    232 H232       -5.4146  -15.6259  -54.0268 H         1 UNK         0.0600 
    233 H233       -3.8434  -14.9399  -53.6382 H         1 UNK         0.0600 
    234 H234       -4.9907  -15.2667  -52.3524 H         1 UNK         0.0600 
    235 H235       -3.3169  -19.4600  -53.5626 H         1 UNK         0.3000 
    236 H236       -3.5271  -19.6164  -56.3820 H         1 UNK         0.0600 
    237 H237       -2.0950  -21.4550  -54.3862 H         1 UNK         0.0600 
    238 H238       -3.7995  -21.5459  -54.8283 H         1 UNK         0.0600 
    239 H239       -2.5611  -21.8937  -56.0254 H         1 UNK         0.0600 
    240 H240       -0.9083  -18.5540  -54.4114 H         1 UNK         0.3000 
    241 H241        1.1971  -18.8858  -56.4108 H         1 UNK         0.0600 
    242 H242       -0.5476  -15.3635  -57.1512 H         1 UNK         0.3800 
    243 H243       -1.3809  -16.6224  -56.2757 H         1 UNK         0.3800 
    244 H244        1.2486  -17.4316  -53.7190 H         1 UNK         0.0800 
    245 H245        2.6278  -17.6824  -54.7511 H         1 UNK         0.0800 
    246 H246       -0.1944  -19.4617  -52.7157 H         1 UNK         0.0800 
    247 H247        0.6286  -20.8741  -52.1230 H         1 UNK         0.0800 
@<TRIPOS>BOND
     1    1    2 1    
     2    1  127 1    
     3    1  128 1    
     4    1  129 1    
     5    2    3 2    
     6    2    4 am   BACKBONE|DICT|INTERRES
     7    4    5 1    
     8    4  130 1    
     9    5    6 1    
    10    5   65 1    
    11    5  131 1    
    12    6    7 1    
    13    6  132 1    
    14    6  133 1    
    15    7    8 1    
    16    8    9 1    
    17    8  134 1    
    18    8  135 1    
    19    9   10 ar   
    20    9   14 ar   
    21   10   11 ar   
    22   10  136 1    
    23   11   12 ar   
    24   11  126 1    
    25   12   13 ar   
    26   12  137 1    
    27   13   14 ar   
    28   13   15 1    
    29   14  138 1    
    30   15   16 1    
    31   15  139 1    
    32   15  140 1    
    33   16   17 1    
    34   17   18 1    
    35   17  141 1    
    36   17  142 1    
    37   18   19 1    
    38   18   67 1    
    39   18  143 1    
    40   19   20 am   BACKBONE|DICT|INTERRES
    41   19  144 1    
    42   20   21 2    
    43   20   22 1    
    44   22   23 1    
    45   22   24 1    
    46   22  145 1    
    47   23  146 1    
    48   23  147 1    
    49   23  148 1    
    50   24   25 am   BACKBONE|DICT|INTERRES
    51   24  149 1    
    52   25   26 2    
    53   25   27 1    
    54   27   28 1    
    55   27   29 1    
    56   27  150 1    
    57   28  151 1    
    58   28  152 1    
    59   28  153 1    
    60   29   30 am   BACKBONE|DICT|INTERRES
    61   29  154 1    
    62   30   31 2    
    63   30   32 1    
    64   32   33 1    
    65   32   34 1    
    66   32  155 1    
    67   33  156 1    
    68   33  157 1    
    69   33  158 1    
    70   34   35 am   BACKBONE|DICT|INTERRES
    71   34  159 1    
    72   35   36 2    
    73   35   37 1    
    74   37   38 1    
    75   37   39 1    
    76   37  160 1    
    77   38  161 1    
    78   38  162 1    
    79   38  163 1    
    80   39   40 am   BACKBONE|DICT|INTERRES
    81   39  164 1    
    82   40   41 2    
    83   40   42 1    
    84   42   43 1    
    85   42   44 1    
    86   42  165 1    
    87   43  166 1    
    88   43  167 1    
    89   43  168 1    
    90   44   45 am   BACKBONE|DICT|INTERRES
    91   44  169 1    
    92   45   46 2    
    93   45   47 1    
    94   47   48 1    
    95   47   49 1    
    96   47  170 1    
    97   48  171 1    
    98   48  172 1    
    99   48  173 1    
   100   49   50 am   BACKBONE|DICT|INTERRES
   101   49  174 1    
   102   50   51 2    
   103   50   52 1    
   104   52   53 1    
   105   52   54 1    
   106   52  175 1    
   107   53  176 1    
   108   53  177 1    
   109   53  178 1    
   110   54   55 am   BACKBONE|DICT|INTERRES
   111   54  179 1    
   112   55   56 2    
   113   55   57 1    
   114   57   58 1    
   115   57   59 1    
   116   57  180 1    
   117   58  181 1    
   118   58  182 1    
   119   58  183 1    
   120   59   60 am   BACKBONE|DICT|INTERRES
   121   59  184 1    
   122   60   61 2    
   123   60   62 1    
   124   62   63 1    
   125   62   64 1    
   126   62  185 1    
   127   63  186 1    
   128   63  187 1    
   129   63  188 1    
   130   64   65 am   BACKBONE|DICT|INTERRES
   131   64  189 1    
   132   65   66 2    
   133   67   68 2    
   134   67   69 am   BACKBONE|DICT|INTERRES
   135   69   70 1    
   136   69  190 1    
   137   70   71 1    
   138   70   72 1    
   139   70  191 1    
   140   71  192 1    
   141   71  193 1    
   142   71  194 1    
   143   72   73 2    
   144   72   74 am   BACKBONE|DICT|INTERRES
   145   74   75 1    
   146   74  195 1    
   147   75   76 1    
   148   75   77 1    
   149   75  196 1    
   150   76  197 1    
   151   76  198 1    
   152   76  199 1    
   153   77   78 2    
   154   77   79 am   BACKBONE|DICT|INTERRES
   155   79   80 1    
   156   79  200 1    
   157   80   81 1    
   158   80   82 1    
   159   80  201 1    
   160   81  202 1    
   161   81  203 1    
   162   81  204 1    
   163   82   83 2    
   164   82   84 am   BACKBONE|DICT|INTERRES
   165   84   85 1    
   166   84  205 1    
   167   85   86 1    
   168   85   87 1    
   169   85  206 1    
   170   86  207 1    
   171   86  208 1    
   172   86  209 1    
   173   87   88 2    
   174   87   89 am   BACKBONE|DICT|INTERRES
   175   89   90 1    
   176   89  210 1    
   177   90   91 1    
   178   90   92 1    
   179   90  211 1    
   180   91  212 1    
   181   91  213 1    
   182   91  214 1    
   183   92   93 2    
   184   92   94 am   BACKBONE|DICT|INTERRES
   185   94   95 1    
   186   94  215 1    
   187   95   96 1    
   188   95   97 1    
   189   95  216 1    
   190   96  217 1    
   191   96  218 1    
   192   96  219 1    
   193   97   98 2    
   194   97   99 am   BACKBONE|DICT|INTERRES
   195   99  100 1    
   196   99  220 1    
   197  100  101 1    
   198  100  102 1    
   199  100  221 1    
   200  101  222 1    
   201  101  223 1    
   202  101  224 1    
   203  102  103 2    
   204  102  104 am   BACKBONE|DICT|INTERRES
   205  104  105 1    
   206  104  225 1    
   207  105  106 1    
   208  105  107 1    
   209  105  226 1    
   210  106  227 1    
   211  106  228 1    
   212  106  229 1    
   213  107  108 2    
   214  107  109 am   BACKBONE|DICT|INTERRES
   215  109  110 1    
   216  109  230 1    
   217  110  111 1    
   218  110  112 1    
   219  110  231 1    
   220  111  232 1    
   221  111  233 1    
   222  111  234 1    
   223  112  113 2    
   224  112  114 am   BACKBONE|DICT|INTERRES
   225  114  115 1    
   226  114  235 1    
   227  115  116 1    
   228  115  117 1    
   229  115  236 1    
   230  116  237 1    
   231  116  238 1    
   232  116  239 1    
   233  117  118 2    
   234  117  119 am   BACKBONE|DICT|INTERRES
   235  119  120 1    
   236  119  240 1    
   237  120  121 1    
   238  120  124 1    
   239  120  241 1    
   240  121  122 am   BACKBONE|DICT|INTERRES
   241  121  123 2    
   242  122  242 1    
   243  122  243 1    
   244  124  125 1    
   245  124  244 1    
   246  124  245 1    
   247  125  126 1    
   248  126  246 1    
   249  126  247 1    
@<TRIPOS>SUBSTRUCTURE
     1 UNK         1 GROUP             0       ****    0 ROOT    
