@<TRIPOS>MOLECULE
3R540
247   249    1
SMALL
USER_CHARGES


@<TRIPOS>ATOM
      1 CA          1.7085  -13.9608  -46.3079 C.3       0 UNK        -0.1800 
      2 C           0.2137  -14.0212  -46.5903 C.2       0 UNK         0.5000 
      3 O          -0.4345  -15.0079  -46.2438 O.2       0 UNK        -0.5000 
      4 N          -0.3235  -12.9720  -47.2187 N.am      1 UNK        -0.5000 
      5 CA         -1.7341  -12.8193  -47.5767 C.3       1 UNK         0.1400 
      6 C6         -1.9843  -13.1289  -49.0770 C.3       23 UNK        -0.0398 
      7 S7         -1.8195  -14.9024  -49.4682 S.3       23 UNK        -0.2404 
      8 C8         -0.1739  -14.9472  -50.2393 C.3       23 UNK        -0.0205 
      9 C9          0.2399  -16.3703  -50.5801 C.ar      23 UNK        -0.0193 
     10 C10        -0.2420  -16.9766  -51.7421 C.ar      23 UNK        -0.1150 
     11 C11         0.1491  -18.2739  -52.0826 C.ar      23 UNK        -0.0193 
     12 C12         1.0399  -18.9632  -51.2552 C.ar      23 UNK        -0.1150 
     13 C13         1.5280  -18.3709  -50.0839 C.ar      23 UNK        -0.0193 
     14 C14         1.1174  -17.0753  -49.7502 C.ar      23 UNK        -0.1150 
     15 C15         2.5450  -19.0932  -49.2051 C.3       23 UNK        -0.0205 
     16 S16         2.1137  -20.8268  -48.8419 S.3       23 UNK        -0.2404 
     17 C17         0.7805  -20.6382  -47.6122 C.3       23 UNK        -0.0398 
     18 CA         -0.1987  -21.8342  -47.6466 C.3       11 UNK         0.1400 
     19 N           0.4754  -23.1034  -47.3766 N.am      11 UNK        -0.5000 
     20 C          -0.0511  -24.3153  -47.5827 C.2       10 UNK         0.5000 
     21 O          -1.1937  -24.5058  -47.9970 O.2       10 UNK        -0.5000 
     22 CA          0.8570  -25.5073  -47.2306 C.3       10 UNK         0.1400 
     23 CB          1.9831  -25.6617  -48.2644 C.3       10 UNK        -0.1800 
     24 N           1.4315  -25.3678  -45.8936 N.am      10 UNK        -0.5000 
     25 C           0.7076  -25.3545  -44.7658 C.2       9 UNK         0.5000 
     26 O          -0.5036  -25.5647  -44.7335 O.2       9 UNK        -0.5000 
     27 CA          1.4461  -25.0138  -43.4589 C.3       9 UNK         0.1400 
     28 CB          1.8504  -26.2976  -42.7202 C.3       9 UNK        -0.1800 
     29 N           2.6298  -24.1725  -43.6553 N.am      9 UNK        -0.5000 
     30 C           2.6079  -22.9141  -44.1138 C.2       8 UNK         0.5000 
     31 O           1.5818  -22.3234  -44.4609 O.2       8 UNK        -0.5000 
     32 CA          3.9698  -22.2151  -44.2514 C.3       8 UNK         0.1400 
     33 CB          4.3046  -21.9727  -45.7313 C.3       8 UNK        -0.1800 
     34 N           3.9869  -20.9391  -43.5428 N.am      8 UNK        -0.5000 
     35 C           3.9726  -20.7960  -42.2098 C.2       7 UNK         0.5000 
     36 O           3.9780  -21.7424  -41.4215 O.2       7 UNK        -0.5000 
     37 CA          3.9752  -19.3550  -41.6620 C.3       7 UNK         0.1400 
     38 CB          5.3905  -18.9538  -41.2173 C.3       7 UNK        -0.1800 
     39 N           3.4933  -18.3804  -42.6438 N.am      7 UNK        -0.5000 
     40 C           2.2001  -18.1399  -42.8887 C.2       6 UNK         0.5000 
     41 O           1.2723  -18.6698  -42.2738 O.2       6 UNK        -0.5000 
     42 CA          1.8993  -17.1745  -44.0481 C.3       6 UNK         0.1400 
     43 CB          1.5971  -17.9619  -45.3326 C.3       6 UNK        -0.1800 
     44 N           0.7681  -16.2992  -43.7542 N.am      6 UNK        -0.5000 
     45 C           0.7794  -15.3148  -42.8504 C.2       5 UNK         0.5000 
     46 O           1.7569  -15.0251  -42.1552 O.2       5 UNK        -0.5000 
     47 CA         -0.5031  -14.4838  -42.7281 C.3       5 UNK         0.1400 
     48 CB         -1.2491  -14.7929  -41.4202 C.3       5 UNK        -0.1800 
     49 N          -0.1177  -13.0776  -42.7595 N.am      5 UNK        -0.5000 
     50 C          -0.7522  -12.1218  -43.4434 C.2       4 UNK         0.5000 
     51 O          -1.8163  -12.2999  -44.0406 O.2       4 UNK        -0.5000 
     52 CA         -0.0517  -10.7521  -43.4872 C.3       4 UNK         0.1400 
     53 CB          1.2001  -10.8055  -44.3792 C.3       4 UNK        -0.1800 
     54 N          -0.9491   -9.7303  -44.0197 N.am      4 UNK        -0.5000 
     55 C          -1.6553   -8.8670  -43.2795 C.2       3 UNK         0.5000 
     56 O          -1.5777   -8.7953  -42.0520 O.2       3 UNK        -0.5000 
     57 CA         -2.6059   -7.9120  -44.0295 C.3       3 UNK         0.1400 
     58 CB         -1.9388   -6.5433  -44.2363 C.3       3 UNK        -0.1800 
     59 N          -3.0354   -8.4295  -45.3295 N.am      3 UNK        -0.5000 
     60 C          -3.9119   -9.4274  -45.5000 C.2       2 UNK         0.5000 
     61 O          -4.5024   -9.9842  -44.5734 O.2       2 UNK        -0.5000 
     62 CA         -4.1787   -9.8919  -46.9452 C.3       2 UNK         0.1400 
     63 CB         -3.8625   -8.8269  -48.0205 C.3       2 UNK        -0.1800 
     64 N          -3.4935  -11.1543  -47.2379 N.am      2 UNK        -0.5000 
     65 C          -2.1717  -11.3830  -47.2294 C.2       1 UNK         0.5000 
     66 O          -1.3231  -10.5193  -46.9807 O.2       1 UNK        -0.5000 
     67 C          -1.3830  -21.6186  -46.6895 C.2       11 UNK         0.5000 
     68 O          -2.4814  -21.3124  -47.1541 O.2       11 UNK        -0.5000 
     69 N          -1.1299  -21.7968  -45.3862 N.am      12 UNK        -0.5000 
     70 CA         -2.0899  -21.5708  -44.3122 C.3       12 UNK         0.1400 
     71 CB         -1.3247  -21.2680  -43.0110 C.3       12 UNK        -0.1800 
     72 C          -3.0797  -22.7394  -44.1519 C.2       12 UNK         0.5000 
     73 O          -4.2239  -22.6304  -44.5917 O.2       12 UNK        -0.5000 
     74 N          -2.6390  -23.8177  -43.4897 N.am      13 UNK        -0.5000 
     75 CA         -3.4784  -24.9299  -43.0362 C.3       13 UNK         0.1400 
     76 CB         -2.6799  -25.8178  -42.0682 C.3       13 UNK        -0.1800 
     77 C          -4.0887  -25.7646  -44.1754 C.2       13 UNK         0.5000 
     78 O          -5.2747  -26.0913  -44.1119 O.2       13 UNK        -0.5000 
     79 N          -3.2868  -26.0757  -45.2032 N.am      14 UNK        -0.5000 
     80 CA         -3.7402  -26.7916  -46.4026 C.3       14 UNK         0.1400 
     81 CB         -2.5699  -27.5678  -47.0235 C.3       14 UNK        -0.1800 
     82 C          -4.4174  -25.8645  -47.4353 C.2       14 UNK         0.5000 
     83 O          -4.9699  -26.3619  -48.4172 O.2       14 UNK        -0.5000 
     84 N          -4.3918  -24.5488  -47.1774 N.am      15 UNK        -0.5000 
     85 CA         -5.1015  -23.4815  -47.8825 C.3       15 UNK         0.1400 
     86 CB         -6.6270  -23.6631  -47.7391 C.3       15 UNK        -0.1800 
     87 C          -4.6569  -23.2660  -49.3433 C.2       15 UNK         0.5000 
     88 O          -5.4640  -22.8189  -50.1621 O.2       15 UNK        -0.5000 
     89 N          -3.3739  -23.5170  -49.6522 N.am      16 UNK        -0.5000 
     90 CA         -2.7847  -23.2523  -50.9717 C.3       16 UNK         0.1400 
     91 CB         -1.3554  -23.8114  -51.0437 C.3       16 UNK        -0.1800 
     92 C          -2.8011  -21.7607  -51.3612 C.2       16 UNK         0.5000 
     93 O          -2.8314  -21.4524  -52.5537 O.2       16 UNK        -0.5000 
     94 N          -2.8224  -20.8700  -50.3572 N.am      17 UNK        -0.5000 
     95 CA         -2.9873  -19.4287  -50.5309 C.3       17 UNK         0.1400 
     96 CB         -2.6614  -18.7076  -49.2168 C.3       17 UNK        -0.1800 
     97 C          -4.3894  -19.0466  -51.0326 C.2       17 UNK         0.5000 
     98 O          -4.5055  -18.2090  -51.9267 O.2       17 UNK        -0.5000 
     99 N          -5.4240  -19.6889  -50.4726 N.am      18 UNK        -0.5000 
    100 CA        -6.8228  -19.4915  -50.8573 C.3       18 UNK         0.1400 
    101 CB        -7.7405  -20.0522  -49.7613 C.3       18 UNK        -0.1800 
    102 C         -7.1425  -20.1365  -52.2167 C.2       18 UNK         0.5000 
    103 O         -7.9006  -19.5638  -53.0000 O.2       18 UNK        -0.5000 
    104 N         -6.5356  -21.3020  -52.4809 N.am      19 UNK        -0.5000 
    105 CA        -6.6304  -22.0218  -53.7522 C.3       19 UNK         0.1400 
    106 CB        -6.1131  -23.4538  -53.5469 C.3       19 UNK        -0.1800 
    107 C         -5.8608  -21.3417  -54.9034 C.2       19 UNK         0.5000 
    108 O         -6.1358  -21.6429  -56.0653 O.2       19 UNK        -0.5000 
    109 N         -4.9018  -20.4669  -54.5596 N.am      20 UNK        -0.5000 
    110 CA        -3.9480  -19.7881  -55.4445 C.3       20 UNK         0.1400 
    111 CB        -4.6677  -18.8146  -56.3999 C.3       20 UNK        -0.1800 
    112 C         -3.0154  -20.7794  -56.1738 C.2       20 UNK         0.5000 
    113 O         -2.6218  -20.5469  -57.3188 O.2       20 UNK        -0.5000 
    114 N         -2.6679  -21.8756  -55.4845 N.am      21 UNK        -0.5000 
    115 CA        -1.8910  -22.9990  -56.0168 C.3       21 UNK         0.1400 
    116 CB        -2.0674  -24.2081  -55.0875 C.3       21 UNK        -0.1800 
    117 C         -0.4001  -22.6754  -56.2432 C.2       21 UNK         0.5000 
    118 O          0.2931  -23.4438  -56.9109 O.2       21 UNK        -0.5000 
    119 N          0.0572  -21.5370  -55.7091 N.am      22 UNK        -0.5000 
    120 CA         1.3634  -20.9240  -55.9888 C.3       22 UNK         0.1400 
    121 C          1.5239  -20.3710  -57.4392 C.2       22 UNK         0.5000 
    122 N          0.4572  -20.2013  -58.2144 N.am      22 UNK        -0.7600 
    123 O          2.6415  -20.1022  -57.8714 O.2       22 UNK        -0.5000 
    124 C124        1.7217  -19.8540  -54.9227 C.3       23 UNK        -0.0398 
    125 S125        0.5016  -18.4938  -54.8233 S.3       23 UNK        -0.2404 
    126 C126       -0.4290  -18.9321  -53.3252 C.3       23 UNK        -0.0205 
    127 H127        2.1942  -14.8700  -46.6620 H         1 UNK         0.0600 
    128 H128        1.8876  -13.8721  -45.2372 H         1 UNK         0.0600 
    129 H129        2.1796  -13.1112  -46.8026 H         1 UNK         0.0600 
    130 H130        0.2350  -12.1502  -47.4069 H         1 UNK         0.3000 
    131 H131       -2.3449  -13.4862  -46.9639 H         1 UNK         0.0600 
    132 H132       -2.9962  -12.8439  -49.3694 H         1 UNK         0.0800 
    133 H133       -1.3157  -12.5435  -49.7106 H         1 UNK         0.0800 
    134 H134        0.5573  -14.4922  -49.5702 H         1 UNK         0.0800 
    135 H135       -0.1818  -14.3403  -51.1459 H         1 UNK         0.0800 
    136 H136       -0.9287  -16.4382  -52.3804 H         1 UNK         0.1150 
    137 H137        1.3526  -19.9628  -51.5212 H         1 UNK         0.1150 
    138 H138        1.4945  -16.6049  -48.8528 H         1 UNK         0.1150 
    139 H139        2.6945  -18.5630  -48.2634 H         1 UNK         0.0800 
    140 H140        3.5068  -19.0792  -49.7191 H         1 UNK         0.0800 
    141 H141        0.2531  -19.7024  -47.8016 H         1 UNK         0.0800 
    142 H142        1.2363  -20.5452  -46.6261 H         1 UNK         0.0800 
    143 H143       -0.6140  -21.8813  -48.6530 H         1 UNK         0.0600 
    144 H144        1.4074  -23.0377  -46.9969 H         1 UNK         0.3000 
    145 H145        0.2589  -26.4182  -47.2470 H         1 UNK         0.0600 
    146 H146        1.5748  -25.7703  -49.2702 H         1 UNK         0.0600 
    147 H147        2.5844  -26.5481  -48.0615 H         1 UNK         0.0600 
    148 H148        2.6504  -24.7989  -48.2729 H         1 UNK         0.0600 
    149 H149        2.4248  -25.2033  -45.8314 H         1 UNK         0.3000 
    150 H150        0.7478  -24.4626  -42.8259 H         1 UNK         0.0600 
    151 H151        2.2959  -26.0717  -41.7512 H         1 UNK         0.0600 
    152 H152        0.9821  -26.9322  -42.5365 H         1 UNK         0.0600 
    153 H153        2.5698  -26.8833  -43.2938 H         1 UNK         0.0600 
    154 H154        3.5153  -24.5801  -43.3910 H         1 UNK         0.3000 
    155 H155        4.7465  -22.8540  -43.8257 H         1 UNK         0.0600 
    156 H156        3.5979  -21.2856  -46.1968 H         1 UNK         0.0600 
    157 H157        4.2807  -22.9039  -46.2988 H         1 UNK         0.0600 
    158 H158        5.3030  -21.5501  -45.8447 H         1 UNK         0.0600 
    159 H159        3.9541  -20.1077  -44.1114 H         1 UNK         0.3000 
    160 H160        3.3252  -19.3329  -40.7845 H         1 UNK         0.0600 
    161 H161        6.0928  -18.9587  -42.0519 H         1 UNK         0.0600 
    162 H162        5.7729  -19.6425  -40.4627 H         1 UNK         0.0600 
    163 H163        5.3975  -17.9562  -40.7775 H         1 UNK         0.0600 
    164 H164        4.1986  -17.8920  -43.1770 H         1 UNK         0.3000 
    165 H165        2.7747  -16.5460  -44.2257 H         1 UNK         0.0600 
    166 H166        2.4364  -18.6025  -45.6059 H         1 UNK         0.0600 
    167 H167        0.7199  -18.5991  -45.2113 H         1 UNK         0.0600 
    168 H168        1.4108  -17.2943  -46.1742 H         1 UNK         0.0600 
    169 H169       -0.0602  -16.4369  -44.3168 H         1 UNK         0.3000 
    170 H170       -1.1565  -14.7185  -43.5714 H         1 UNK         0.0600 
    171 H171       -0.6356  -14.5756  -40.5450 H         1 UNK         0.0600 
    172 H172       -1.5310  -15.8455  -41.3726 H         1 UNK         0.0600 
    173 H173       -2.1642  -14.2056  -41.3422 H         1 UNK         0.0600 
    174 H174        0.7734  -12.8783  -42.3234 H         1 UNK         0.3000 
    175 H175        0.2584  -10.4949  -42.4722 H         1 UNK         0.0600 
    176 H176        1.7122   -9.8432  -44.3919 H         1 UNK         0.0600 
    177 H177        1.9156  -11.5456  -44.0192 H         1 UNK         0.0600 
    178 H178        0.9504  -11.0608  -45.4088 H         1 UNK         0.0600 
    179 H179       -1.1344   -9.7839  -45.0155 H         1 UNK         0.3000 
    180 H180       -3.4902   -7.7690  -43.4048 H         1 UNK         0.0600 
    181 H181       -1.0510   -6.6194  -44.8654 H         1 UNK         0.0600 
    182 H182       -1.6298   -6.1113  -43.2834 H         1 UNK         0.0600 
    183 H183       -2.6241   -5.8367  -44.7049 H         1 UNK         0.0600 
    184 H184       -2.5779   -8.0480  -46.1449 H         1 UNK         0.3000 
    185 H185       -5.2481  -10.1005  -47.0037 H         1 UNK         0.0600 
    186 H186       -4.3962   -7.8974  -47.8181 H         1 UNK         0.0600 
    187 H187       -2.7999   -8.5913  -48.0816 H         1 UNK         0.0600 
    188 H188       -4.1779   -9.1682  -49.0065 H         1 UNK         0.0600 
    189 H189       -4.1096  -11.9364  -47.4104 H         1 UNK         0.3000 
    190 H190       -0.1895  -22.0613  -45.1018 H         1 UNK         0.3000 
    191 H191       -2.6777  -20.6828  -44.5554 H         1 UNK         0.0600 
    192 H192       -0.7475  -20.3484  -43.1076 H         1 UNK         0.0600 
    193 H193       -2.0101  -21.1329  -42.1734 H         1 UNK         0.0600 
    194 H194       -0.6278  -22.0634  -42.7454 H         1 UNK         0.0600 
    195 H195       -1.6670  -23.8577  -43.2247 H         1 UNK         0.3000 
    196 H196       -4.3093  -24.4970  -42.4749 H         1 UNK         0.0600 
    197 H197       -1.8188  -26.2779  -42.5528 H         1 UNK         0.0600 
    198 H198       -3.3022  -26.6237  -41.6774 H         1 UNK         0.0600 
    199 H199       -2.3180  -25.2453  -41.2141 H         1 UNK         0.0600 
    200 H200       -2.3067  -25.8014  -45.1613 H         1 UNK         0.3000 
    201 H201       -4.4867  -27.5292  -46.1005 H         1 UNK         0.0600 
    202 H202       -1.8858  -26.9082  -47.5489 H         1 UNK         0.0600 
    203 H203       -2.9341  -28.2925  -47.7524 H         1 UNK         0.0600 
    204 H204       -2.0055  -28.1172  -46.2698 H         1 UNK         0.0600 
    205 H205       -3.8984  -24.2536  -46.3460 H         1 UNK         0.3000 
    206 H206       -4.8414  -22.5615  -47.3586 H         1 UNK         0.0600 
    207 H207       -6.9902  -24.5127  -48.3181 H         1 UNK         0.0600 
    208 H208       -6.9083  -23.8204  -46.6976 H         1 UNK         0.0600 
    209 H209       -7.1625  -22.7795  -48.0843 H         1 UNK         0.0600 
    210 H210       -2.7509  -23.8896  -48.9392 H         1 UNK         0.3000 
    211 H211       -3.3848  -23.7876  -51.7086 H         1 UNK         0.0600 
    212 H212       -1.3375  -24.8805  -50.8315 H         1 UNK         0.0600 
    213 H213       -0.6866  -23.3176  -50.3429 H         1 UNK         0.0600 
    214 H214       -0.9227  -23.6677  -52.0323 H         1 UNK         0.0600 
    215 H215       -2.8062  -21.2117  -49.4047 H         1 UNK         0.3000 
    216 H216       -2.2762  -19.0957  -51.2819 H         1 UNK         0.0600 
    217 H217       -3.2929  -19.0499  -48.3967 H         1 UNK         0.0600 
    218 H218       -1.6210  -18.8599  -48.9335 H         1 UNK         0.0600 
    219 H219       -2.8129  -17.6336  -49.3170 H         1 UNK         0.0600 
    220 H220       -5.2404  -20.4044  -49.7847 H         1 UNK         0.3000 
    221 H221       -7.0093  -18.4186  -50.9405 H         1 UNK         0.0600 
    222 H222       -7.6365  -21.1327  -49.6656 H         1 UNK         0.0600 
    223 H223       -7.5224  -19.6038  -48.7920 H         1 UNK         0.0600 
    224 H224       -8.7870  -19.8449  -49.9883 H         1 UNK         0.0600 
    225 H225       -5.9893  -21.7414  -51.7457 H         1 UNK         0.3000 
    226 H226       -7.6825  -22.0738  -54.0401 H         1 UNK         0.0600 
    227 H227       -6.6480  -23.9581  -52.7418 H         1 UNK         0.0600 
    228 H228       -6.2451  -24.0505  -54.4503 H         1 UNK         0.0600 
    229 H229       -5.0514  -23.4627  -53.3024 H         1 UNK         0.0600 
    230 H230       -4.7446  -20.3236  -53.5712 H         1 UNK         0.3000 
    231 H231       -3.3084  -19.1919  -54.7940 H         1 UNK         0.0600 
    232 H232       -5.2757  -19.3410  -57.1360 H         1 UNK         0.0600 
    233 H233       -3.9490  -18.2042  -56.9478 H         1 UNK         0.0600 
    234 H234       -5.3184  -18.1341  -55.8507 H         1 UNK         0.0600 
    235 H235       -2.9613  -21.9398  -54.5150 H         1 UNK         0.3000 
    236 H236       -2.3086  -23.2622  -56.9909 H         1 UNK         0.0600 
    237 H237       -1.6889  -24.0002  -54.0895 H         1 UNK         0.0600 
    238 H238       -3.1177  -24.4864  -54.9969 H         1 UNK         0.0600 
    239 H239       -1.5322  -25.0788  -55.4684 H         1 UNK         0.0600 
    240 H240       -0.5953  -20.9660  -55.1948 H         1 UNK         0.3000 
    241 H241        2.1067  -21.7185  -55.8996 H         1 UNK         0.0600 
    242 H242        0.5785  -19.8476  -59.1501 H         1 UNK         0.3800 
    243 H243       -0.4747  -20.3962  -57.8715 H         1 UNK         0.3800 
    244 H244        2.7017  -19.4212  -55.1306 H         1 UNK         0.0800 
    245 H245        1.8194  -20.3280  -53.9457 H         1 UNK         0.0800 
    246 H246       -0.4757  -20.0148  -53.1999 H         1 UNK         0.0800 
    247 H247       -1.4594  -18.6014  -53.4567 H         1 UNK         0.0800 
@<TRIPOS>BOND
     1    1    2 1    
     2    1  127 1    
     3    1  128 1    
     4    1  129 1    
     5    2    3 2    
     6    2    4 am   BACKBONE|DICT|INTERRES
     7    4    5 1    
     8    4  130 1    
     9    5    6 1    
    10    5   65 1    
    11    5  131 1    
    12    6    7 1    
    13    6  132 1    
    14    6  133 1    
    15    7    8 1    
    16    8    9 1    
    17    8  134 1    
    18    8  135 1    
    19    9   10 ar   
    20    9   14 ar   
    21   10   11 ar   
    22   10  136 1    
    23   11   12 ar   
    24   11  126 1    
    25   12   13 ar   
    26   12  137 1    
    27   13   14 ar   
    28   13   15 1    
    29   14  138 1    
    30   15   16 1    
    31   15  139 1    
    32   15  140 1    
    33   16   17 1    
    34   17   18 1    
    35   17  141 1    
    36   17  142 1    
    37   18   19 1    
    38   18   67 1    
    39   18  143 1    
    40   19   20 am   BACKBONE|DICT|INTERRES
    41   19  144 1    
    42   20   21 2    
    43   20   22 1    
    44   22   23 1    
    45   22   24 1    
    46   22  145 1    
    47   23  146 1    
    48   23  147 1    
    49   23  148 1    
    50   24   25 am   BACKBONE|DICT|INTERRES
    51   24  149 1    
    52   25   26 2    
    53   25   27 1    
    54   27   28 1    
    55   27   29 1    
    56   27  150 1    
    57   28  151 1    
    58   28  152 1    
    59   28  153 1    
    60   29   30 am   BACKBONE|DICT|INTERRES
    61   29  154 1    
    62   30   31 2    
    63   30   32 1    
    64   32   33 1    
    65   32   34 1    
    66   32  155 1    
    67   33  156 1    
    68   33  157 1    
    69   33  158 1    
    70   34   35 am   BACKBONE|DICT|INTERRES
    71   34  159 1    
    72   35   36 2    
    73   35   37 1    
    74   37   38 1    
    75   37   39 1    
    76   37  160 1    
    77   38  161 1    
    78   38  162 1    
    79   38  163 1    
    80   39   40 am   BACKBONE|DICT|INTERRES
    81   39  164 1    
    82   40   41 2    
    83   40   42 1    
    84   42   43 1    
    85   42   44 1    
    86   42  165 1    
    87   43  166 1    
    88   43  167 1    
    89   43  168 1    
    90   44   45 am   BACKBONE|DICT|INTERRES
    91   44  169 1    
    92   45   46 2    
    93   45   47 1    
    94   47   48 1    
    95   47   49 1    
    96   47  170 1    
    97   48  171 1    
    98   48  172 1    
    99   48  173 1    
   100   49   50 am   BACKBONE|DICT|INTERRES
   101   49  174 1    
   102   50   51 2    
   103   50   52 1    
   104   52   53 1    
   105   52   54 1    
   106   52  175 1    
   107   53  176 1    
   108   53  177 1    
   109   53  178 1    
   110   54   55 am   BACKBONE|DICT|INTERRES
   111   54  179 1    
   112   55   56 2    
   113   55   57 1    
   114   57   58 1    
   115   57   59 1    
   116   57  180 1    
   117   58  181 1    
   118   58  182 1    
   119   58  183 1    
   120   59   60 am   BACKBONE|DICT|INTERRES
   121   59  184 1    
   122   60   61 2    
   123   60   62 1    
   124   62   63 1    
   125   62   64 1    
   126   62  185 1    
   127   63  186 1    
   128   63  187 1    
   129   63  188 1    
   130   64   65 am   BACKBONE|DICT|INTERRES
   131   64  189 1    
   132   65   66 2    
   133   67   68 2    
   134   67   69 am   BACKBONE|DICT|INTERRES
   135   69   70 1    
   136   69  190 1    
   137   70   71 1    
   138   70   72 1    
   139   70  191 1    
   140   71  192 1    
   141   71  193 1    
   142   71  194 1    
   143   72   73 2    
   144   72   74 am   BACKBONE|DICT|INTERRES
   145   74   75 1    
   146   74  195 1    
   147   75   76 1    
   148   75   77 1    
   149   75  196 1    
   150   76  197 1    
   151   76  198 1    
   152   76  199 1    
   153   77   78 2    
   154   77   79 am   BACKBONE|DICT|INTERRES
   155   79   80 1    
   156   79  200 1    
   157   80   81 1    
   158   80   82 1    
   159   80  201 1    
   160   81  202 1    
   161   81  203 1    
   162   81  204 1    
   163   82   83 2    
   164   82   84 am   BACKBONE|DICT|INTERRES
   165   84   85 1    
   166   84  205 1    
   167   85   86 1    
   168   85   87 1    
   169   85  206 1    
   170   86  207 1    
   171   86  208 1    
   172   86  209 1    
   173   87   88 2    
   174   87   89 am   BACKBONE|DICT|INTERRES
   175   89   90 1    
   176   89  210 1    
   177   90   91 1    
   178   90   92 1    
   179   90  211 1    
   180   91  212 1    
   181   91  213 1    
   182   91  214 1    
   183   92   93 2    
   184   92   94 am   BACKBONE|DICT|INTERRES
   185   94   95 1    
   186   94  215 1    
   187   95   96 1    
   188   95   97 1    
   189   95  216 1    
   190   96  217 1    
   191   96  218 1    
   192   96  219 1    
   193   97   98 2    
   194   97   99 am   BACKBONE|DICT|INTERRES
   195   99  100 1    
   196   99  220 1    
   197  100  101 1    
   198  100  102 1    
   199  100  221 1    
   200  101  222 1    
   201  101  223 1    
   202  101  224 1    
   203  102  103 2    
   204  102  104 am   BACKBONE|DICT|INTERRES
   205  104  105 1    
   206  104  225 1    
   207  105  106 1    
   208  105  107 1    
   209  105  226 1    
   210  106  227 1    
   211  106  228 1    
   212  106  229 1    
   213  107  108 2    
   214  107  109 am   BACKBONE|DICT|INTERRES
   215  109  110 1    
   216  109  230 1    
   217  110  111 1    
   218  110  112 1    
   219  110  231 1    
   220  111  232 1    
   221  111  233 1    
   222  111  234 1    
   223  112  113 2    
   224  112  114 am   BACKBONE|DICT|INTERRES
   225  114  115 1    
   226  114  235 1    
   227  115  116 1    
   228  115  117 1    
   229  115  236 1    
   230  116  237 1    
   231  116  238 1    
   232  116  239 1    
   233  117  118 2    
   234  117  119 am   BACKBONE|DICT|INTERRES
   235  119  120 1    
   236  119  240 1    
   237  120  121 1    
   238  120  124 1    
   239  120  241 1    
   240  121  122 am   BACKBONE|DICT|INTERRES
   241  121  123 2    
   242  122  242 1    
   243  122  243 1    
   244  124  125 1    
   245  124  244 1    
   246  124  245 1    
   247  125  126 1    
   248  126  246 1    
   249  126  247 1    
@<TRIPOS>SUBSTRUCTURE
     1 UNK         1 GROUP             0       ****    0 ROOT    
