@<TRIPOS>MOLECULE
3R540
247   249    1
SMALL
USER_CHARGES


@<TRIPOS>ATOM
      1 CA          3.4056  -17.9250  -47.6525 C.3       0 UNK        -0.1800 
      2 C           2.0034  -17.4477  -47.3082 C.2       0 UNK         0.5000 
      3 O           1.2048  -18.2192  -46.7780 O.2       0 UNK        -0.5000 
      4 N           1.7193  -16.1789  -47.6082 N.am      1 UNK        -0.5000 
      5 CA          0.4967  -15.4672  -47.2429 C.3       1 UNK         0.1400 
      6 C6         -0.5450  -15.4126  -48.3926 C.3       23 UNK        -0.0398 
      7 S7         -1.5502  -16.9271  -48.4929 S.3       23 UNK        -0.2404 
      8 C8         -2.1901  -16.8126  -50.1930 C.3       23 UNK        -0.0205 
      9 C9         -1.2410  -17.4482  -51.1971 C.ar      23 UNK        -0.0193 
     10 C10        -0.6684  -16.6961  -52.2267 C.ar      23 UNK        -0.1150 
     11 C11         0.1924  -17.3012  -53.1493 C.ar      23 UNK        -0.0193 
     12 C12         0.5116  -18.6558  -53.0101 C.ar      23 UNK        -0.1150 
     13 C13        -0.0725  -19.4203  -51.9989 C.ar      23 UNK        -0.0193 
     14 C14        -0.9628  -18.8133  -51.1122 C.ar      23 UNK        -0.1150 
     15 C15         0.2269  -20.9068  -51.8815 C.3       23 UNK        -0.0205 
     16 S16         1.7480  -21.2553  -50.9322 S.3       23 UNK        -0.2404 
     17 C17         1.3984  -20.5597  -49.2766 C.3       23 UNK        -0.0398 
     18 CA          0.7869  -21.5600  -48.2684 C.3       11 UNK         0.1400 
     19 N           0.8155  -21.0354  -46.9019 N.am      11 UNK        -0.5000 
     20 C           0.5772  -21.7699  -45.8075 C.2       10 UNK         0.5000 
     21 O           0.3317  -22.9759  -45.8332 O.2       10 UNK        -0.5000 
     22 CA          0.5723  -21.0246  -44.4625 C.3       10 UNK         0.1400 
     23 CB          2.0058  -20.8465  -43.9421 C.3       10 UNK        -0.1800 
     24 N          -0.0861  -19.7181  -44.5180 N.am      10 UNK        -0.5000 
     25 C          -1.3734  -19.5101  -44.8284 C.2       9 UNK         0.5000 
     26 O          -2.1457  -20.4128  -45.1535 O.2       9 UNK        -0.5000 
     27 CA         -1.8744  -18.0579  -44.7309 C.3       9 UNK         0.1400 
     28 CB         -3.4058  -17.9548  -44.5885 C.3       9 UNK        -0.1800 
     29 N          -1.2177  -17.3738  -43.6183 N.am      9 UNK        -0.5000 
     30 C          -1.0333  -16.0535  -43.5193 C.2       8 UNK         0.5000 
     31 O          -1.4132  -15.2281  -44.3506 O.2       8 UNK        -0.5000 
     32 CA         -0.2498  -15.5667  -42.2895 C.3       8 UNK         0.1400 
     33 CB         -1.1786  -15.4617  -41.0715 C.3       8 UNK        -0.1800 
     34 N           0.9355  -16.3611  -41.9568 N.am      8 UNK        -0.5000 
     35 C           1.9439  -16.6492  -42.7958 C.2       7 UNK         0.5000 
     36 O           1.9315  -16.3560  -43.9920 O.2       7 UNK        -0.5000 
     37 CA          3.1927  -17.3461  -42.2169 C.3       7 UNK         0.1400 
     38 CB          4.4790  -16.6340  -42.6695 C.3       7 UNK        -0.1800 
     39 N           3.1963  -17.4107  -40.7558 N.am      7 UNK        -0.5000 
     40 C           2.6206  -18.3617  -40.0089 C.2       6 UNK         0.5000 
     41 O           1.9972  -19.3135  -40.4767 O.2       6 UNK        -0.5000 
     42 CA          2.7483  -18.2097  -38.4793 C.3       6 UNK         0.1400 
     43 CB          3.8820  -19.0981  -37.9449 C.3       6 UNK        -0.1800 
     44 N           2.9872  -16.8254  -38.0559 N.am      6 UNK        -0.5000 
     45 C           2.0798  -15.8426  -38.1317 C.2       5 UNK         0.5000 
     46 O           0.9226  -16.0300  -38.5125 O.2       5 UNK        -0.5000 
     47 CA          2.5343  -14.4289  -37.7010 C.3       5 UNK         0.1400 
     48 CB          4.0371  -14.1656  -37.9500 C.3       5 UNK        -0.1800 
     49 N           1.7207  -13.3627  -38.2993 N.am      5 UNK        -0.5000 
     50 C           1.5870  -13.0808  -39.6029 C.2       4 UNK         0.5000 
     51 O           2.1739  -13.6760  -40.5116 O.2       4 UNK        -0.5000 
     52 CA          0.6422  -11.9191  -39.9438 C.3       4 UNK         0.1400 
     53 CB          1.3362  -10.5621  -39.7274 C.3       4 UNK        -0.1800 
     54 N           0.2265  -12.0461  -41.3350 N.am      4 UNK        -0.5000 
     55 C          -0.8688  -11.5130  -41.8884 C.2       3 UNK         0.5000 
     56 O          -1.6729  -10.8252  -41.2575 O.2       3 UNK        -0.5000 
     57 CA         -1.1390  -11.8187  -43.3813 C.3       3 UNK         0.1400 
     58 CB         -1.6592  -10.5848  -44.1472 C.3       3 UNK        -0.1800 
     59 N          -0.0159  -12.4437  -44.0944 N.am      3 UNK        -0.5000 
     60 C           1.1913  -11.9168  -44.3551 C.2       2 UNK         0.5000 
     61 O           1.5217  -10.7727  -44.0439 O.2       2 UNK        -0.5000 
     62 CA          2.2252  -12.8300  -45.0441 C.3       2 UNK         0.1400 
     63 CB          3.3162  -13.2434  -44.0438 C.3       2 UNK        -0.1800 
     64 N           1.6476  -14.0406  -45.6329 N.am      2 UNK        -0.5000 
     65 C           0.9442  -14.0739  -46.7719 C.2       1 UNK         0.5000 
     66 O           0.7086  -13.0756  -47.4545 O.2       1 UNK        -0.5000 
     67 C          -0.6400  -21.9813  -48.6634 C.2       11 UNK         0.5000 
     68 O          -0.8142  -23.0590  -49.2293 O.2       11 UNK        -0.5000 
     69 N          -1.6370  -21.1497  -48.3278 N.am      12 UNK        -0.5000 
     70 CA         -3.0445  -21.4119  -48.6281 C.3       12 UNK         0.1400 
     71 CB         -3.8754  -20.1431  -48.3941 C.3       12 UNK        -0.1800 
     72 C          -3.6136  -22.5988  -47.8333 C.2       12 UNK         0.5000 
     73 O          -4.4466  -23.3319  -48.3628 O.2       12 UNK        -0.5000 
     74 N          -3.1384  -22.7808  -46.5942 N.am      13 UNK        -0.5000 
     75 CA         -3.4460  -23.9357  -45.7542 C.3       13 UNK         0.1400 
     76 CB         -2.9902  -23.6530  -44.3146 C.3       13 UNK        -0.1800 
     77 C          -2.8105  -25.2343  -46.2867 C.2       13 UNK         0.5000 
     78 O          -3.4635  -26.2779  -46.2676 O.2       13 UNK        -0.5000 
     79 N          -1.5554  -25.1496  -46.7508 N.am      14 UNK        -0.5000 
     80 CA         -0.8017  -26.2712  -47.3103 C.3       14 UNK         0.1400 
     81 CB          0.6884  -25.9023  -47.3884 C.3       14 UNK        -0.1800 
     82 C          -1.3321  -26.7119  -48.6860 C.2       14 UNK         0.5000 
     83 O          -1.6338  -27.8906  -48.8764 O.2       14 UNK        -0.5000 
     84 N          -1.4533  -25.7575  -49.6154 N.am      15 UNK        -0.5000 
     85 CA         -1.9022  -25.9637  -50.9910 C.3       15 UNK         0.1400 
     86 CB         -1.0531  -25.0838  -51.9276 C.3       15 UNK        -0.1800 
     87 C          -3.4076  -25.6719  -51.1190 C.2       15 UNK         0.5000 
     88 O          -3.8168  -24.9177  -52.0025 O.2       15 UNK        -0.5000 
     89 N          -4.2150  -26.2791  -50.2387 N.am      16 UNK        -0.5000 
     90 CA         -5.6569  -26.0469  -50.0803 C.3       16 UNK         0.1400 
     91 CB         -6.1682  -26.9007  -48.9104 C.3       16 UNK        -0.1800 
     92 C          -6.5172  -26.2830  -51.3389 C.2       16 UNK         0.5000 
     93 O          -7.6137  -25.7300  -51.4288 O.2       16 UNK        -0.5000 
     94 N          -6.0079  -27.0742  -52.2932 N.am      17 UNK        -0.5000 
     95 CA         -6.6177  -27.2971  -53.6053 C.3       17 UNK         0.1400 
     96 CB         -5.8978  -28.4642  -54.2982 C.3       17 UNK        -0.1800 
     97 C          -6.6046  -26.0443  -54.5069 C.2       17 UNK         0.5000 
     98 O          -7.5025  -25.8944  -55.3366 O.2       17 UNK        -0.5000 
     99 N          -5.5995  -25.1757  -54.3302 N.am      18 UNK        -0.5000 
    100 CA        -5.4565  -23.9031  -55.0399 C.3       18 UNK         0.1400 
    101 CB        -4.0197  -23.7844  -55.5729 C.3       18 UNK        -0.1800 
    102 C         -5.7751  -22.7102  -54.1245 C.2       18 UNK         0.5000 
    103 O         -6.2922  -21.7006  -54.6031 O.2       18 UNK        -0.5000 
    104 N         -5.4507  -22.8365  -52.8302 N.am      19 UNK        -0.5000 
    105 CA        -5.5339  -21.8078  -51.7965 C.3       19 UNK         0.1400 
    106 CB        -7.0053  -21.4824  -51.4571 C.3       19 UNK        -0.1800 
    107 C         -4.6727  -20.5874  -52.1807 C.2       19 UNK         0.5000 
    108 O         -3.4521  -20.7224  -52.2575 O.2       19 UNK        -0.5000 
    109 N         -5.3116  -19.4387  -52.4292 N.am      20 UNK        -0.5000 
    110 CA        -4.6595  -18.1874  -52.8121 C.3       20 UNK         0.1400 
    111 CB        -5.4325  -17.0235  -52.1698 C.3       20 UNK        -0.1800 
    112 C         -4.5401  -17.9885  -54.3363 C.2       20 UNK         0.5000 
    113 O         -3.9865  -16.9711  -54.7563 O.2       20 UNK        -0.5000 
    114 N         -5.0595  -18.9194  -55.1520 N.am      21 UNK        -0.5000 
    115 CA        -5.0827  -18.8265  -56.6166 C.3       21 UNK         0.1400 
    116 CB        -6.2312  -19.6935  -57.1638 C.3       21 UNK        -0.1800 
    117 C         -3.7213  -19.1699  -57.2623 C.2       21 UNK         0.5000 
    118 O         -3.6361  -20.0867  -58.0817 O.2       21 UNK        -0.5000 
    119 N         -2.6765  -18.4269  -56.8820 N.am      22 UNK        -0.5000 
    120 CA        -1.3133  -18.5334  -57.4274 C.3       22 UNK         0.1400 
    121 C         -1.0895  -17.8063  -58.7870 C.2       22 UNK         0.5000 
    122 N         -2.0440  -17.0392  -59.3003 N.am      22 UNK        -0.7600 
    123 O         -0.0350  -17.9565  -59.3985 O.2       22 UNK        -0.5000 
    124 C124       -0.2445  -18.1532  -56.3717 C.3       23 UNK        -0.0398 
    125 S125       -0.3859  -16.4480  -55.7229 S.3       23 UNK        -0.2404 
    126 C126        0.7627  -16.4970  -54.3075 C.3       23 UNK        -0.0205 
    127 H127        3.6354  -18.8525  -47.1276 H         1 UNK         0.0600 
    128 H128        4.1489  -17.1820  -47.3626 H         1 UNK         0.0600 
    129 H129        3.4939  -18.1024  -48.7242 H         1 UNK         0.0600 
    130 H130        2.4319  -15.6029  -48.0347 H         1 UNK         0.3000 
    131 H131        0.0401  -15.9483  -46.3778 H         1 UNK         0.0600 
    132 H132       -0.0542  -15.2267  -49.3494 H         1 UNK         0.0800 
    133 H133       -1.2504  -14.5930  -48.2438 H         1 UNK         0.0800 
    134 H134       -2.3962  -15.7713  -50.4450 H         1 UNK         0.0800 
    135 H135       -3.1474  -17.3305  -50.2351 H         1 UNK         0.0800 
    136 H136       -0.9061  -15.6462  -52.3247 H         1 UNK         0.1150 
    137 H137        1.1918  -19.1246  -53.7072 H         1 UNK         0.1150 
    138 H138       -1.4354  -19.4026  -50.3420 H         1 UNK         0.1150 
    139 H139       -0.6233  -21.4280  -51.4411 H         1 UNK         0.0800 
    140 H140        0.3395  -21.3306  -52.8804 H         1 UNK         0.0800 
    141 H141        0.8041  -19.6500  -49.3451 H         1 UNK         0.0800 
    142 H142        2.3652  -20.2388  -48.8915 H         1 UNK         0.0800 
    143 H143        1.4056  -22.4602  -48.2793 H         1 UNK         0.0600 
    144 H144        0.9699  -20.0339  -46.7938 H         1 UNK         0.3000 
    145 H145        0.0237  -21.6421  -43.7484 H         1 UNK         0.0600 
    146 H146        2.0054  -20.4524  -42.9267 H         1 UNK         0.0600 
    147 H147        2.5355  -21.7997  -43.9167 H         1 UNK         0.0600 
    148 H148        2.5816  -20.1652  -44.5702 H         1 UNK         0.0600 
    149 H149        0.5034  -18.9093  -44.3816 H         1 UNK         0.3000 
    150 H150       -1.5805  -17.5732  -45.6616 H         1 UNK         0.0600 
    151 H151       -3.9137  -18.4257  -45.4299 H         1 UNK         0.0600 
    152 H152       -3.7330  -16.9155  -44.5607 H         1 UNK         0.0600 
    153 H153       -3.7549  -18.4413  -43.6772 H         1 UNK         0.0600 
    154 H154       -0.8598  -17.9691  -42.8839 H         1 UNK         0.3000 
    155 H155        0.1146  -14.5675  -42.5162 H         1 UNK         0.0600 
    156 H156       -1.4697  -16.4447  -40.6998 H         1 UNK         0.0600 
    157 H157       -0.7000  -14.9225  -40.2557 H         1 UNK         0.0600 
    158 H158       -2.0916  -14.9177  -41.3177 H         1 UNK         0.0600 
    159 H159        1.0471  -16.6059  -40.9826 H         1 UNK         0.3000 
    160 H160        3.2112  -18.3594  -42.6208 H         1 UNK         0.0600 
    161 H161        5.3655  -17.1485  -42.2984 H         1 UNK         0.0600 
    162 H162        4.5143  -15.6043  -42.3115 H         1 UNK         0.0600 
    163 H163        4.5561  -16.6071  -43.7574 H         1 UNK         0.0600 
    164 H164        3.6558  -16.6487  -40.2791 H         1 UNK         0.3000 
    165 H165        1.8098  -18.5488  -38.0353 H         1 UNK         0.0600 
    166 H166        3.9384  -19.0545  -36.8570 H         1 UNK         0.0600 
    167 H167        3.7224  -20.1419  -38.2187 H         1 UNK         0.0600 
    168 H168        4.8515  -18.7985  -38.3448 H         1 UNK         0.0600 
    169 H169        3.9137  -16.6095  -37.7170 H         1 UNK         0.3000 
    170 H170        2.3617  -14.3718  -36.6255 H         1 UNK         0.0600 
    171 H171        4.6641  -14.8105  -37.3338 H         1 UNK         0.0600 
    172 H172        4.3133  -14.3310  -38.9920 H         1 UNK         0.0600 
    173 H173        4.3005  -13.1382  -37.6981 H         1 UNK         0.0600 
    174 H174        1.1717  -12.8282  -37.6409 H         1 UNK         0.3000 
    175 H175       -0.2368  -11.9913  -39.2998 H         1 UNK         0.0600 
    176 H176        2.2090  -10.4533  -40.3727 H         1 UNK         0.0600 
    177 H177        0.6608   -9.7327  -39.9373 H         1 UNK         0.0600 
    178 H178        1.6728  -10.4510  -38.6961 H         1 UNK         0.0600 
    179 H179        0.8446  -12.6186  -41.8943 H         1 UNK         0.3000 
    180 H180       -1.9374  -12.5620  -43.3867 H         1 UNK         0.0600 
    181 H181       -0.9481   -9.7590  -44.1190 H         1 UNK         0.0600 
    182 H182       -2.5941  -10.2226  -43.7181 H         1 UNK         0.0600 
    183 H183       -1.8558  -10.8238  -45.1924 H         1 UNK         0.0600 
    184 H184       -0.1922  -13.3881  -44.4154 H         1 UNK         0.3000 
    185 H185        2.6961  -12.2495  -45.8401 H         1 UNK         0.0600 
    186 H186        3.8317  -12.3701  -43.6422 H         1 UNK         0.0600 
    187 H187        2.8988  -13.7912  -43.1988 H         1 UNK         0.0600 
    188 H188        4.0682  -13.8762  -44.5156 H         1 UNK         0.0600 
    189 H189        1.8089  -14.9126  -45.1302 H         1 UNK         0.3000 
    190 H190       -1.4255  -20.3087  -47.8109 H         1 UNK         0.3000 
    191 H191       -3.1093  -21.6697  -49.6864 H         1 UNK         0.0600 
    192 H192       -3.8030  -19.8009  -47.3622 H         1 UNK         0.0600 
    193 H193       -4.9298  -20.3206  -48.6097 H         1 UNK         0.0600 
    194 H194       -3.5466  -19.3329  -49.0424 H         1 UNK         0.0600 
    195 H195       -2.5210  -22.0779  -46.2001 H         1 UNK         0.3000 
    196 H196       -4.5295  -24.0721  -45.7467 H         1 UNK         0.0600 
    197 H197       -3.2295  -24.4900  -43.6575 H         1 UNK         0.0600 
    198 H198       -3.4856  -22.7695  -43.9115 H         1 UNK         0.0600 
    199 H199       -1.9141  -23.4863  -44.2572 H         1 UNK         0.0600 
    200 H200       -1.0682  -24.2625  -46.6874 H         1 UNK         0.3000 
    201 H201       -0.8997  -27.1193  -46.6292 H         1 UNK         0.0600 
    202 H202        1.0910  -25.6845  -46.3990 H         1 UNK         0.0600 
    203 H203        0.8569  -25.0265  -48.0158 H         1 UNK         0.0600 
    204 H204        1.2738  -26.7232  -47.8043 H         1 UNK         0.0600 
    205 H205       -1.2223  -24.7951  -49.3699 H         1 UNK         0.3000 
    206 H206       -1.7468  -27.0039  -51.2837 H         1 UNK         0.0600 
    207 H207        0.0103  -25.2917  -51.8088 H         1 UNK         0.0600 
    208 H208       -1.3054  -25.2668  -52.9728 H         1 UNK         0.0600 
    209 H209       -1.2089  -24.0216  -51.7346 H         1 UNK         0.0600 
    210 H210       -3.7854  -26.8867  -49.5545 H         1 UNK         0.3000 
    211 H211       -5.7877  -24.9970  -49.8159 H         1 UNK         0.0600 
    212 H212       -6.0181  -27.9651  -49.0945 H         1 UNK         0.0600 
    213 H213       -7.2345  -26.7418  -48.7438 H         1 UNK         0.0600 
    214 H214       -5.6559  -26.6432  -47.9832 H         1 UNK         0.0600 
    215 H215       -5.1061  -27.4968  -52.1309 H         1 UNK         0.3000 
    216 H216       -7.6605  -27.5823  -53.4511 H         1 UNK         0.0600 
    217 H217       -6.3443  -28.6762  -55.2706 H         1 UNK         0.0600 
    218 H218       -5.9644  -29.3769  -53.7057 H         1 UNK         0.0600 
    219 H219       -4.8419  -28.2454  -54.4626 H         1 UNK         0.0600 
    220 H220       -4.9261  -25.3548  -53.5931 H         1 UNK         0.3000 
    221 H221       -6.1380  -23.8572  -55.8918 H         1 UNK         0.0600 
    222 H222       -3.2862  -23.8158  -54.7658 H         1 UNK         0.0600 
    223 H223       -3.7898  -24.5933  -56.2664 H         1 UNK         0.0600 
    224 H224       -3.8786  -22.8449  -56.1096 H         1 UNK         0.0600 
    225 H225       -4.9372  -23.6700  -52.5507 H         1 UNK         0.3000 
    226 H226       -5.0810  -22.2390  -50.9035 H         1 UNK         0.0600 
    227 H227       -7.5306  -22.3798  -51.1293 H         1 UNK         0.0600 
    228 H228       -7.0691  -20.7597  -50.6426 H         1 UNK         0.0600 
    229 H229       -7.5521  -21.0770  -52.3087 H         1 UNK         0.0600 
    230 H230       -6.3203  -19.4265  -52.3821 H         1 UNK         0.3000 
    231 H231       -3.6425  -18.1759  -52.4204 H         1 UNK         0.0600 
    232 H232       -4.9363  -16.0707  -52.3591 H         1 UNK         0.0600 
    233 H233       -5.4999  -17.1420  -51.0882 H         1 UNK         0.0600 
    234 H234       -6.4473  -16.9498  -52.5625 H         1 UNK         0.0600 
    235 H235       -5.4699  -19.7559  -54.7511 H         1 UNK         0.3000 
    236 H236       -5.3088  -17.7936  -56.8896 H         1 UNK         0.0600 
    237 H237       -7.1786  -19.4477  -56.6839 H         1 UNK         0.0600 
    238 H238       -6.3597  -19.5360  -58.2353 H         1 UNK         0.0600 
    239 H239       -6.0436  -20.7567  -57.0133 H         1 UNK         0.0600 
    240 H240       -2.8302  -17.7001  -56.1890 H         1 UNK         0.3000 
    241 H241       -1.1436  -19.5879  -57.6535 H         1 UNK         0.0600 
    242 H242       -1.8906  -16.5793  -60.1842 H         1 UNK         0.3800 
    243 H243       -2.9105  -16.9003  -58.8063 H         1 UNK         0.3800 
    244 H244       -0.3348  -18.8513  -55.5414 H         1 UNK         0.0800 
    245 H245        0.7614  -18.2956  -56.7701 H         1 UNK         0.0800 
    246 H246        1.7222  -16.9072  -54.6263 H         1 UNK         0.0800 
    247 H247        0.9621  -15.4757  -53.9798 H         1 UNK         0.0800 
@<TRIPOS>BOND
     1    1    2 1    
     2    1  127 1    
     3    1  128 1    
     4    1  129 1    
     5    2    3 2    
     6    2    4 am   BACKBONE|DICT|INTERRES
     7    4    5 1    
     8    4  130 1    
     9    5    6 1    
    10    5   65 1    
    11    5  131 1    
    12    6    7 1    
    13    6  132 1    
    14    6  133 1    
    15    7    8 1    
    16    8    9 1    
    17    8  134 1    
    18    8  135 1    
    19    9   10 ar   
    20    9   14 ar   
    21   10   11 ar   
    22   10  136 1    
    23   11   12 ar   
    24   11  126 1    
    25   12   13 ar   
    26   12  137 1    
    27   13   14 ar   
    28   13   15 1    
    29   14  138 1    
    30   15   16 1    
    31   15  139 1    
    32   15  140 1    
    33   16   17 1    
    34   17   18 1    
    35   17  141 1    
    36   17  142 1    
    37   18   19 1    
    38   18   67 1    
    39   18  143 1    
    40   19   20 am   BACKBONE|DICT|INTERRES
    41   19  144 1    
    42   20   21 2    
    43   20   22 1    
    44   22   23 1    
    45   22   24 1    
    46   22  145 1    
    47   23  146 1    
    48   23  147 1    
    49   23  148 1    
    50   24   25 am   BACKBONE|DICT|INTERRES
    51   24  149 1    
    52   25   26 2    
    53   25   27 1    
    54   27   28 1    
    55   27   29 1    
    56   27  150 1    
    57   28  151 1    
    58   28  152 1    
    59   28  153 1    
    60   29   30 am   BACKBONE|DICT|INTERRES
    61   29  154 1    
    62   30   31 2    
    63   30   32 1    
    64   32   33 1    
    65   32   34 1    
    66   32  155 1    
    67   33  156 1    
    68   33  157 1    
    69   33  158 1    
    70   34   35 am   BACKBONE|DICT|INTERRES
    71   34  159 1    
    72   35   36 2    
    73   35   37 1    
    74   37   38 1    
    75   37   39 1    
    76   37  160 1    
    77   38  161 1    
    78   38  162 1    
    79   38  163 1    
    80   39   40 am   BACKBONE|DICT|INTERRES
    81   39  164 1    
    82   40   41 2    
    83   40   42 1    
    84   42   43 1    
    85   42   44 1    
    86   42  165 1    
    87   43  166 1    
    88   43  167 1    
    89   43  168 1    
    90   44   45 am   BACKBONE|DICT|INTERRES
    91   44  169 1    
    92   45   46 2    
    93   45   47 1    
    94   47   48 1    
    95   47   49 1    
    96   47  170 1    
    97   48  171 1    
    98   48  172 1    
    99   48  173 1    
   100   49   50 am   BACKBONE|DICT|INTERRES
   101   49  174 1    
   102   50   51 2    
   103   50   52 1    
   104   52   53 1    
   105   52   54 1    
   106   52  175 1    
   107   53  176 1    
   108   53  177 1    
   109   53  178 1    
   110   54   55 am   BACKBONE|DICT|INTERRES
   111   54  179 1    
   112   55   56 2    
   113   55   57 1    
   114   57   58 1    
   115   57   59 1    
   116   57  180 1    
   117   58  181 1    
   118   58  182 1    
   119   58  183 1    
   120   59   60 am   BACKBONE|DICT|INTERRES
   121   59  184 1    
   122   60   61 2    
   123   60   62 1    
   124   62   63 1    
   125   62   64 1    
   126   62  185 1    
   127   63  186 1    
   128   63  187 1    
   129   63  188 1    
   130   64   65 am   BACKBONE|DICT|INTERRES
   131   64  189 1    
   132   65   66 2    
   133   67   68 2    
   134   67   69 am   BACKBONE|DICT|INTERRES
   135   69   70 1    
   136   69  190 1    
   137   70   71 1    
   138   70   72 1    
   139   70  191 1    
   140   71  192 1    
   141   71  193 1    
   142   71  194 1    
   143   72   73 2    
   144   72   74 am   BACKBONE|DICT|INTERRES
   145   74   75 1    
   146   74  195 1    
   147   75   76 1    
   148   75   77 1    
   149   75  196 1    
   150   76  197 1    
   151   76  198 1    
   152   76  199 1    
   153   77   78 2    
   154   77   79 am   BACKBONE|DICT|INTERRES
   155   79   80 1    
   156   79  200 1    
   157   80   81 1    
   158   80   82 1    
   159   80  201 1    
   160   81  202 1    
   161   81  203 1    
   162   81  204 1    
   163   82   83 2    
   164   82   84 am   BACKBONE|DICT|INTERRES
   165   84   85 1    
   166   84  205 1    
   167   85   86 1    
   168   85   87 1    
   169   85  206 1    
   170   86  207 1    
   171   86  208 1    
   172   86  209 1    
   173   87   88 2    
   174   87   89 am   BACKBONE|DICT|INTERRES
   175   89   90 1    
   176   89  210 1    
   177   90   91 1    
   178   90   92 1    
   179   90  211 1    
   180   91  212 1    
   181   91  213 1    
   182   91  214 1    
   183   92   93 2    
   184   92   94 am   BACKBONE|DICT|INTERRES
   185   94   95 1    
   186   94  215 1    
   187   95   96 1    
   188   95   97 1    
   189   95  216 1    
   190   96  217 1    
   191   96  218 1    
   192   96  219 1    
   193   97   98 2    
   194   97   99 am   BACKBONE|DICT|INTERRES
   195   99  100 1    
   196   99  220 1    
   197  100  101 1    
   198  100  102 1    
   199  100  221 1    
   200  101  222 1    
   201  101  223 1    
   202  101  224 1    
   203  102  103 2    
   204  102  104 am   BACKBONE|DICT|INTERRES
   205  104  105 1    
   206  104  225 1    
   207  105  106 1    
   208  105  107 1    
   209  105  226 1    
   210  106  227 1    
   211  106  228 1    
   212  106  229 1    
   213  107  108 2    
   214  107  109 am   BACKBONE|DICT|INTERRES
   215  109  110 1    
   216  109  230 1    
   217  110  111 1    
   218  110  112 1    
   219  110  231 1    
   220  111  232 1    
   221  111  233 1    
   222  111  234 1    
   223  112  113 2    
   224  112  114 am   BACKBONE|DICT|INTERRES
   225  114  115 1    
   226  114  235 1    
   227  115  116 1    
   228  115  117 1    
   229  115  236 1    
   230  116  237 1    
   231  116  238 1    
   232  116  239 1    
   233  117  118 2    
   234  117  119 am   BACKBONE|DICT|INTERRES
   235  119  120 1    
   236  119  240 1    
   237  120  121 1    
   238  120  124 1    
   239  120  241 1    
   240  121  122 am   BACKBONE|DICT|INTERRES
   241  121  123 2    
   242  122  242 1    
   243  122  243 1    
   244  124  125 1    
   245  124  244 1    
   246  124  245 1    
   247  125  126 1    
   248  126  246 1    
   249  126  247 1    
@<TRIPOS>SUBSTRUCTURE
     1 UNK         1 GROUP             0       ****    0 ROOT    
