@<TRIPOS>MOLECULE
3R540
247   249    1
SMALL
USER_CHARGES


@<TRIPOS>ATOM
      1 CA         -1.4670   -9.7856  -47.4563 C.3       0 UNK        -0.1800 
      2 C          -0.5228  -10.7181  -48.2025 C.2       0 UNK         0.5000 
      3 O           0.5609  -10.2966  -48.6087 O.2       0 UNK        -0.5000 
      4 N          -0.9351  -11.9766  -48.3928 N.am      1 UNK        -0.5000 
      5 CA         -0.1417  -13.0435  -49.0107 C.3       1 UNK         0.1400 
      6 C6         -1.0351  -14.1688  -49.5980 C.3       23 UNK        -0.0398 
      7 S7         -2.3489  -14.7947  -48.4900 S.3       23 UNK        -0.2404 
      8 C8         -1.6499  -16.3582  -47.8756 C.3       23 UNK        -0.0205 
      9 C9         -1.3707  -17.3666  -48.9779 C.ar      23 UNK        -0.0193 
     10 C10        -2.4150  -18.0176  -49.6393 C.ar      23 UNK        -0.1150 
     11 C11        -2.1438  -18.9581  -50.6391 C.ar      23 UNK        -0.0193 
     12 C12        -0.8149  -19.2685  -50.9492 C.ar      23 UNK        -0.1150 
     13 C13         0.2355  -18.6239  -50.2911 C.ar      23 UNK        -0.0193 
     14 C14        -0.0513  -17.6645  -49.3193 C.ar      23 UNK        -0.1150 
     15 C15         1.6834  -18.9424  -50.6324 C.3       23 UNK        -0.0205 
     16 S16         2.2949  -20.4629  -49.8346 S.3       23 UNK        -0.2404 
     17 C17         1.9997  -20.1715  -48.0508 C.3       23 UNK        -0.0398 
     18 CA          1.2447  -21.3426  -47.3784 C.3       11 UNK         0.1400 
     19 N           1.2834  -21.2620  -45.9157 N.am      11 UNK        -0.5000 
     20 C           1.0634  -22.3142  -45.1154 C.2       10 UNK         0.5000 
     21 O           0.8107  -23.4467  -45.5284 O.2       10 UNK        -0.5000 
     22 CA          1.0926  -22.0458  -43.6014 C.3       10 UNK         0.1400 
     23 CB          2.5303  -21.8248  -43.1093 C.3       10 UNK        -0.1800 
     24 N           0.2476  -20.9206  -43.1918 N.am      10 UNK        -0.5000 
     25 C          -1.0840  -20.8824  -43.3464 C.2       9 UNK         0.5000 
     26 O          -1.7265  -21.7450  -43.9415 O.2       9 UNK        -0.5000 
     27 CA         -1.8336  -19.6930  -42.7301 C.3       9 UNK         0.1400 
     28 CB         -2.2438  -20.0092  -41.2842 C.3       9 UNK        -0.1800 
     29 N          -1.0544  -18.4591  -42.7475 N.am      9 UNK        -0.5000 
     30 C          -0.9280  -17.6597  -43.8164 C.2       8 UNK         0.5000 
     31 O          -1.3618  -17.9586  -44.9287 O.2       8 UNK        -0.5000 
     32 CA         -0.1875  -16.3175  -43.6234 C.3       8 UNK         0.1400 
     33 CB         -0.9406  -15.1225  -44.2434 C.3       8 UNK        -0.1800 
     34 N           0.1800  -16.0398  -42.2288 N.am      8 UNK        -0.5000 
     35 C          -0.6348  -15.7562  -41.1992 C.2       7 UNK         0.5000 
     36 O          -1.8527  -15.6120  -41.3103 O.2       7 UNK        -0.5000 
     37 CA          0.0187  -15.6414  -39.8045 C.3       7 UNK         0.1400 
     38 CB         -0.9316  -16.0835  -38.6720 C.3       7 UNK        -0.1800 
     39 N           1.3076  -16.3345  -39.6876 N.am      7 UNK        -0.5000 
     40 C           1.5560  -17.6450  -39.8452 C.2       6 UNK         0.5000 
     41 O           0.6934  -18.4645  -40.1666 O.2       6 UNK        -0.5000 
     42 CA          3.0199  -18.0961  -39.6588 C.3       6 UNK         0.1400 
     43 CB          3.3495  -19.3444  -40.4953 C.3       6 UNK        -0.1800 
     44 N           3.9340  -17.0216  -40.0433 N.am      6 UNK        -0.5000 
     45 C           4.6764  -16.2773  -39.2131 C.2       5 UNK         0.5000 
     46 O           4.7497  -16.4725  -37.9998 O.2       5 UNK        -0.5000 
     47 CA          5.4430  -15.0906  -39.8373 C.3       5 UNK         0.1400 
     48 CB          6.9082  -15.4746  -40.0928 C.3       5 UNK        -0.1800 
     49 N           4.8543  -14.6064  -41.0904 N.am      5 UNK        -0.5000 
     50 C           3.6475  -14.0332  -41.2075 C.2       4 UNK         0.5000 
     51 O           2.9209  -13.7759  -40.2478 O.2       4 UNK        -0.5000 
     52 CA          3.1363  -13.7629  -42.6378 C.3       4 UNK         0.1400 
     53 CB          3.4274  -12.3129  -43.0501 C.3       4 UNK        -0.1800 
     54 N           3.6789  -14.6688  -43.6577 N.am      4 UNK        -0.5000 
     55 C           3.5601  -16.0050  -43.6660 C.2       3 UNK         0.5000 
     56 O           3.0025  -16.6377  -42.7676 O.2       3 UNK        -0.5000 
     57 CA          4.1866  -16.7447  -44.8639 C.3       3 UNK         0.1400 
     58 CB          3.6805  -18.1959  -45.0135 C.3       3 UNK        -0.1800 
     59 N           4.0703  -15.9807  -46.1131 N.am      3 UNK        -0.5000 
     60 C           2.9619  -15.7467  -46.8323 C.2       2 UNK         0.5000 
     61 O           1.8637  -16.2533  -46.5999 O.2       2 UNK        -0.5000 
     62 CA          3.1549  -14.7973  -48.0344 C.3       2 UNK         0.1400 
     63 CB          4.0109  -15.4656  -49.1235 C.3       2 UNK        -0.1800 
     64 N           1.9184  -14.3153  -48.6567 N.am      2 UNK        -0.5000 
     65 C           0.9739  -13.5649  -48.0713 C.2       1 UNK         0.5000 
     66 O           0.9898  -13.2475  -46.8786 O.2       1 UNK        -0.5000 
     67 C          -0.1989  -21.5282  -47.8959 C.2       11 UNK         0.5000 
     68 O          -0.4009  -22.2840  -48.8460 O.2       11 UNK        -0.5000 
     69 N          -1.1848  -20.9120  -47.2245 N.am      12 UNK        -0.5000 
     70 CA         -2.6063  -21.0888  -47.5277 C.3       12 UNK         0.1400 
     71 CB         -3.4491  -20.1120  -46.6965 C.3       12 UNK        -0.1800 
     72 C          -3.0798  -22.5390  -47.3245 C.2       12 UNK         0.5000 
     73 O          -3.7898  -23.0668  -48.1801 O.2       12 UNK        -0.5000 
     74 N          -2.6429  -23.1698  -46.2259 N.am      13 UNK        -0.5000 
     75 CA         -2.8896  -24.5776  -45.9198 C.3       13 UNK         0.1400 
     76 CB         -2.4643  -24.8760  -44.4744 C.3       13 UNK        -0.1800 
     77 C          -2.1860  -25.5289  -46.9031 C.2       13 UNK         0.5000 
     78 O          -2.7983  -26.5072  -47.3304 O.2       13 UNK        -0.5000 
     79 N          -0.9351  -25.2133  -47.2716 N.am      14 UNK        -0.5000 
     80 CA         -0.1432  -25.9673  -48.2483 C.3       14 UNK         0.1400 
     81 CB          1.3036  -25.4517  -48.2511 C.3       14 UNK        -0.1800 
     82 C          -0.7414  -25.9228  -49.6677 C.2       14 UNK         0.5000 
     83 O          -0.7683  -26.9475  -50.3501 O.2       14 UNK        -0.5000 
     84 N          -1.2402  -24.7467  -50.0703 N.am      15 UNK        -0.5000 
     85 CA         -1.9558  -24.5231  -51.3282 C.3       15 UNK         0.1400 
     86 CB         -1.9825  -23.0143  -51.6094 C.3       15 UNK        -0.1800 
     87 C          -3.3915  -25.0878  -51.3268 C.2       15 UNK         0.5000 
     88 O          -3.9792  -25.2306  -52.3990 O.2       15 UNK        -0.5000 
     89 N          -3.9247  -25.3832  -50.1318 N.am      16 UNK        -0.5000 
     90 CA         -5.2927  -25.8181  -49.8370 C.3       16 UNK         0.1400 
     91 CB         -5.5818  -27.2027  -50.4536 C.3       16 UNK        -0.1800 
     92 C          -6.3363  -24.7455  -50.2126 C.2       16 UNK         0.5000 
     93 O          -7.3839  -25.0698  -50.7753 O.2       16 UNK        -0.5000 
     94 N          -6.0164  -23.4843  -49.8826 N.am      17 UNK        -0.5000 
     95 CA         -6.7601  -22.2594  -50.1821 C.3       17 UNK         0.1400 
     96 CB         -8.0668  -22.1987  -49.3603 C.3       17 UNK        -0.1800 
     97 C          -6.9557  -22.0788  -51.7011 C.2       17 UNK         0.5000 
     98 O          -5.9922  -21.7470  -52.3896 O.2       17 UNK        -0.5000 
     99 N          -8.1873  -22.2843  -52.1903 N.am      18 UNK        -0.5000 
    100 CA        -8.6306  -22.3277  -53.5927 C.3       18 UNK         0.1400 
    101 CB        -7.9064  -23.4555  -54.3546 C.3       18 UNK        -0.1800 
    102 C         -8.5572  -21.0008  -54.3783 C.2       18 UNK         0.5000 
    103 O         -9.1522  -20.9200  -55.4540 O.2       18 UNK        -0.5000 
    104 N         -7.8404  -19.9963  -53.8564 N.am      19 UNK        -0.5000 
    105 CA        -7.5848  -18.6529  -54.3947 C.3       19 UNK         0.1400 
    106 CB        -8.8892  -17.8681  -54.6309 C.3       19 UNK        -0.1800 
    107 C         -6.6868  -18.6481  -55.6462 C.2       19 UNK         0.5000 
    108 O         -5.7012  -17.9127  -55.6814 O.2       19 UNK        -0.5000 
    109 N         -7.0063  -19.4932  -56.6337 N.am      20 UNK        -0.5000 
    110 CA        -6.2247  -19.6998  -57.8548 C.3       20 UNK         0.1400 
    111 CB        -7.0339  -20.5691  -58.8286 C.3       20 UNK        -0.1800 
    112 C         -4.8476  -20.3328  -57.5783 C.2       20 UNK         0.5000 
    113 O         -3.8770  -20.0112  -58.2648 O.2       20 UNK        -0.5000 
    114 N         -4.7795  -21.1890  -56.5487 N.am      21 UNK        -0.5000 
    115 CA        -3.5527  -21.8333  -56.0757 C.3       21 UNK         0.1400 
    116 CB        -3.9253  -23.0239  -55.1802 C.3       21 UNK        -0.1800 
    117 C         -2.5986  -20.8714  -55.3380 C.2       21 UNK         0.5000 
    118 O         -1.4321  -21.2171  -55.1484 O.2       21 UNK        -0.5000 
    119 N         -3.0923  -19.6888  -54.9452 N.am      22 UNK        -0.5000 
    120 CA        -2.3008  -18.6221  -54.3138 C.3       22 UNK         0.1400 
    121 C         -1.4252  -17.8049  -55.3101 C.2       22 UNK         0.5000 
    122 N         -1.5583  -17.9792  -56.6206 N.am      22 UNK        -0.7600 
    123 O         -0.6009  -17.0002  -54.8854 O.2       22 UNK        -0.5000 
    124 C124       -3.1686  -17.6730  -53.4423 C.3       23 UNK        -0.0398 
    125 S125       -4.3400  -18.4851  -52.2943 S.3       23 UNK        -0.2404 
    126 C126       -3.2844  -19.6491  -51.3738 C.3       23 UNK        -0.0205 
    127 H127       -2.3912  -10.2885  -47.1701 H         1 UNK         0.0600 
    128 H128       -1.7248   -8.9316  -48.0828 H         1 UNK         0.0600 
    129 H129       -0.9881   -9.4137  -46.5506 H         1 UNK         0.0600 
    130 H130       -1.8222  -12.2746  -48.0122 H         1 UNK         0.3000 
    131 H131        0.3803  -12.5957  -49.8596 H         1 UNK         0.0600 
    132 H132       -1.5461  -13.7730  -50.4766 H         1 UNK         0.0800 
    133 H133       -0.4336  -14.9919  -49.9819 H         1 UNK         0.0800 
    134 H134       -0.7341  -16.1467  -47.3239 H         1 UNK         0.0800 
    135 H135       -2.3453  -16.7942  -47.1581 H         1 UNK         0.0800 
    136 H136       -3.4390  -17.7850  -49.3829 H         1 UNK         0.1150 
    137 H137       -0.5927  -20.0128  -51.7007 H         1 UNK         0.1150 
    138 H138        0.7578  -17.1591  -48.8118 H         1 UNK         0.1150 
    139 H139        1.7833  -19.0500  -51.7134 H         1 UNK         0.0800 
    140 H140        2.3314  -18.1129  -50.3530 H         1 UNK         0.0800 
    141 H141        2.9808  -20.0618  -47.5880 H         1 UNK         0.0800 
    142 H142        1.4884  -19.2280  -47.8716 H         1 UNK         0.0800 
    143 H143        1.7864  -22.2510  -47.6512 H         1 UNK         0.0600 
    144 H144        1.4561  -20.3580  -45.5027 H         1 UNK         0.3000 
    145 H145        0.7064  -22.9409  -43.1090 H         1 UNK         0.0600 
    146 H146        2.5707  -21.7980  -42.0209 H         1 UNK         0.0600 
    147 H147        3.1845  -22.6351  -43.4343 H         1 UNK         0.0600 
    148 H148        2.9501  -20.8927  -43.4865 H         1 UNK         0.0600 
    149 H149        0.6913  -20.1700  -42.6829 H         1 UNK         0.3000 
    150 H150       -2.7460  -19.5375  -43.3096 H         1 UNK         0.0600 
    151 H151       -2.8736  -20.8989  -41.2434 H         1 UNK         0.0600 
    152 H152       -2.8117  -19.1877  -40.8469 H         1 UNK         0.0600 
    153 H153       -1.3765  -20.1919  -40.6487 H         1 UNK         0.0600 
    154 H154       -0.6276  -18.1798  -41.8720 H         1 UNK         0.3000 
    155 H155        0.7477  -16.4227  -44.1702 H         1 UNK         0.0600 
    156 H156       -0.4104  -14.1869  -44.0654 H         1 UNK         0.0600 
    157 H157       -1.9508  -15.0220  -43.8470 H         1 UNK         0.0600 
    158 H158       -1.0298  -15.2328  -45.3213 H         1 UNK         0.0600 
    159 H159        1.1637  -16.1846  -42.0274 H         1 UNK         0.3000 
    160 H160        0.2319  -14.5812  -39.6612 H         1 UNK         0.0600 
    161 H161       -1.2490  -17.1199  -38.7918 H         1 UNK         0.0600 
    162 H162       -1.8310  -15.4671  -38.6500 H         1 UNK         0.0600 
    163 H163       -0.4537  -15.9894  -37.6969 H         1 UNK         0.0600 
    164 H164        2.0937  -15.7298  -39.4848 H         1 UNK         0.3000 
    165 H165        3.1453  -18.3487  -38.6044 H         1 UNK         0.0600 
    166 H166        3.1741  -19.1721  -41.5577 H         1 UNK         0.0600 
    167 H167        4.3917  -19.6385  -40.3712 H         1 UNK         0.0600 
    168 H168        2.7358  -20.1923  -40.1895 H         1 UNK         0.0600 
    169 H169        3.8932  -16.7652  -41.0247 H         1 UNK         0.3000 
    170 H170        5.4226  -14.2708  -39.1162 H         1 UNK         0.0600 
    171 H171        7.3896  -15.8128  -39.1741 H         1 UNK         0.0600 
    172 H172        6.9914  -16.2808  -40.8229 H         1 UNK         0.0600 
    173 H173        7.4807  -14.6240  -40.4633 H         1 UNK         0.0600 
    174 H174        5.3835  -14.7764  -41.9327 H         1 UNK         0.3000 
    175 H175        2.0532  -13.8979  -42.6247 H         1 UNK         0.0600 
    176 H176        4.4989  -12.1214  -43.1193 H         1 UNK         0.0600 
    177 H177        2.9801  -12.0811  -44.0171 H         1 UNK         0.0600 
    178 H178        3.0137  -11.6095  -42.3261 H         1 UNK         0.0600 
    179 H179        4.1484  -14.2298  -44.4355 H         1 UNK         0.3000 
    180 H180        5.2543  -16.8015  -44.6483 H         1 UNK         0.0600 
    181 H181        2.5962  -18.2455  -45.1132 H         1 UNK         0.0600 
    182 H182        3.9521  -18.7878  -44.1392 H         1 UNK         0.0600 
    183 H183        4.1250  -18.6801  -45.8824 H         1 UNK         0.0600 
    184 H184        4.9281  -15.5436  -46.4210 H         1 UNK         0.3000 
    185 H185        3.6898  -13.9183  -47.6691 H         1 UNK         0.0600 
    186 H186        4.2038  -14.7820  -49.9506 H         1 UNK         0.0600 
    187 H187        4.9815  -15.7778  -48.7366 H         1 UNK         0.0600 
    188 H188        3.5222  -16.3508  -49.5276 H         1 UNK         0.0600 
    189 H189        1.8199  -14.5306  -49.6373 H         1 UNK         0.3000 
    190 H190       -0.9571  -20.3197  -46.4393 H         1 UNK         0.3000 
    191 H191       -2.7495  -20.8464  -48.5812 H         1 UNK         0.0600 
    192 H192       -3.1569  -19.0799  -46.8862 H         1 UNK         0.0600 
    193 H193       -4.5071  -20.2013  -46.9455 H         1 UNK         0.0600 
    194 H194       -3.3460  -20.2963  -45.6275 H         1 UNK         0.0600 
    195 H195       -2.1122  -22.6450  -45.5346 H         1 UNK         0.3000 
    196 H196       -3.9645  -24.7536  -45.9993 H         1 UNK         0.0600 
    197 H197       -2.6440  -25.9215  -44.2209 H         1 UNK         0.0600 
    198 H198       -3.0271  -24.2681  -43.7659 H         1 UNK         0.0600 
    199 H199       -1.4039  -24.6757  -44.3168 H         1 UNK         0.0600 
    200 H200       -0.4844  -24.4148  -46.8375 H         1 UNK         0.3000 
    201 H201       -0.1286  -27.0109  -47.9272 H         1 UNK         0.0600 
    202 H202        1.7490  -25.5165  -47.2582 H         1 UNK         0.0600 
    203 H203        1.3602  -24.4137  -48.5779 H         1 UNK         0.0600 
    204 H204        1.9253  -26.0410  -48.9262 H         1 UNK         0.0600 
    205 H205       -1.1059  -23.9296  -49.4787 H         1 UNK         0.3000 
    206 H206       -1.4072  -25.0139  -52.1346 H         1 UNK         0.0600 
    207 H207       -0.9741  -22.6071  -51.6860 H         1 UNK         0.0600 
    208 H208       -2.4940  -22.7961  -52.5470 H         1 UNK         0.0600 
    209 H209       -2.5018  -22.4751  -50.8162 H         1 UNK         0.0600 
    210 H210       -3.3500  -25.2046  -49.3192 H         1 UNK         0.3000 
    211 H211       -5.3464  -25.9257  -48.7527 H         1 UNK         0.0600 
    212 H212       -5.6094  -27.1664  -51.5429 H         1 UNK         0.0600 
    213 H213       -6.5458  -27.5850  -50.1162 H         1 UNK         0.0600 
    214 H214       -4.8241  -27.9293  -50.1603 H         1 UNK         0.0600 
    215 H215       -5.1318  -23.3423  -49.3978 H         1 UNK         0.3000 
    216 H216       -6.1296  -21.4311  -49.8554 H         1 UNK         0.0600 
    217 H217       -7.8512  -22.2245  -48.2921 H         1 UNK         0.0600 
    218 H218       -8.7368  -23.0309  -49.5779 H         1 UNK         0.0600 
    219 H219       -8.6098  -21.2728  -49.5541 H         1 UNK         0.0600 
    220 H220       -8.9006  -22.5330  -51.5192 H         1 UNK         0.3000 
    221 H221       -9.6889  -22.5894  -53.5543 H         1 UNK         0.0600 
    222 H222       -6.8412  -23.2539  -54.4623 H         1 UNK         0.0600 
    223 H223       -8.0139  -24.4101  -53.8392 H         1 UNK         0.0600 
    224 H224       -8.3171  -23.5798  -55.3573 H         1 UNK         0.0600 
    225 H225       -7.3067  -20.2275  -53.0272 H         1 UNK         0.3000 
    226 H226       -7.0340  -18.1270  -53.6139 H         1 UNK         0.0600 
    227 H227       -8.6731  -16.8375  -54.9152 H         1 UNK         0.0600 
    228 H228       -9.4940  -18.3023  -55.4271 H         1 UNK         0.0600 
    229 H229       -9.4975  -17.8350  -53.7271 H         1 UNK         0.0600 
    230 H230       -7.8367  -20.0659  -56.5058 H         1 UNK         0.3000 
    231 H231       -6.0565  -18.7260  -58.3192 H         1 UNK         0.0600 
    232 H232       -6.4854  -20.7297  -59.7577 H         1 UNK         0.0600 
    233 H233       -7.9798  -20.0934  -59.0881 H         1 UNK         0.0600 
    234 H234       -7.2569  -21.5488  -58.4038 H         1 UNK         0.0600 
    235 H235       -5.6218  -21.3808  -56.0274 H         1 UNK         0.3000 
    236 H236       -3.0155  -22.2200  -56.9442 H         1 UNK         0.0600 
    237 H237       -4.4287  -22.7003  -54.2696 H         1 UNK         0.0600 
    238 H238       -3.0366  -23.5799  -54.8793 H         1 UNK         0.0600 
    239 H239       -4.5817  -23.7228  -55.6987 H         1 UNK         0.0600 
    240 H240       -4.0558  -19.4605  -55.1472 H         1 UNK         0.3000 
    241 H241       -1.5856  -19.1042  -53.6485 H         1 UNK         0.0600 
    242 H242       -0.9816  -17.4458  -57.2521 H         1 UNK         0.3800 
    243 H243       -2.2330  -18.6332  -56.9899 H         1 UNK         0.3800 
    244 H244       -3.7537  -17.0100  -54.0812 H         1 UNK         0.0800 
    245 H245       -2.5251  -17.0201  -52.8497 H         1 UNK         0.0800 
    246 H246       -2.9071  -20.3980  -52.0692 H         1 UNK         0.0800 
    247 H247       -3.9023  -20.1868  -50.6542 H         1 UNK         0.0800 
@<TRIPOS>BOND
     1    1    2 1    
     2    1  127 1    
     3    1  128 1    
     4    1  129 1    
     5    2    3 2    
     6    2    4 am   BACKBONE|DICT|INTERRES
     7    4    5 1    
     8    4  130 1    
     9    5    6 1    
    10    5   65 1    
    11    5  131 1    
    12    6    7 1    
    13    6  132 1    
    14    6  133 1    
    15    7    8 1    
    16    8    9 1    
    17    8  134 1    
    18    8  135 1    
    19    9   10 ar   
    20    9   14 ar   
    21   10   11 ar   
    22   10  136 1    
    23   11   12 ar   
    24   11  126 1    
    25   12   13 ar   
    26   12  137 1    
    27   13   14 ar   
    28   13   15 1    
    29   14  138 1    
    30   15   16 1    
    31   15  139 1    
    32   15  140 1    
    33   16   17 1    
    34   17   18 1    
    35   17  141 1    
    36   17  142 1    
    37   18   19 1    
    38   18   67 1    
    39   18  143 1    
    40   19   20 am   BACKBONE|DICT|INTERRES
    41   19  144 1    
    42   20   21 2    
    43   20   22 1    
    44   22   23 1    
    45   22   24 1    
    46   22  145 1    
    47   23  146 1    
    48   23  147 1    
    49   23  148 1    
    50   24   25 am   BACKBONE|DICT|INTERRES
    51   24  149 1    
    52   25   26 2    
    53   25   27 1    
    54   27   28 1    
    55   27   29 1    
    56   27  150 1    
    57   28  151 1    
    58   28  152 1    
    59   28  153 1    
    60   29   30 am   BACKBONE|DICT|INTERRES
    61   29  154 1    
    62   30   31 2    
    63   30   32 1    
    64   32   33 1    
    65   32   34 1    
    66   32  155 1    
    67   33  156 1    
    68   33  157 1    
    69   33  158 1    
    70   34   35 am   BACKBONE|DICT|INTERRES
    71   34  159 1    
    72   35   36 2    
    73   35   37 1    
    74   37   38 1    
    75   37   39 1    
    76   37  160 1    
    77   38  161 1    
    78   38  162 1    
    79   38  163 1    
    80   39   40 am   BACKBONE|DICT|INTERRES
    81   39  164 1    
    82   40   41 2    
    83   40   42 1    
    84   42   43 1    
    85   42   44 1    
    86   42  165 1    
    87   43  166 1    
    88   43  167 1    
    89   43  168 1    
    90   44   45 am   BACKBONE|DICT|INTERRES
    91   44  169 1    
    92   45   46 2    
    93   45   47 1    
    94   47   48 1    
    95   47   49 1    
    96   47  170 1    
    97   48  171 1    
    98   48  172 1    
    99   48  173 1    
   100   49   50 am   BACKBONE|DICT|INTERRES
   101   49  174 1    
   102   50   51 2    
   103   50   52 1    
   104   52   53 1    
   105   52   54 1    
   106   52  175 1    
   107   53  176 1    
   108   53  177 1    
   109   53  178 1    
   110   54   55 am   BACKBONE|DICT|INTERRES
   111   54  179 1    
   112   55   56 2    
   113   55   57 1    
   114   57   58 1    
   115   57   59 1    
   116   57  180 1    
   117   58  181 1    
   118   58  182 1    
   119   58  183 1    
   120   59   60 am   BACKBONE|DICT|INTERRES
   121   59  184 1    
   122   60   61 2    
   123   60   62 1    
   124   62   63 1    
   125   62   64 1    
   126   62  185 1    
   127   63  186 1    
   128   63  187 1    
   129   63  188 1    
   130   64   65 am   BACKBONE|DICT|INTERRES
   131   64  189 1    
   132   65   66 2    
   133   67   68 2    
   134   67   69 am   BACKBONE|DICT|INTERRES
   135   69   70 1    
   136   69  190 1    
   137   70   71 1    
   138   70   72 1    
   139   70  191 1    
   140   71  192 1    
   141   71  193 1    
   142   71  194 1    
   143   72   73 2    
   144   72   74 am   BACKBONE|DICT|INTERRES
   145   74   75 1    
   146   74  195 1    
   147   75   76 1    
   148   75   77 1    
   149   75  196 1    
   150   76  197 1    
   151   76  198 1    
   152   76  199 1    
   153   77   78 2    
   154   77   79 am   BACKBONE|DICT|INTERRES
   155   79   80 1    
   156   79  200 1    
   157   80   81 1    
   158   80   82 1    
   159   80  201 1    
   160   81  202 1    
   161   81  203 1    
   162   81  204 1    
   163   82   83 2    
   164   82   84 am   BACKBONE|DICT|INTERRES
   165   84   85 1    
   166   84  205 1    
   167   85   86 1    
   168   85   87 1    
   169   85  206 1    
   170   86  207 1    
   171   86  208 1    
   172   86  209 1    
   173   87   88 2    
   174   87   89 am   BACKBONE|DICT|INTERRES
   175   89   90 1    
   176   89  210 1    
   177   90   91 1    
   178   90   92 1    
   179   90  211 1    
   180   91  212 1    
   181   91  213 1    
   182   91  214 1    
   183   92   93 2    
   184   92   94 am   BACKBONE|DICT|INTERRES
   185   94   95 1    
   186   94  215 1    
   187   95   96 1    
   188   95   97 1    
   189   95  216 1    
   190   96  217 1    
   191   96  218 1    
   192   96  219 1    
   193   97   98 2    
   194   97   99 am   BACKBONE|DICT|INTERRES
   195   99  100 1    
   196   99  220 1    
   197  100  101 1    
   198  100  102 1    
   199  100  221 1    
   200  101  222 1    
   201  101  223 1    
   202  101  224 1    
   203  102  103 2    
   204  102  104 am   BACKBONE|DICT|INTERRES
   205  104  105 1    
   206  104  225 1    
   207  105  106 1    
   208  105  107 1    
   209  105  226 1    
   210  106  227 1    
   211  106  228 1    
   212  106  229 1    
   213  107  108 2    
   214  107  109 am   BACKBONE|DICT|INTERRES
   215  109  110 1    
   216  109  230 1    
   217  110  111 1    
   218  110  112 1    
   219  110  231 1    
   220  111  232 1    
   221  111  233 1    
   222  111  234 1    
   223  112  113 2    
   224  112  114 am   BACKBONE|DICT|INTERRES
   225  114  115 1    
   226  114  235 1    
   227  115  116 1    
   228  115  117 1    
   229  115  236 1    
   230  116  237 1    
   231  116  238 1    
   232  116  239 1    
   233  117  118 2    
   234  117  119 am   BACKBONE|DICT|INTERRES
   235  119  120 1    
   236  119  240 1    
   237  120  121 1    
   238  120  124 1    
   239  120  241 1    
   240  121  122 am   BACKBONE|DICT|INTERRES
   241  121  123 2    
   242  122  242 1    
   243  122  243 1    
   244  124  125 1    
   245  124  244 1    
   246  124  245 1    
   247  125  126 1    
   248  126  246 1    
   249  126  247 1    
@<TRIPOS>SUBSTRUCTURE
     1 UNK         1 GROUP             0       ****    0 ROOT    
