@<TRIPOS>MOLECULE
3R540
247   249    1
SMALL
USER_CHARGES


@<TRIPOS>ATOM
      1 CA          2.9390  -12.0890  -45.6767 C.3       0 UNK        -0.1800 
      2 C           2.6605  -12.5074  -47.1140 C.2       0 UNK         0.5000 
      3 O           3.5056  -12.3126  -47.9874 O.2       0 UNK        -0.5000 
      4 N           1.4834  -13.0901  -47.3559 N.am      1 UNK        -0.5000 
      5 CA          1.0673  -13.6708  -48.6298 C.3       1 UNK         0.1400 
      6 C6          0.6178  -12.5973  -49.6603 C.3       23 UNK        -0.0398 
      7 S7          0.2077  -13.1894  -51.3449 S.3       23 UNK        -0.2404 
      8 C8          1.6903  -14.1150  -51.8714 C.3       23 UNK        -0.0205 
      9 C9          1.5952  -15.5992  -51.5368 C.ar      23 UNK        -0.0193 
     10 C10         0.6293  -16.3985  -52.1563 C.ar      23 UNK        -0.1150 
     11 C11         0.5359  -17.7600  -51.8564 C.ar      23 UNK        -0.0193 
     12 C12         1.4003  -18.3152  -50.9103 C.ar      23 UNK        -0.1150 
     13 C13         2.3854  -17.5359  -50.2941 C.ar      23 UNK        -0.0193 
     14 C14         2.4856  -16.1834  -50.6305 C.ar      23 UNK        -0.1150 
     15 C15         3.3908  -18.1249  -49.3061 C.3       23 UNK        -0.0205 
     16 S16         2.8330  -19.6205  -48.4221 S.3       23 UNK        -0.2404 
     17 C17         1.5853  -18.9508  -47.2689 C.3       23 UNK        -0.0398 
     18 CA          0.1850  -19.5993  -47.4147 C.3       11 UNK         0.1400 
     19 N           0.2574  -21.0580  -47.4782 N.am      11 UNK        -0.5000 
     20 C          -0.7463  -21.8839  -47.7916 C.2       10 UNK         0.5000 
     21 O          -1.8885  -21.5149  -48.0653 O.2       10 UNK        -0.5000 
     22 CA         -0.4119  -23.3848  -47.7605 C.3       10 UNK         0.1400 
     23 CB          0.1921  -23.8241  -49.1034 C.3       10 UNK        -0.1800 
     24 N           0.4988  -23.7406  -46.6653 N.am      10 UNK        -0.5000 
     25 C           0.1724  -23.6481  -45.3679 C.2       9 UNK         0.5000 
     26 O          -0.9142  -23.2330  -44.9666 O.2       9 UNK        -0.5000 
     27 CA          1.2401  -24.0679  -44.3411 C.3       9 UNK         0.1400 
     28 CB          1.4982  -25.5819  -44.4059 C.3       9 UNK        -0.1800 
     29 N           2.5186  -23.3514  -44.4176 N.am      9 UNK        -0.5000 
     30 C           2.6810  -22.0216  -44.4563 C.2       8 UNK         0.5000 
     31 O           1.7752  -21.2176  -44.6738 O.2       8 UNK        -0.5000 
     32 CA          4.1039  -21.4931  -44.1976 C.3       8 UNK         0.1400 
     33 CB          4.8265  -21.1990  -45.5190 C.3       8 UNK        -0.1800 
     34 N           4.0903  -20.2751  -43.3841 N.am      8 UNK        -0.5000 
     35 C           3.6461  -20.1778  -42.1247 C.2       7 UNK         0.5000 
     36 O           3.2544  -21.1456  -41.4708 O.2       7 UNK        -0.5000 
     37 CA          3.6325  -18.7815  -41.4633 C.3       7 UNK         0.1400 
     38 CB          4.9444  -18.5254  -40.6981 C.3       7 UNK        -0.1800 
     39 N           3.3062  -17.6454  -42.3391 N.am      7 UNK        -0.5000 
     40 C           3.9939  -17.1479  -43.3789 C.2       6 UNK         0.5000 
     41 O           5.0292  -17.6504  -43.8167 O.2       6 UNK        -0.5000 
     42 CA          3.4356  -15.8846  -44.0647 C.3       6 UNK         0.1400 
     43 CB          2.7920  -16.2481  -45.4057 C.3       6 UNK        -0.1800 
     44 N           2.4603  -15.1540  -43.2527 N.am      6 UNK        -0.5000 
     45 C           2.7847  -14.3812  -42.2052 C.2       5 UNK         0.5000 
     46 O           3.9462  -14.1546  -41.8645 O.2       5 UNK        -0.5000 
     47 CA          1.6314  -13.7657  -41.3843 C.3       5 UNK         0.1400 
     48 CB          1.4139  -12.2975  -41.7820 C.3       5 UNK        -0.1800 
     49 N           0.3546  -14.4748  -41.4960 N.am      5 UNK        -0.5000 
     50 C           0.1309  -15.7514  -41.1547 C.2       4 UNK         0.5000 
     51 O           0.9927  -16.4968  -40.6879 O.2       4 UNK        -0.5000 
     52 CA         -1.2828  -16.3048  -41.4209 C.3       4 UNK         0.1400 
     53 CB         -2.1378  -16.2173  -40.1483 C.3       4 UNK        -0.1800 
     54 N          -2.0085  -15.6659  -42.5279 N.am      4 UNK        -0.5000 
     55 C          -1.5820  -15.5516  -43.7937 C.2       3 UNK         0.5000 
     56 O          -0.4598  -15.8964  -44.1743 O.2       3 UNK        -0.5000 
     57 CA         -2.5652  -14.9113  -44.7835 C.3       3 UNK         0.1400 
     58 CB         -2.5603  -13.3784  -44.6402 C.3       3 UNK        -0.1800 
     59 N          -2.1762  -15.2810  -46.1370 N.am      3 UNK        -0.5000 
     60 C          -2.9446  -15.2585  -47.2296 C.2       2 UNK         0.5000 
     61 O          -4.1280  -14.9156  -47.2208 O.2       2 UNK        -0.5000 
     62 CA         -2.2571  -15.6573  -48.5567 C.3       2 UNK         0.1400 
     63 CB         -3.2242  -15.6877  -49.7537 C.3       2 UNK        -0.1800 
     64 N          -1.1506  -14.7530  -48.8739 N.am      2 UNK        -0.5000 
     65 C           0.0503  -14.7756  -48.2857 C.2       1 UNK         0.5000 
     66 O           0.3585  -15.6187  -47.4437 O.2       1 UNK        -0.5000 
     67 C          -0.7515  -19.1610  -46.2710 C.2       11 UNK         0.5000 
     68 O          -1.7108  -18.4263  -46.5066 O.2       11 UNK        -0.5000 
     69 N          -0.4938  -19.6925  -45.0671 N.am      12 UNK        -0.5000 
     70 CA         -1.2598  -19.4613  -43.8437 C.3       12 UNK         0.1400 
     71 CB         -0.5152  -20.0792  -42.6511 C.3       12 UNK        -0.1800 
     72 C          -2.7080  -19.9730  -43.9148 C.2       12 UNK         0.5000 
     73 O          -3.5927  -19.3691  -43.3089 O.2       12 UNK        -0.5000 
     74 N          -2.9342  -21.0348  -44.6990 N.am      13 UNK        -0.5000 
     75 CA         -4.2505  -21.5725  -45.0468 C.3       13 UNK         0.1400 
     76 CB         -4.0885  -23.0375  -45.4855 C.3       13 UNK        -0.1800 
     77 C          -4.9969  -20.7452  -46.1181 C.2       13 UNK         0.5000 
     78 O          -6.0155  -21.2137  -46.6259 O.2       13 UNK        -0.5000 
     79 N          -4.4894  -19.5505  -46.4573 N.am      14 UNK        -0.5000 
     80 CA         -5.0308  -18.5938  -47.4234 C.3       14 UNK         0.1400 
     81 CB         -6.4025  -18.0540  -46.9686 C.3       14 UNK        -0.1800 
     82 C          -5.0421  -19.1746  -48.8460 C.2       14 UNK         0.5000 
     83 O          -6.0951  -19.2473  -49.4811 O.2       14 UNK        -0.5000 
     84 N          -3.8577  -19.6175  -49.2911 N.am      15 UNK        -0.5000 
     85 CA         -3.6008  -20.3125  -50.5564 C.3       15 UNK         0.1400 
     86 CB         -3.8937  -19.3907  -51.7590 C.3       15 UNK        -0.1800 
     87 C          -4.3581  -21.6529  -50.6210 C.2       15 UNK         0.5000 
     88 O          -5.0197  -21.9418  -51.6158 O.2       15 UNK        -0.5000 
     89 N          -4.2896  -22.4166  -49.5196 N.am      16 UNK        -0.5000 
     90 CA         -4.9905  -23.6835  -49.2803 C.3       16 UNK         0.1400 
     91 CB         -4.3390  -24.8103  -50.1057 C.3       16 UNK        -0.1800 
     92 C          -6.5159  -23.5706  -49.5073 C.2       16 UNK         0.5000 
     93 O          -7.0894  -24.3465  -50.2738 O.2       16 UNK        -0.5000 
     94 N          -7.1283  -22.5795  -48.8437 N.am      17 UNK        -0.5000 
     95 CA         -8.5319  -22.1731  -48.9414 C.3       17 UNK         0.1400 
     96 CB         -9.4686  -23.2806  -48.4137 C.3       17 UNK        -0.1800 
     97 C          -8.9048  -21.6709  -50.3524 C.2       17 UNK         0.5000 
     98 O          -9.8621  -22.1614  -50.9547 O.2       17 UNK        -0.5000 
     99 N          -8.1402  -20.6811  -50.8363 N.am      18 UNK        -0.5000 
    100 CA        -8.3064  -19.9627  -52.1041 C.3       18 UNK         0.1400 
    101 CB        -9.5952  -19.1139  -52.0818 C.3       18 UNK        -0.1800 
    102 C         -8.1924  -20.8623  -53.3536 C.2       18 UNK         0.5000 
    103 O         -8.9430  -20.6880  -54.3166 O.2       18 UNK        -0.5000 
    104 N         -7.2391  -21.7978  -53.3212 N.am      19 UNK        -0.5000 
    105 CA        -6.8236  -22.6237  -54.4493 C.3       19 UNK         0.1400 
    106 CB        -6.4794  -24.0273  -53.9169 C.3       19 UNK        -0.1800 
    107 C         -5.6157  -21.9767  -55.1583 C.2       19 UNK         0.5000 
    108 O         -5.1833  -20.8795  -54.7964 O.2       19 UNK        -0.5000 
    109 N         -5.0803  -22.6751  -56.1666 N.am      20 UNK        -0.5000 
    110 CA        -3.8720  -22.2769  -56.8953 C.3       20 UNK         0.1400 
    111 CB        -3.8951  -22.9450  -58.2798 C.3       20 UNK        -0.1800 
    112 C         -2.5658  -22.6267  -56.1487 C.2       20 UNK         0.5000 
    113 O         -1.4974  -22.1768  -56.5649 O.2       20 UNK        -0.5000 
    114 N         -2.6594  -23.4495  -55.0949 N.am      21 UNK        -0.5000 
    115 CA        -1.5321  -23.9247  -54.2976 C.3       21 UNK         0.1400 
    116 CB        -1.9901  -25.1163  -53.4425 C.3       21 UNK        -0.1800 
    117 C         -0.9412  -22.8137  -53.4113 C.2       21 UNK         0.5000 
    118 O         -1.6594  -22.2351  -52.5950 O.2       21 UNK        -0.5000 
    119 N          0.3640  -22.5751  -53.5665 N.am      22 UNK        -0.5000 
    120 CA         1.1608  -21.6220  -52.7763 C.3       22 UNK         0.1400 
    121 C          2.4112  -22.2865  -52.1265 C.2       22 UNK         0.5000 
    122 N          2.5242  -23.6097  -52.0971 N.am      22 UNK        -0.7600 
    123 O          3.2935  -21.5972  -51.6250 O.2       22 UNK        -0.5000 
    124 C124        1.5350  -20.3570  -53.5995 C.3       23 UNK        -0.0398 
    125 S125        0.1043  -19.3433  -54.1190 S.3       23 UNK        -0.2404 
    126 C126       -0.4980  -18.6347  -52.5488 C.3       23 UNK        -0.0205 
    127 H127        2.1088  -12.3379  -45.0159 H         1 UNK         0.0600 
    128 H128        3.1077  -11.0136  -45.6227 H         1 UNK         0.0600 
    129 H129        3.8292  -12.5957  -45.3040 H         1 UNK         0.0600 
    130 H130        0.8520  -13.2744  -46.5883 H         1 UNK         0.3000 
    131 H131        1.9393  -14.1796  -49.0305 H         1 UNK         0.0600 
    132 H132       -0.2408  -12.0455  -49.2745 H         1 UNK         0.0800 
    133 H133        1.4085  -11.8548  -49.7742 H         1 UNK         0.0800 
    134 H134        2.5828  -13.6639  -51.4347 H         1 UNK         0.0800 
    135 H135        1.7971  -14.0112  -52.9520 H         1 UNK         0.0800 
    136 H136       -0.0467  -15.9596  -52.8767 H         1 UNK         0.1150 
    137 H137        1.3225  -19.3675  -50.6822 H         1 UNK         0.1150 
    138 H138        3.2631  -15.5831  -50.1792 H         1 UNK         0.1150 
    139 H139        4.2964  -18.3771  -49.8589 H         1 UNK         0.0800 
    140 H140        3.6783  -17.3731  -48.5694 H         1 UNK         0.0800 
    141 H141        1.5051  -17.8758  -47.4204 H         1 UNK         0.0800 
    142 H142        1.9796  -19.0881  -46.2611 H         1 UNK         0.0800 
    143 H143       -0.2504  -19.2510  -48.3538 H         1 UNK         0.0600 
    144 H144        1.1474  -21.4614  -47.2252 H         1 UNK         0.3000 
    145 H145       -1.3476  -23.9286  -47.6146 H         1 UNK         0.0600 
    146 H146        1.1485  -23.3356  -49.2948 H         1 UNK         0.0600 
    147 H147        0.3537  -24.9017  -49.1304 H         1 UNK         0.0600 
    148 H148       -0.4738  -23.5755  -49.9317 H         1 UNK         0.0600 
    149 H149        1.4163  -24.0785  -46.9163 H         1 UNK         0.3000 
    150 H150        0.8252  -23.8488  -43.3551 H         1 UNK         0.0600 
    151 H151        0.5634  -26.1419  -44.3522 H         1 UNK         0.0600 
    152 H152        2.1189  -25.9119  -43.5726 H         1 UNK         0.0600 
    153 H153        2.0002  -25.8682  -45.3308 H         1 UNK         0.0600 
    154 H154        3.3391  -23.9207  -44.2695 H         1 UNK         0.3000 
    155 H155        4.6671  -22.2537  -43.6533 H         1 UNK         0.0600 
    156 H156        4.8108  -22.0652  -46.1818 H         1 UNK         0.0600 
    157 H157        5.8709  -20.9393  -45.3460 H         1 UNK         0.0600 
    158 H158        4.3622  -20.3678  -46.0488 H         1 UNK         0.0600 
    159 H159        4.4244  -19.4222  -43.8224 H         1 UNK         0.3000 
    160 H160        2.8291  -18.8065  -40.7252 H         1 UNK         0.0600 
    161 H161        4.9057  -17.5804  -40.1560 H         1 UNK         0.0600 
    162 H162        5.8061  -18.4950  -41.3655 H         1 UNK         0.0600 
    163 H163        5.1281  -19.3127  -39.9660 H         1 UNK         0.0600 
    164 H164        2.4654  -17.1491  -42.0660 H         1 UNK         0.3000 
    165 H165        4.2836  -15.2272  -44.2682 H         1 UNK         0.0600 
    166 H166        1.8783  -16.8256  -45.2634 H         1 UNK         0.0600 
    167 H167        2.5376  -15.3522  -45.9683 H         1 UNK         0.0600 
    168 H168        3.4686  -16.8369  -46.0261 H         1 UNK         0.0600 
    169 H169        1.4817  -15.3024  -43.4757 H         1 UNK         0.3000 
    170 H170        1.9333  -13.7956  -40.3355 H         1 UNK         0.0600 
    171 H171        1.0448  -12.2085  -42.8042 H         1 UNK         0.0600 
    172 H172        0.6935  -11.8132  -41.1225 H         1 UNK         0.0600 
    173 H173        2.3433  -11.7300  -41.7170 H         1 UNK         0.0600 
    174 H174       -0.4160  -13.9513  -41.8835 H         1 UNK         0.3000 
    175 H175       -1.1657  -17.3593  -41.6682 H         1 UNK         0.0600 
    176 H176       -2.3302  -15.1821  -39.8635 H         1 UNK         0.0600 
    177 H177       -3.0988  -16.7141  -40.2836 H         1 UNK         0.0600 
    178 H178       -1.6400  -16.7023  -39.3074 H         1 UNK         0.0600 
    179 H179       -2.9358  -15.3336  -42.3047 H         1 UNK         0.3000 
    180 H180       -3.5647  -15.3018  -44.5813 H         1 UNK         0.0600 
    181 H181       -1.5742  -12.9603  -44.8464 H         1 UNK         0.0600 
    182 H182       -2.8425  -13.0751  -43.6314 H         1 UNK         0.0600 
    183 H183       -3.2695  -12.9134  -45.3252 H         1 UNK         0.0600 
    184 H184       -1.2185  -15.6170  -46.2237 H         1 UNK         0.3000 
    185 H185       -1.8610  -16.6666  -48.4339 H         1 UNK         0.0600 
    186 H186       -2.7192  -16.0335  -50.6561 H         1 UNK         0.0600 
    187 H187       -4.0584  -16.3652  -49.5711 H         1 UNK         0.0600 
    188 H188       -3.6413  -14.7014  -49.9600 H         1 UNK         0.0600 
    189 H189       -1.3365  -14.0410  -49.5662 H         1 UNK         0.3000 
    190 H190        0.3123  -20.3114  -44.9721 H         1 UNK         0.3000 
    191 H191       -1.3085  -18.3848  -43.6988 H         1 UNK         0.0600 
    192 H192       -0.3853  -21.1552  -42.7752 H         1 UNK         0.0600 
    193 H193        0.4734  -19.6348  -42.5328 H         1 UNK         0.0600 
    194 H194       -1.0589  -19.9177  -41.7196 H         1 UNK         0.0600 
    195 H195       -2.1362  -21.5097  -45.1066 H         1 UNK         0.3000 
    196 H196       -4.8751  -21.5603  -44.1515 H         1 UNK         0.0600 
    197 H197       -3.6318  -23.6343  -44.6960 H         1 UNK         0.0600 
    198 H198       -3.4608  -23.1219  -46.3723 H         1 UNK         0.0600 
    199 H199       -5.0519  -23.4950  -45.7136 H         1 UNK         0.0600 
    200 H200       -3.6060  -19.2792  -46.0422 H         1 UNK         0.3000 
    201 H201       -4.3385  -17.7540  -47.4382 H         1 UNK         0.0600 
    202 H202       -6.7460  -17.2626  -47.6358 H         1 UNK         0.0600 
    203 H203       -6.3446  -17.6301  -45.9661 H         1 UNK         0.0600 
    204 H204       -7.1684  -18.8300  -46.9624 H         1 UNK         0.0600 
    205 H205       -3.0776  -19.6059  -48.6464 H         1 UNK         0.3000 
    206 H206       -2.5374  -20.5531  -50.5694 H         1 UNK         0.0600 
    207 H207       -4.9621  -19.2257  -51.8978 H         1 UNK         0.0600 
    208 H208       -3.5123  -19.8311  -52.6813 H         1 UNK         0.0600 
    209 H209       -3.4220  -18.4169  -51.6361 H         1 UNK         0.0600 
    210 H210       -3.6863  -22.0868  -48.7735 H         1 UNK         0.3000 
    211 H211       -4.8518  -23.9250  -48.2267 H         1 UNK         0.0600 
    212 H212       -3.2651  -24.8637  -49.9258 H         1 UNK         0.0600 
    213 H213       -4.7634  -25.7805  -49.8456 H         1 UNK         0.0600 
    214 H214       -4.4940  -24.6617  -51.1739 H         1 UNK         0.0600 
    215 H215       -6.5728  -22.0149  -48.2039 H         1 UNK         0.3000 
    216 H216       -8.6403  -21.3150  -48.2761 H         1 UNK         0.0600 
    217 H217      -10.5004  -22.9297  -48.3747 H         1 UNK         0.0600 
    218 H218       -9.4509  -24.1681  -49.0466 H         1 UNK         0.0600 
    219 H219       -9.1905  -23.5826  -47.4040 H         1 UNK         0.0600 
    220 H220       -7.3681  -20.3434  -50.2639 H         1 UNK         0.3000 
    221 H221       -7.4656  -19.2702  -52.1623 H         1 UNK         0.0600 
    222 H222      -10.4904  -19.7363  -52.0705 H         1 UNK         0.0600 
    223 H223       -9.6248  -18.4664  -51.2055 H         1 UNK         0.0600 
    224 H224       -9.6553  -18.4706  -52.9604 H         1 UNK         0.0600 
    225 H225       -6.5990  -21.8169  -52.5286 H         1 UNK         0.3000 
    226 H226       -7.6374  -22.7135  -55.1715 H         1 UNK         0.0600 
    227 H227       -7.3025  -24.4370  -53.3306 H         1 UNK         0.0600 
    228 H228       -6.2853  -24.7284  -54.7288 H         1 UNK         0.0600 
    229 H229       -5.5971  -24.0101  -53.2765 H         1 UNK         0.0600 
    230 H230       -5.4927  -23.5586  -56.4301 H         1 UNK         0.3000 
    231 H231       -3.8834  -21.1948  -57.0425 H         1 UNK         0.0600 
    232 H232       -3.0312  -22.6448  -58.8743 H         1 UNK         0.0600 
    233 H233       -4.7861  -22.6612  -58.8402 H         1 UNK         0.0600 
    234 H234       -3.8779  -24.0328  -58.2025 H         1 UNK         0.0600 
    235 H235       -3.5777  -23.7349  -54.7929 H         1 UNK         0.3000 
    236 H236       -0.7608  -24.2825  -54.9832 H         1 UNK         0.0600 
    237 H237       -2.3510  -25.9352  -54.0650 H         1 UNK         0.0600 
    238 H238       -1.1688  -25.5035  -52.8382 H         1 UNK         0.0600 
    239 H239       -2.7923  -24.8333  -52.7616 H         1 UNK         0.0600 
    240 H240        0.8758  -23.0843  -54.2728 H         1 UNK         0.3000 
    241 H241        0.5747  -21.2994  -51.9157 H         1 UNK         0.0600 
    242 H242        3.3399  -24.0215  -51.6719 H         1 UNK         0.3800 
    243 H243        1.8027  -24.2050  -52.4693 H         1 UNK         0.3800 
    244 H244        2.2258  -19.7132  -53.0555 H         1 UNK         0.0800 
    245 H245        2.0730  -20.6546  -54.5006 H         1 UNK         0.0800 
    246 H246       -0.8252  -19.4357  -51.8860 H         1 UNK         0.0800 
    247 H247       -1.3857  -18.0396  -52.7644 H         1 UNK         0.0800 
@<TRIPOS>BOND
     1    1    2 1    
     2    1  127 1    
     3    1  128 1    
     4    1  129 1    
     5    2    3 2    
     6    2    4 am   BACKBONE|DICT|INTERRES
     7    4    5 1    
     8    4  130 1    
     9    5    6 1    
    10    5   65 1    
    11    5  131 1    
    12    6    7 1    
    13    6  132 1    
    14    6  133 1    
    15    7    8 1    
    16    8    9 1    
    17    8  134 1    
    18    8  135 1    
    19    9   10 ar   
    20    9   14 ar   
    21   10   11 ar   
    22   10  136 1    
    23   11   12 ar   
    24   11  126 1    
    25   12   13 ar   
    26   12  137 1    
    27   13   14 ar   
    28   13   15 1    
    29   14  138 1    
    30   15   16 1    
    31   15  139 1    
    32   15  140 1    
    33   16   17 1    
    34   17   18 1    
    35   17  141 1    
    36   17  142 1    
    37   18   19 1    
    38   18   67 1    
    39   18  143 1    
    40   19   20 am   BACKBONE|DICT|INTERRES
    41   19  144 1    
    42   20   21 2    
    43   20   22 1    
    44   22   23 1    
    45   22   24 1    
    46   22  145 1    
    47   23  146 1    
    48   23  147 1    
    49   23  148 1    
    50   24   25 am   BACKBONE|DICT|INTERRES
    51   24  149 1    
    52   25   26 2    
    53   25   27 1    
    54   27   28 1    
    55   27   29 1    
    56   27  150 1    
    57   28  151 1    
    58   28  152 1    
    59   28  153 1    
    60   29   30 am   BACKBONE|DICT|INTERRES
    61   29  154 1    
    62   30   31 2    
    63   30   32 1    
    64   32   33 1    
    65   32   34 1    
    66   32  155 1    
    67   33  156 1    
    68   33  157 1    
    69   33  158 1    
    70   34   35 am   BACKBONE|DICT|INTERRES
    71   34  159 1    
    72   35   36 2    
    73   35   37 1    
    74   37   38 1    
    75   37   39 1    
    76   37  160 1    
    77   38  161 1    
    78   38  162 1    
    79   38  163 1    
    80   39   40 am   BACKBONE|DICT|INTERRES
    81   39  164 1    
    82   40   41 2    
    83   40   42 1    
    84   42   43 1    
    85   42   44 1    
    86   42  165 1    
    87   43  166 1    
    88   43  167 1    
    89   43  168 1    
    90   44   45 am   BACKBONE|DICT|INTERRES
    91   44  169 1    
    92   45   46 2    
    93   45   47 1    
    94   47   48 1    
    95   47   49 1    
    96   47  170 1    
    97   48  171 1    
    98   48  172 1    
    99   48  173 1    
   100   49   50 am   BACKBONE|DICT|INTERRES
   101   49  174 1    
   102   50   51 2    
   103   50   52 1    
   104   52   53 1    
   105   52   54 1    
   106   52  175 1    
   107   53  176 1    
   108   53  177 1    
   109   53  178 1    
   110   54   55 am   BACKBONE|DICT|INTERRES
   111   54  179 1    
   112   55   56 2    
   113   55   57 1    
   114   57   58 1    
   115   57   59 1    
   116   57  180 1    
   117   58  181 1    
   118   58  182 1    
   119   58  183 1    
   120   59   60 am   BACKBONE|DICT|INTERRES
   121   59  184 1    
   122   60   61 2    
   123   60   62 1    
   124   62   63 1    
   125   62   64 1    
   126   62  185 1    
   127   63  186 1    
   128   63  187 1    
   129   63  188 1    
   130   64   65 am   BACKBONE|DICT|INTERRES
   131   64  189 1    
   132   65   66 2    
   133   67   68 2    
   134   67   69 am   BACKBONE|DICT|INTERRES
   135   69   70 1    
   136   69  190 1    
   137   70   71 1    
   138   70   72 1    
   139   70  191 1    
   140   71  192 1    
   141   71  193 1    
   142   71  194 1    
   143   72   73 2    
   144   72   74 am   BACKBONE|DICT|INTERRES
   145   74   75 1    
   146   74  195 1    
   147   75   76 1    
   148   75   77 1    
   149   75  196 1    
   150   76  197 1    
   151   76  198 1    
   152   76  199 1    
   153   77   78 2    
   154   77   79 am   BACKBONE|DICT|INTERRES
   155   79   80 1    
   156   79  200 1    
   157   80   81 1    
   158   80   82 1    
   159   80  201 1    
   160   81  202 1    
   161   81  203 1    
   162   81  204 1    
   163   82   83 2    
   164   82   84 am   BACKBONE|DICT|INTERRES
   165   84   85 1    
   166   84  205 1    
   167   85   86 1    
   168   85   87 1    
   169   85  206 1    
   170   86  207 1    
   171   86  208 1    
   172   86  209 1    
   173   87   88 2    
   174   87   89 am   BACKBONE|DICT|INTERRES
   175   89   90 1    
   176   89  210 1    
   177   90   91 1    
   178   90   92 1    
   179   90  211 1    
   180   91  212 1    
   181   91  213 1    
   182   91  214 1    
   183   92   93 2    
   184   92   94 am   BACKBONE|DICT|INTERRES
   185   94   95 1    
   186   94  215 1    
   187   95   96 1    
   188   95   97 1    
   189   95  216 1    
   190   96  217 1    
   191   96  218 1    
   192   96  219 1    
   193   97   98 2    
   194   97   99 am   BACKBONE|DICT|INTERRES
   195   99  100 1    
   196   99  220 1    
   197  100  101 1    
   198  100  102 1    
   199  100  221 1    
   200  101  222 1    
   201  101  223 1    
   202  101  224 1    
   203  102  103 2    
   204  102  104 am   BACKBONE|DICT|INTERRES
   205  104  105 1    
   206  104  225 1    
   207  105  106 1    
   208  105  107 1    
   209  105  226 1    
   210  106  227 1    
   211  106  228 1    
   212  106  229 1    
   213  107  108 2    
   214  107  109 am   BACKBONE|DICT|INTERRES
   215  109  110 1    
   216  109  230 1    
   217  110  111 1    
   218  110  112 1    
   219  110  231 1    
   220  111  232 1    
   221  111  233 1    
   222  111  234 1    
   223  112  113 2    
   224  112  114 am   BACKBONE|DICT|INTERRES
   225  114  115 1    
   226  114  235 1    
   227  115  116 1    
   228  115  117 1    
   229  115  236 1    
   230  116  237 1    
   231  116  238 1    
   232  116  239 1    
   233  117  118 2    
   234  117  119 am   BACKBONE|DICT|INTERRES
   235  119  120 1    
   236  119  240 1    
   237  120  121 1    
   238  120  124 1    
   239  120  241 1    
   240  121  122 am   BACKBONE|DICT|INTERRES
   241  121  123 2    
   242  122  242 1    
   243  122  243 1    
   244  124  125 1    
   245  124  244 1    
   246  124  245 1    
   247  125  126 1    
   248  126  246 1    
   249  126  247 1    
@<TRIPOS>SUBSTRUCTURE
     1 UNK         1 GROUP             0       ****    0 ROOT    
