@<TRIPOS>MOLECULE
3R540
247   249    1
SMALL
USER_CHARGES


@<TRIPOS>ATOM
      1 CA          4.2042  -13.5618  -47.9422 C.3       0 UNK        -0.1800 
      2 C           2.6899  -13.4148  -47.9576 C.2       0 UNK         0.5000 
      3 O           2.1573  -12.6455  -48.7572 O.2       0 UNK        -0.5000 
      4 N           2.0017  -14.1422  -47.0688 N.am      1 UNK        -0.5000 
      5 CA          0.5463  -14.2204  -46.8767 C.3       1 UNK         0.1400 
      6 C6         -0.2423  -14.7161  -48.1186 C.3       23 UNK        -0.0398 
      7 S7          0.0724  -16.4685  -48.5057 S.3       23 UNK        -0.2404 
      8 C8          1.2017  -16.3423  -49.9265 C.3       23 UNK        -0.0205 
      9 C9          1.3889  -17.6959  -50.5947 C.ar      23 UNK        -0.0193 
     10 C10         0.9023  -17.9266  -51.8844 C.ar      23 UNK        -0.1150 
     11 C11         1.0666  -19.1746  -52.4932 C.ar      23 UNK        -0.0193 
     12 C12         1.6978  -20.2055  -51.7907 C.ar      23 UNK        -0.1150 
     13 C13         2.1881  -19.9899  -50.4983 C.ar      23 UNK        -0.0193 
     14 C14         2.0502  -18.7236  -49.9186 C.ar      23 UNK        -0.1150 
     15 C15         2.8637  -21.1327  -49.7433 C.3       23 UNK        -0.0205 
     16 S16         2.4109  -21.2159  -47.9754 S.3       23 UNK        -0.2404 
     17 C17         0.5881  -21.2754  -48.0649 C.3       23 UNK        -0.0398 
     18 CA          0.0048  -22.4281  -47.2244 C.3       11 UNK         0.1400 
     19 N           0.2132  -22.2491  -45.7877 N.am      11 UNK        -0.5000 
     20 C           0.0994  -23.2245  -44.8786 C.2       10 UNK         0.5000 
     21 O          -0.2702  -24.3676  -45.1547 O.2       10 UNK        -0.5000 
     22 CA          0.4301  -22.8523  -43.4229 C.3       10 UNK         0.1400 
     23 CB          1.9388  -22.6233  -43.2445 C.3       10 UNK        -0.1800 
     24 N          -0.3009  -21.6674  -42.9757 N.am      10 UNK        -0.5000 
     25 C          -1.6230  -21.6341  -42.7587 C.2       9 UNK         0.5000 
     26 O          -2.3591  -22.6151  -42.8689 O.2       9 UNK        -0.5000 
     27 CA         -2.2327  -20.2700  -42.3804 C.3       9 UNK         0.1400 
     28 CB         -2.0422  -19.9812  -40.8838 C.3       9 UNK        -0.1800 
     29 N          -1.6931  -19.1578  -43.1642 N.am      9 UNK        -0.5000 
     30 C          -1.7967  -19.0480  -44.4963 C.2       8 UNK         0.5000 
     31 O          -2.3701  -19.8681  -45.2091 O.2       8 UNK        -0.5000 
     32 CA         -1.0980  -17.8452  -45.1509 C.3       8 UNK         0.1400 
     33 CB         -1.9482  -16.5762  -44.9790 C.3       8 UNK        -0.1800 
     34 N           0.2641  -17.6434  -44.6444 N.am      8 UNK        -0.5000 
     35 C           1.2364  -18.5650  -44.7452 C.2       7 UNK         0.5000 
     36 O           1.0998  -19.6408  -45.3201 O.2       7 UNK        -0.5000 
     37 CA          2.5576  -18.2857  -44.0161 C.3       7 UNK         0.1400 
     38 CB          3.4816  -17.3951  -44.8607 C.3       7 UNK        -0.1800 
     39 N           2.3199  -17.6955  -42.6996 N.am      7 UNK        -0.5000 
     40 C           1.8064  -18.3761  -41.6623 C.2       6 UNK         0.5000 
     41 O           1.5435  -19.5785  -41.6995 O.2       6 UNK        -0.5000 
     42 CA          1.4951  -17.5750  -40.3835 C.3       6 UNK         0.1400 
     43 CB          2.7299  -17.5122  -39.4727 C.3       6 UNK        -0.1800 
     44 N           1.0337  -16.2154  -40.6661 N.am      6 UNK        -0.5000 
     45 C          -0.1189  -15.9153  -41.2819 C.2       5 UNK         0.5000 
     46 O          -0.9553  -16.7588  -41.6045 O.2       5 UNK        -0.5000 
     47 CA         -0.3448  -14.4333  -41.6482 C.3       5 UNK         0.1400 
     48 CB         -1.1200  -13.7135  -40.5355 C.3       5 UNK        -0.1800 
     49 N           0.8994  -13.7044  -41.9213 N.am      5 UNK        -0.5000 
     50 C           1.7549  -14.0099  -42.9047 C.2       4 UNK         0.5000 
     51 O           1.5650  -14.9241  -43.7089 O.2       4 UNK        -0.5000 
     52 CA          3.0316  -13.1594  -42.9892 C.3       4 UNK         0.1400 
     53 CB          4.1509  -13.8566  -43.7821 C.3       4 UNK        -0.1800 
     54 N           2.7361  -11.8795  -43.6208 N.am      4 UNK        -0.5000 
     55 C           2.3781  -10.7645  -42.9718 C.2       3 UNK         0.5000 
     56 O           2.2334  -10.6986  -41.7505 O.2       3 UNK        -0.5000 
     57 CA          2.1389   -9.5191  -43.8418 C.3       3 UNK         0.1400 
     58 CB          3.4695   -8.8196  -44.1606 C.3       3 UNK        -0.1800 
     59 N           1.4655   -9.8681  -45.0930 N.am      3 UNK        -0.5000 
     60 C           0.1369   -9.9709  -45.2232 C.2       2 UNK         0.5000 
     61 O          -0.6665   -9.7101  -44.3268 O.2       2 UNK        -0.5000 
     62 CA         -0.3714  -10.4761  -46.5833 C.3       2 UNK         0.1400 
     63 CB         -0.0741   -9.4687  -47.7059 C.3       2 UNK        -0.1800 
     64 N           0.1952  -11.7793  -46.9321 N.am      2 UNK        -0.5000 
     65 C          -0.0863  -12.9310  -46.3098 C.2       1 UNK         0.5000 
     66 O          -0.8354  -13.0100  -45.3363 O.2       1 UNK        -0.5000 
     67 C          -1.4634  -22.7014  -47.5929 C.2       11 UNK         0.5000 
     68 O          -1.6947  -23.3112  -48.6341 O.2       11 UNK        -0.5000 
     69 N          -2.4307  -22.3190  -46.7486 N.am      12 UNK        -0.5000 
     70 CA         -3.8380  -22.7025  -46.8963 C.3       12 UNK         0.1400 
     71 CB         -4.7003  -21.9477  -45.8746 C.3       12 UNK        -0.1800 
     72 C          -4.0695  -24.2222  -46.7892 C.2       12 UNK         0.5000 
     73 O          -5.0005  -24.7324  -47.4121 O.2       12 UNK        -0.5000 
     74 N          -3.2064  -24.9191  -46.0385 N.am      13 UNK        -0.5000 
     75 CA         -3.1810  -26.3761  -45.9630 C.3       13 UNK         0.1400 
     76 CB         -2.7720  -26.8072  -44.5454 C.3       13 UNK        -0.1800 
     77 C          -2.2252  -26.9670  -47.0134 C.2       13 UNK         0.5000 
     78 O          -2.5995  -27.9132  -47.7067 O.2       13 UNK        -0.5000 
     79 N          -1.0042  -26.4188  -47.0980 N.am      14 UNK        -0.5000 
     80 CA          0.0917  -26.9934  -47.8816 C.3       14 UNK         0.1400 
     81 CB          1.4293  -26.4447  -47.3607 C.3       14 UNK        -0.1800 
     82 C          -0.0207  -26.7839  -49.4039 C.2       14 UNK         0.5000 
     83 O           0.3895  -27.6701  -50.1549 O.2       14 UNK        -0.5000 
     84 N          -0.5367  -25.6257  -49.8352 N.am      15 UNK        -0.5000 
     85 CA         -0.5744  -25.2046  -51.2415 C.3       15 UNK         0.1400 
     86 CB          0.3939  -24.0204  -51.4173 C.3       15 UNK        -0.1800 
     87 C          -1.9839  -24.8098  -51.7201 C.2       15 UNK         0.5000 
     88 O          -2.1717  -24.6178  -52.9213 O.2       15 UNK        -0.5000 
     89 N          -2.9321  -24.6683  -50.7831 N.am      16 UNK        -0.5000 
     90 CA         -4.2636  -24.0813  -50.9514 C.3       16 UNK         0.1400 
     91 CB         -5.1892  -24.9922  -51.7825 C.3       16 UNK        -0.1800 
     92 C          -4.2082  -22.6019  -51.3965 C.2       16 UNK         0.5000 
     93 O          -4.9657  -22.1654  -52.2684 O.2       16 UNK        -0.5000 
     94 N          -3.3177  -21.8418  -50.7409 N.am      17 UNK        -0.5000 
     95 CA         -3.3022  -20.3771  -50.7613 C.3       17 UNK         0.1400 
     96 CB         -2.0067  -19.8719  -50.1124 C.3       17 UNK        -0.1800 
     97 C          -4.5350  -19.8063  -50.0321 C.2       17 UNK         0.5000 
     98 O          -5.1705  -20.5169  -49.2506 O.2       17 UNK        -0.5000 
     99 N          -4.8927  -18.5514  -50.3377 N.am      18 UNK        -0.5000 
    100 CA        -6.1010  -17.8237  -49.9020 C.3       18 UNK         0.1400 
    101 CB        -6.1986  -17.7238  -48.3668 C.3       18 UNK        -0.1800 
    102 C         -7.4078  -18.3659  -50.5246 C.2       18 UNK         0.5000 
    103 O         -8.2664  -17.5747  -50.9144 O.2       18 UNK        -0.5000 
    104 N         -7.4974  -19.6925  -50.6907 N.am      19 UNK        -0.5000 
    105 CA        -8.4563  -20.3945  -51.5487 C.3       19 UNK         0.1400 
    106 CB        -8.4583  -21.8844  -51.1717 C.3       19 UNK        -0.1800 
    107 C         -8.1565  -20.2089  -53.0546 C.2       19 UNK         0.5000 
    108 O         -9.0114  -20.5229  -53.8834 O.2       19 UNK        -0.5000 
    109 N         -6.9644  -19.6777  -53.3678 N.am      20 UNK        -0.5000 
    110 CA        -6.4798  -19.2500  -54.6811 C.3       20 UNK         0.1400 
    111 CB        -7.3702  -18.1325  -55.2654 C.3       20 UNK        -0.1800 
    112 C         -6.2329  -20.4124  -55.6608 C.2       20 UNK         0.5000 
    113 O         -6.4870  -20.2725  -56.8586 O.2       20 UNK        -0.5000 
    114 N         -5.6925  -21.5275  -55.1485 N.am      21 UNK        -0.5000 
    115 CA        -5.2017  -22.6393  -55.9708 C.3       21 UNK         0.1400 
    116 CB        -5.1424  -23.9076  -55.1151 C.3       21 UNK        -0.1800 
    117 C         -3.8187  -22.3562  -56.5971 C.2       21 UNK         0.5000 
    118 O         -3.4076  -23.0893  -57.4977 O.2       21 UNK        -0.5000 
    119 N         -3.1309  -21.3154  -56.1044 N.am      22 UNK        -0.5000 
    120 CA        -1.8449  -20.7902  -56.5878 C.3       22 UNK         0.1400 
    121 C         -1.8307  -20.5013  -58.1174 C.2       22 UNK         0.5000 
    122 N         -0.7843  -20.9061  -58.8242 N.am      22 UNK        -0.7600 
    123 O         -2.7369  -19.8694  -58.6561 O.2       22 UNK        -0.5000 
    124 C124       -1.4568  -19.5008  -55.8196 C.3       23 UNK        -0.0398 
    125 S125       -1.1773  -19.7605  -54.0315 S.3       23 UNK        -0.2404 
    126 C126        0.6016  -19.3868  -53.9254 C.3       23 UNK        -0.0205 
    127 H127        4.5292  -14.3520  -47.2650 H         1 UNK         0.0600 
    128 H128        4.5665  -13.8038  -48.9414 H         1 UNK         0.0600 
    129 H129        4.6687  -12.6276  -47.6265 H         1 UNK         0.0600 
    130 H130        2.5206  -14.7315  -46.4346 H         1 UNK         0.3000 
    131 H131        0.4289  -14.9712  -46.0965 H         1 UNK         0.0600 
    132 H132       -1.3167  -14.6366  -47.9424 H         1 UNK         0.0800 
    133 H133       -0.0430  -14.0936  -48.9914 H         1 UNK         0.0800 
    134 H134        2.1683  -15.9649  -49.5912 H         1 UNK         0.0800 
    135 H135        0.8109  -15.6159  -50.6405 H         1 UNK         0.0800 
    136 H136        0.4021  -17.1330  -52.4216 H         1 UNK         0.1150 
    137 H137        1.8151  -21.1741  -52.2562 H         1 UNK         0.1150 
    138 H138        2.4292  -18.5410  -48.9229 H         1 UNK         0.1150 
    139 H139        2.6205  -22.0910  -50.2045 H         1 UNK         0.0800 
    140 H140        3.9447  -21.0147  -49.8243 H         1 UNK         0.0800 
    141 H141        0.3032  -21.3971  -49.1098 H         1 UNK         0.0800 
    142 H142        0.1842  -20.3127  -47.7468 H         1 UNK         0.0800 
    143 H143        0.5453  -23.3301  -47.5127 H         1 UNK         0.0600 
    144 H144        0.5248  -21.3221  -45.4988 H         1 UNK         0.3000 
    145 H145        0.1393  -23.6934  -42.7900 H         1 UNK         0.0600 
    146 H146        2.1870  -22.4392  -42.1990 H         1 UNK         0.0600 
    147 H147        2.5077  -23.4965  -43.5662 H         1 UNK         0.0600 
    148 H148        2.2904  -21.7692  -43.8245 H         1 UNK         0.0600 
    149 H149        0.2418  -20.8239  -42.8272 H         1 UNK         0.3000 
    150 H150       -3.3047  -20.3221  -42.5816 H         1 UNK         0.0600 
    151 H151       -2.4706  -20.7781  -40.2747 H         1 UNK         0.0600 
    152 H152       -2.5331  -19.0513  -40.5960 H         1 UNK         0.0600 
    153 H153       -0.9877  -19.8973  -40.6206 H         1 UNK         0.0600 
    154 H154       -1.2428  -18.4085  -42.6471 H         1 UNK         0.3000 
    155 H155       -1.0246  -18.0593  -46.2188 H         1 UNK         0.0600 
    156 H156       -1.9807  -16.2410  -43.9437 H         1 UNK         0.0600 
    157 H157       -2.9773  -16.7542  -45.2943 H         1 UNK         0.0600 
    158 H158       -1.5757  -15.7555  -45.5851 H         1 UNK         0.0600 
    159 H159        0.4614  -16.7789  -44.1558 H         1 UNK         0.3000 
    160 H160        3.0665  -19.2411  -43.8697 H         1 UNK         0.0600 
    161 H161        4.4102  -17.1750  -44.3344 H         1 UNK         0.0600 
    162 H162        3.0108  -16.4514  -45.1292 H         1 UNK         0.0600 
    163 H163        3.7474  -17.8960  -45.7926 H         1 UNK         0.0600 
    164 H164        2.4344  -16.6948  -42.6256 H         1 UNK         0.3000 
    165 H165        0.7004  -18.0985  -39.8479 H         1 UNK         0.0600 
    166 H166        2.5012  -17.0110  -38.5320 H         1 UNK         0.0600 
    167 H167        3.0846  -18.5144  -39.2277 H         1 UNK         0.0600 
    168 H168        3.5548  -16.9787  -39.9467 H         1 UNK         0.0600 
    169 H169        1.6588  -15.4612  -40.4240 H         1 UNK         0.3000 
    170 H170       -0.9486  -14.4081  -42.5578 H         1 UNK         0.0600 
    171 H171       -2.0635  -14.2198  -40.3269 H         1 UNK         0.0600 
    172 H172       -0.5518  -13.6799  -39.6051 H         1 UNK         0.0600 
    173 H173       -1.3587  -12.6889  -40.8215 H         1 UNK         0.0600 
    174 H174        1.1066  -12.9129  -41.3271 H         1 UNK         0.3000 
    175 H175        3.4000  -13.0009  -41.9732 H         1 UNK         0.0600 
    176 H176        3.8689  -14.0309  -44.8196 H         1 UNK         0.0600 
    177 H177        5.0621  -13.2583  -43.7821 H         1 UNK         0.0600 
    178 H178        4.3987  -14.8220  -43.3396 H         1 UNK         0.0600 
    179 H179        2.7859  -11.8550  -44.6271 H         1 UNK         0.3000 
    180 H180        1.5203   -8.8220  -43.2723 H         1 UNK         0.0600 
    181 H181        4.1395   -9.4615  -44.7340 H         1 UNK         0.0600 
    182 H182        3.9901   -8.5369  -43.2446 H         1 UNK         0.0600 
    183 H183        3.3061   -7.9076  -44.7350 H         1 UNK         0.0600 
    184 H184        2.0493  -10.0808  -45.8882 H         1 UNK         0.3000 
    185 H185       -1.4556  -10.5869  -46.5115 H         1 UNK         0.0600 
    186 H186       -0.4725   -8.4829  -47.4621 H         1 UNK         0.0600 
    187 H187        0.9963   -9.3574  -47.8821 H         1 UNK         0.0600 
    188 H188       -0.5341   -9.7810  -48.6436 H         1 UNK         0.0600 
    189 H189        0.8361  -11.8184  -47.7210 H         1 UNK         0.3000 
    190 H190       -2.2004  -21.7272  -45.9565 H         1 UNK         0.3000 
    191 H191       -4.1595  -22.4077  -47.8946 H         1 UNK         0.0600 
    192 H192       -4.3553  -22.1154  -44.8538 H         1 UNK         0.0600 
    193 H193       -5.7425  -22.2643  -45.9292 H         1 UNK         0.0600 
    194 H194       -4.6828  -20.8750  -46.0670 H         1 UNK         0.0600 
    195 H195       -2.4535  -24.4275  -45.5731 H         1 UNK         0.3000 
    196 H196       -4.1792  -26.7767  -46.1531 H         1 UNK         0.0600 
    197 H197       -2.7567  -27.8943  -44.4582 H         1 UNK         0.0600 
    198 H198       -3.4764  -26.4314  -43.8031 H         1 UNK         0.0600 
    199 H199       -1.7801  -26.4428  -44.2767 H         1 UNK         0.0600 
    200 H200       -0.7617  -25.6651  -46.4604 H         1 UNK         0.3000 
    201 H201        0.0942  -28.0716  -47.7059 H         1 UNK         0.0600 
    202 H202        1.5457  -26.6343  -46.2934 H         1 UNK         0.0600 
    203 H203        1.5196  -25.3715  -47.5213 H         1 UNK         0.0600 
    204 H204        2.2691  -26.9209  -47.8683 H         1 UNK         0.0600 
    205 H205       -0.8613  -24.9413  -49.1601 H         1 UNK         0.3000 
    206 H206       -0.2441  -26.0135  -51.8959 H         1 UNK         0.0600 
    207 H207        1.4082  -24.2935  -51.1265 H         1 UNK         0.0600 
    208 H208        0.4314  -23.6934  -52.4573 H         1 UNK         0.0600 
    209 H209        0.0918  -23.1620  -50.8168 H         1 UNK         0.0600 
    210 H210       -2.6439  -24.7983  -49.8232 H         1 UNK         0.3000 
    211 H211       -4.6989  -24.0402  -49.9534 H         1 UNK         0.0600 
    212 H212       -4.7363  -25.3000  -52.7222 H         1 UNK         0.0600 
    213 H213       -6.1372  -24.5034  -52.0091 H         1 UNK         0.0600 
    214 H214       -5.4237  -25.9014  -51.2292 H         1 UNK         0.0600 
    215 H215       -2.7397  -22.2901  -50.0396 H         1 UNK         0.3000 
    216 H216       -3.3276  -20.0487  -51.8021 H         1 UNK         0.0600 
    217 H217       -1.9238  -18.7870  -50.1894 H         1 UNK         0.0600 
    218 H218       -1.1319  -20.2930  -50.6073 H         1 UNK         0.0600 
    219 H219       -1.9624  -20.1264  -49.0537 H         1 UNK         0.0600 
    220 H220       -4.3089  -18.0414  -50.9865 H         1 UNK         0.3000 
    221 H221       -5.9782  -16.8080  -50.2816 H         1 UNK         0.0600 
    222 H222       -6.4035  -18.6881  -47.9016 H         1 UNK         0.0600 
    223 H223       -5.2761  -17.3331  -47.9372 H         1 UNK         0.0600 
    224 H224       -7.0047  -17.0495  -48.0756 H         1 UNK         0.0600 
    225 H225       -6.7606  -20.2559  -50.2754 H         1 UNK         0.3000 
    226 H226       -9.4519  -19.9886  -51.3590 H         1 UNK         0.0600 
    227 H227       -8.7263  -22.0256  -50.1246 H         1 UNK         0.0600 
    228 H228       -9.1821  -22.4391  -51.7700 H         1 UNK         0.0600 
    229 H229       -7.4819  -22.3417  -51.3316 H         1 UNK         0.0600 
    230 H230       -6.3341  -19.5116  -52.5982 H         1 UNK         0.3000 
    231 H231       -5.4979  -18.8099  -54.5016 H         1 UNK         0.0600 
    232 H232       -7.5056  -17.3214  -54.5497 H         1 UNK         0.0600 
    233 H233       -8.3572  -18.5026  -55.5440 H         1 UNK         0.0600 
    234 H234       -6.9199  -17.7016  -56.1603 H         1 UNK         0.0600 
    235 H235       -5.5326  -21.5993  -54.1473 H         1 UNK         0.3000 
    236 H236       -5.9073  -22.8156  -56.7854 H         1 UNK         0.0600 
    237 H237       -4.9104  -24.7820  -55.7241 H         1 UNK         0.0600 
    238 H238       -4.3633  -23.8211  -54.3590 H         1 UNK         0.0600 
    239 H239       -6.0913  -24.0975  -54.6135 H         1 UNK         0.0600 
    240 H240       -3.5490  -20.8028  -55.3442 H         1 UNK         0.3000 
    241 H241       -1.0943  -21.5546  -56.3791 H         1 UNK         0.0600 
    242 H242       -0.7565  -20.7102  -59.8131 H         1 UNK         0.3800 
    243 H243       -0.0265  -21.4212  -58.4026 H         1 UNK         0.3800 
    244 H244       -0.5598  -19.0599  -56.2580 H         1 UNK         0.0800 
    245 H245       -2.2371  -18.7457  -55.9318 H         1 UNK         0.0800 
    246 H246        1.1660  -20.1941  -54.3948 H         1 UNK         0.0800 
    247 H247        0.8228  -18.4850  -54.4985 H         1 UNK         0.0800 
@<TRIPOS>BOND
     1    1    2 1    
     2    1  127 1    
     3    1  128 1    
     4    1  129 1    
     5    2    3 2    
     6    2    4 am   BACKBONE|DICT|INTERRES
     7    4    5 1    
     8    4  130 1    
     9    5    6 1    
    10    5   65 1    
    11    5  131 1    
    12    6    7 1    
    13    6  132 1    
    14    6  133 1    
    15    7    8 1    
    16    8    9 1    
    17    8  134 1    
    18    8  135 1    
    19    9   10 ar   
    20    9   14 ar   
    21   10   11 ar   
    22   10  136 1    
    23   11   12 ar   
    24   11  126 1    
    25   12   13 ar   
    26   12  137 1    
    27   13   14 ar   
    28   13   15 1    
    29   14  138 1    
    30   15   16 1    
    31   15  139 1    
    32   15  140 1    
    33   16   17 1    
    34   17   18 1    
    35   17  141 1    
    36   17  142 1    
    37   18   19 1    
    38   18   67 1    
    39   18  143 1    
    40   19   20 am   BACKBONE|DICT|INTERRES
    41   19  144 1    
    42   20   21 2    
    43   20   22 1    
    44   22   23 1    
    45   22   24 1    
    46   22  145 1    
    47   23  146 1    
    48   23  147 1    
    49   23  148 1    
    50   24   25 am   BACKBONE|DICT|INTERRES
    51   24  149 1    
    52   25   26 2    
    53   25   27 1    
    54   27   28 1    
    55   27   29 1    
    56   27  150 1    
    57   28  151 1    
    58   28  152 1    
    59   28  153 1    
    60   29   30 am   BACKBONE|DICT|INTERRES
    61   29  154 1    
    62   30   31 2    
    63   30   32 1    
    64   32   33 1    
    65   32   34 1    
    66   32  155 1    
    67   33  156 1    
    68   33  157 1    
    69   33  158 1    
    70   34   35 am   BACKBONE|DICT|INTERRES
    71   34  159 1    
    72   35   36 2    
    73   35   37 1    
    74   37   38 1    
    75   37   39 1    
    76   37  160 1    
    77   38  161 1    
    78   38  162 1    
    79   38  163 1    
    80   39   40 am   BACKBONE|DICT|INTERRES
    81   39  164 1    
    82   40   41 2    
    83   40   42 1    
    84   42   43 1    
    85   42   44 1    
    86   42  165 1    
    87   43  166 1    
    88   43  167 1    
    89   43  168 1    
    90   44   45 am   BACKBONE|DICT|INTERRES
    91   44  169 1    
    92   45   46 2    
    93   45   47 1    
    94   47   48 1    
    95   47   49 1    
    96   47  170 1    
    97   48  171 1    
    98   48  172 1    
    99   48  173 1    
   100   49   50 am   BACKBONE|DICT|INTERRES
   101   49  174 1    
   102   50   51 2    
   103   50   52 1    
   104   52   53 1    
   105   52   54 1    
   106   52  175 1    
   107   53  176 1    
   108   53  177 1    
   109   53  178 1    
   110   54   55 am   BACKBONE|DICT|INTERRES
   111   54  179 1    
   112   55   56 2    
   113   55   57 1    
   114   57   58 1    
   115   57   59 1    
   116   57  180 1    
   117   58  181 1    
   118   58  182 1    
   119   58  183 1    
   120   59   60 am   BACKBONE|DICT|INTERRES
   121   59  184 1    
   122   60   61 2    
   123   60   62 1    
   124   62   63 1    
   125   62   64 1    
   126   62  185 1    
   127   63  186 1    
   128   63  187 1    
   129   63  188 1    
   130   64   65 am   BACKBONE|DICT|INTERRES
   131   64  189 1    
   132   65   66 2    
   133   67   68 2    
   134   67   69 am   BACKBONE|DICT|INTERRES
   135   69   70 1    
   136   69  190 1    
   137   70   71 1    
   138   70   72 1    
   139   70  191 1    
   140   71  192 1    
   141   71  193 1    
   142   71  194 1    
   143   72   73 2    
   144   72   74 am   BACKBONE|DICT|INTERRES
   145   74   75 1    
   146   74  195 1    
   147   75   76 1    
   148   75   77 1    
   149   75  196 1    
   150   76  197 1    
   151   76  198 1    
   152   76  199 1    
   153   77   78 2    
   154   77   79 am   BACKBONE|DICT|INTERRES
   155   79   80 1    
   156   79  200 1    
   157   80   81 1    
   158   80   82 1    
   159   80  201 1    
   160   81  202 1    
   161   81  203 1    
   162   81  204 1    
   163   82   83 2    
   164   82   84 am   BACKBONE|DICT|INTERRES
   165   84   85 1    
   166   84  205 1    
   167   85   86 1    
   168   85   87 1    
   169   85  206 1    
   170   86  207 1    
   171   86  208 1    
   172   86  209 1    
   173   87   88 2    
   174   87   89 am   BACKBONE|DICT|INTERRES
   175   89   90 1    
   176   89  210 1    
   177   90   91 1    
   178   90   92 1    
   179   90  211 1    
   180   91  212 1    
   181   91  213 1    
   182   91  214 1    
   183   92   93 2    
   184   92   94 am   BACKBONE|DICT|INTERRES
   185   94   95 1    
   186   94  215 1    
   187   95   96 1    
   188   95   97 1    
   189   95  216 1    
   190   96  217 1    
   191   96  218 1    
   192   96  219 1    
   193   97   98 2    
   194   97   99 am   BACKBONE|DICT|INTERRES
   195   99  100 1    
   196   99  220 1    
   197  100  101 1    
   198  100  102 1    
   199  100  221 1    
   200  101  222 1    
   201  101  223 1    
   202  101  224 1    
   203  102  103 2    
   204  102  104 am   BACKBONE|DICT|INTERRES
   205  104  105 1    
   206  104  225 1    
   207  105  106 1    
   208  105  107 1    
   209  105  226 1    
   210  106  227 1    
   211  106  228 1    
   212  106  229 1    
   213  107  108 2    
   214  107  109 am   BACKBONE|DICT|INTERRES
   215  109  110 1    
   216  109  230 1    
   217  110  111 1    
   218  110  112 1    
   219  110  231 1    
   220  111  232 1    
   221  111  233 1    
   222  111  234 1    
   223  112  113 2    
   224  112  114 am   BACKBONE|DICT|INTERRES
   225  114  115 1    
   226  114  235 1    
   227  115  116 1    
   228  115  117 1    
   229  115  236 1    
   230  116  237 1    
   231  116  238 1    
   232  116  239 1    
   233  117  118 2    
   234  117  119 am   BACKBONE|DICT|INTERRES
   235  119  120 1    
   236  119  240 1    
   237  120  121 1    
   238  120  124 1    
   239  120  241 1    
   240  121  122 am   BACKBONE|DICT|INTERRES
   241  121  123 2    
   242  122  242 1    
   243  122  243 1    
   244  124  125 1    
   245  124  244 1    
   246  124  245 1    
   247  125  126 1    
   248  126  246 1    
   249  126  247 1    
@<TRIPOS>SUBSTRUCTURE
     1 UNK         1 GROUP             0       ****    0 ROOT    
