@<TRIPOS>MOLECULE
3R540
247   249    1
SMALL
USER_CHARGES


@<TRIPOS>ATOM
      1 CA          3.0319  -11.8895  -50.9346 C.3       0 UNK        -0.1800 
      2 C           2.1000  -12.9013  -50.2836 C.2       0 UNK         0.5000 
      3 O           2.5585  -13.9449  -49.8213 O.2       0 UNK        -0.5000 
      4 N           0.7975  -12.5919  -50.2425 N.am      1 UNK        -0.5000 
      5 CA         -0.2537  -13.4546  -49.6827 C.3       1 UNK         0.1400 
      6 C6         -1.6679  -13.0607  -50.1887 C.3       23 UNK        -0.0398 
      7 S7         -1.7950  -12.9521  -52.0097 S.3       23 UNK        -0.2404 
      8 C8         -2.4324  -14.6021  -52.4497 C.3       23 UNK        -0.0205 
      9 C9         -1.4669  -15.7027  -52.0403 C.ar      23 UNK        -0.0193 
     10 C10        -0.2293  -15.8215  -52.6779 C.ar      23 UNK        -0.1150 
     11 C11         0.6895  -16.7901  -52.2686 C.ar      23 UNK        -0.0193 
     12 C12         0.3540  -17.6546  -51.2223 C.ar      23 UNK        -0.1150 
     13 C13        -0.8882  -17.5585  -50.5852 C.ar      23 UNK        -0.0193 
     14 C14        -1.7948  -16.5797  -51.0027 C.ar      23 UNK        -0.1150 
     15 C15        -1.2760  -18.5197  -49.4674 C.3       23 UNK        -0.0205 
     16 S16        -0.0633  -18.5697  -48.1038 S.3       23 UNK        -0.2404 
     17 C17         0.8405  -20.1172  -48.4649 C.3       23 UNK        -0.0398 
     18 CA          0.3470  -21.3894  -47.7248 C.3       11 UNK         0.1400 
     19 N           0.6490  -21.4210  -46.2915 N.am      11 UNK        -0.5000 
     20 C           0.6099  -22.5517  -45.5668 C.2       10 UNK         0.5000 
     21 O           0.3442  -23.6585  -46.0408 O.2       10 UNK        -0.5000 
     22 CA          0.8720  -22.4336  -44.0565 C.3       10 UNK         0.1400 
     23 CB          2.3709  -22.2591  -43.7708 C.3       10 UNK        -0.1800 
     24 N           0.1092  -21.3574  -43.4252 N.am      10 UNK        -0.5000 
     25 C          -1.2304  -21.3052  -43.3778 C.2       9 UNK         0.5000 
     26 O          -1.9692  -22.1588  -43.8695 O.2       9 UNK        -0.5000 
     27 CA         -1.8533  -20.0803  -42.6868 C.3       9 UNK         0.1400 
     28 CB         -1.8057  -20.2353  -41.1595 C.3       9 UNK        -0.1800 
     29 N          -1.2067  -18.8286  -43.0765 N.am      9 UNK        -0.5000 
     30 C          -1.2244  -18.3251  -44.3191 C.2       8 UNK         0.5000 
     31 O          -1.8355  -18.8418  -45.2529 O.2       8 UNK        -0.5000 
     32 CA         -0.3797  -17.0624  -44.5676 C.3       8 UNK         0.1400 
     33 CB         -1.0902  -15.8127  -44.0273 C.3       8 UNK        -0.1800 
     34 N           0.9549  -17.1627  -43.9787 N.am      8 UNK        -0.5000 
     35 C           1.8644  -18.0960  -44.2971 C.2       7 UNK         0.5000 
     36 O           1.6933  -18.9763  -45.1406 O.2       7 UNK        -0.5000 
     37 CA          3.1730  -18.0749  -43.4940 C.3       7 UNK         0.1400 
     38 CB          4.1341  -17.0219  -44.0581 C.3       7 UNK        -0.1800 
     39 N           2.9312  -17.8224  -42.0735 N.am      7 UNK        -0.5000 
     40 C           2.3542  -18.7047  -41.2452 C.2       6 UNK         0.5000 
     41 O           1.9857  -19.8277  -41.5891 O.2       6 UNK        -0.5000 
     42 CA          2.1116  -18.2380  -39.7989 C.3       6 UNK         0.1400 
     43 CB          3.4064  -18.3122  -38.9757 C.3       6 UNK        -0.1800 
     44 N           1.5664  -16.8824  -39.7288 N.am      6 UNK        -0.5000 
     45 C           0.3641  -16.5261  -40.2012 C.2       5 UNK         0.5000 
     46 O          -0.4233  -17.3092  -40.7302 O.2       5 UNK        -0.5000 
     47 CA         -0.0135  -15.0381  -40.0932 C.3       5 UNK         0.1400 
     48 CB         -0.7166  -14.7599  -38.7562 C.3       5 UNK        -0.1800 
     49 N           1.1137  -14.1136  -40.2477 N.am      5 UNK        -0.5000 
     50 C           1.9020  -14.0272  -41.3277 C.2       4 UNK         0.5000 
     51 O           1.8336  -14.8022  -42.2844 O.2       4 UNK        -0.5000 
     52 CA          2.9143  -12.8664  -41.3162 C.3       4 UNK         0.1400 
     53 CB          4.0994  -13.1484  -40.3697 C.3       4 UNK        -0.1800 
     54 N           3.3390  -12.4866  -42.6693 N.am      4 UNK        -0.5000 
     55 C           4.2352  -13.0745  -43.4775 C.2       3 UNK         0.5000 
     56 O           5.0041  -13.9726  -43.1330 O.2       3 UNK        -0.5000 
     57 CA          4.2767  -12.5306  -44.9238 C.3       3 UNK         0.1400 
     58 CB          5.0287  -13.4549  -45.9059 C.3       3 UNK        -0.1800 
     59 N           2.9415  -12.1810  -45.4326 N.am      3 UNK        -0.5000 
     60 C           1.9145  -13.0167  -45.6607 C.2       2 UNK         0.5000 
     61 O           1.9845  -14.2400  -45.5577 O.2       2 UNK        -0.5000 
     62 CA          0.5750  -12.3748  -46.0698 C.3       2 UNK         0.1400 
     63 CB          0.4471  -10.8902  -45.6725 C.3       2 UNK        -0.1800 
     64 N           0.3966  -12.4933  -47.5125 N.am      2 UNK        -0.5000 
     65 C          -0.2361  -13.4956  -48.1377 C.2       1 UNK         0.5000 
     66 O          -0.8149  -14.4109  -47.5519 O.2       1 UNK        -0.5000 
     67 C          -1.1323  -21.7201  -47.9989 C.2       11 UNK         0.5000 
     68 O          -1.4041  -22.5032  -48.9062 O.2       11 UNK        -0.5000 
     69 N          -2.0550  -21.1705  -47.1919 N.am      12 UNK        -0.5000 
     70 CA         -3.4914  -21.4162  -47.3106 C.3       12 UNK         0.1400 
     71 CB         -4.2765  -20.5240  -46.3402 C.3       12 UNK        -0.1800 
     72 C          -3.8664  -22.8916  -47.1118 C.2       12 UNK         0.5000 
     73 O          -4.6626  -23.4125  -47.8920 O.2       12 UNK        -0.5000 
     74 N          -3.2645  -23.5437  -46.1079 N.am      13 UNK        -0.5000 
     75 CA         -3.4362  -24.9691  -45.8283 C.3       13 UNK         0.1400 
     76 CB         -2.7226  -25.3254  -44.5156 C.3       13 UNK        -0.1800 
     77 C          -2.9429  -25.8648  -46.9790 C.2       13 UNK         0.5000 
     78 O          -3.6395  -26.8088  -47.3541 O.2       13 UNK        -0.5000 
     79 N          -1.7704  -25.5340  -47.5379 N.am      14 UNK        -0.5000 
     80 CA         -1.1725  -26.2336  -48.6763 C.3       14 UNK         0.1400 
     81 CB          0.2789  -25.7619  -48.8525 C.3       14 UNK        -0.1800 
     82 C          -1.9670  -26.0463  -49.9835 C.2       14 UNK         0.5000 
     83 O          -2.0969  -26.9927  -50.7601 O.2       14 UNK        -0.5000 
     84 N          -2.4917  -24.8337  -50.1937 N.am      15 UNK        -0.5000 
     85 CA         -3.2069  -24.4093  -51.3969 C.3       15 UNK         0.1400 
     86 CB         -2.8563  -22.9407  -51.6648 C.3       15 UNK        -0.1800 
     87 C          -4.7321  -24.6241  -51.3340 C.2       15 UNK         0.5000 
     88 O          -5.4455  -24.0389  -52.1514 O.2       15 UNK        -0.5000 
     89 N          -5.2014  -25.4514  -50.3878 N.am      16 UNK        -0.5000 
     90 CA         -6.5902  -25.8819  -50.1892 C.3       16 UNK         0.1400 
     91 CB         -7.0710  -26.7312  -51.3849 C.3       16 UNK        -0.1800 
     92 C          -7.5331  -24.7043  -49.8728 C.2       16 UNK         0.5000 
     93 O          -8.4224  -24.3840  -50.6620 O.2       16 UNK        -0.5000 
     94 N          -7.2846  -24.0629  -48.7237 N.am      17 UNK        -0.5000 
     95 CA         -7.9429  -22.8530  -48.2160 C.3       17 UNK         0.1400 
     96 CB         -9.4510  -23.0800  -47.9786 C.3       17 UNK        -0.1800 
     97 C          -7.6341  -21.6214  -49.0911 C.2       17 UNK         0.5000 
     98 O          -8.5076  -20.7847  -49.3233 O.2       17 UNK        -0.5000 
     99 N          -6.3804  -21.5555  -49.5649 N.am      18 UNK        -0.5000 
    100 CA        -5.8007  -20.5248  -50.4347 C.3       18 UNK         0.1400 
    101 CB        -5.7816  -19.1503  -49.7335 C.3       18 UNK        -0.1800 
    102 C         -6.4225  -20.4538  -51.8457 C.2       18 UNK         0.5000 
    103 O         -6.2082  -19.4632  -52.5447 O.2       18 UNK        -0.5000 
    104 N         -7.1431  -21.5032  -52.2666 N.am      19 UNK        -0.5000 
    105 CA        -7.7962  -21.6034  -53.5734 C.3       19 UNK         0.1400 
    106 CB        -8.6819  -22.8573  -53.6059 C.3       19 UNK        -0.1800 
    107 C         -6.7998  -21.6136  -54.7463 C.2       19 UNK         0.5000 
    108 O         -7.0589  -20.9782  -55.7690 O.2       19 UNK        -0.5000 
    109 N         -5.6683  -22.3071  -54.5640 N.am      20 UNK        -0.5000 
    110 CA        -4.5685  -22.3573  -55.5310 C.3       20 UNK         0.1400 
    111 CB        -3.8799  -23.7283  -55.4283 C.3       20 UNK        -0.1800 
    112 C         -3.5483  -21.2123  -55.3515 C.2       20 UNK         0.5000 
    113 O         -2.6309  -21.1042  -56.1682 O.2       20 UNK        -0.5000 
    114 N         -3.7091  -20.3978  -54.2935 N.am      21 UNK        -0.5000 
    115 CA        -2.8179  -19.3277  -53.8274 C.3       21 UNK         0.1400 
    116 CB        -2.8656  -18.1192  -54.7871 C.3       21 UNK        -0.1800 
    117 C         -1.3927  -19.8549  -53.5662 C.2       21 UNK         0.5000 
    118 O         -1.1312  -20.3921  -52.4916 O.2       21 UNK        -0.5000 
    119 N         -0.5221  -19.7399  -54.5691 N.am      22 UNK        -0.5000 
    120 CA         0.8060  -20.3592  -54.6283 C.3       22 UNK         0.1400 
    121 C          1.1657  -20.8368  -56.0657 C.2       22 UNK         0.5000 
    122 N          0.1934  -21.0710  -56.9419 N.am      22 UNK        -0.7600 
    123 O          2.3345  -21.0218  -56.3948 O.2       22 UNK        -0.5000 
    124 C124        1.9051  -19.5144  -53.9285 C.3       23 UNK        -0.0398 
    125 S125        2.0150  -17.7837  -54.5084 S.3       23 UNK        -0.2404 
    126 C126        2.0563  -16.8689  -52.9332 C.3       23 UNK        -0.0205 
    127 H127        3.5457  -12.3446  -51.7815 H         1 UNK         0.0600 
    128 H128        3.7826  -11.5556  -50.2182 H         1 UNK         0.0600 
    129 H129        2.4922  -11.0136  -51.2955 H         1 UNK         0.0600 
    130 H130        0.4763  -11.7315  -50.6634 H         1 UNK         0.3000 
    131 H131       -0.0478  -14.4738  -50.0129 H         1 UNK         0.0600 
    132 H132       -2.4147  -13.7689  -49.8250 H         1 UNK         0.0800 
    133 H133       -1.9556  -12.0888  -49.7838 H         1 UNK         0.0800 
    134 H134       -2.5899  -14.6468  -53.5282 H         1 UNK         0.0800 
    135 H135       -3.4112  -14.7470  -51.9898 H         1 UNK         0.0800 
    136 H136        0.0293  -15.1401  -53.4763 H         1 UNK         0.1150 
    137 H137        1.0622  -18.4027  -50.9002 H         1 UNK         0.1150 
    138 H138       -2.7534  -16.4916  -50.5112 H         1 UNK         0.1150 
    139 H139       -2.2381  -18.2348  -49.0391 H         1 UNK         0.0800 
    140 H140       -1.4219  -19.5130  -49.8927 H         1 UNK         0.0800 
    141 H141        1.8901  -19.9469  -48.2224 H         1 UNK         0.0800 
    142 H142        0.8200  -20.2955  -49.5410 H         1 UNK         0.0800 
    143 H143        0.9173  -22.2117  -48.1636 H         1 UNK         0.0600 
    144 H144        0.8831  -20.5361  -45.8453 H         1 UNK         0.3000 
    145 H145        0.5527  -23.3710  -43.5964 H         1 UNK         0.0600 
    146 H146        2.5733  -22.2867  -42.7002 H         1 UNK         0.0600 
    147 H147        2.9520  -23.0592  -44.2310 H         1 UNK         0.0600 
    148 H148        2.7491  -21.3138  -44.1592 H         1 UNK         0.0600 
    149 H149        0.6472  -20.6251  -42.9749 H         1 UNK         0.3000 
    150 H150       -2.9009  -20.0247  -42.9896 H         1 UNK         0.0600 
    151 H151       -2.2816  -21.1649  -40.8450 H         1 UNK         0.0600 
    152 H152       -2.3305  -19.4177  -40.6651 H         1 UNK         0.0600 
    153 H153       -0.7803  -20.2468  -40.7875 H         1 UNK         0.0600 
    154 H154       -0.7177  -18.3220  -42.3436 H         1 UNK         0.3000 
    155 H155       -0.2540  -16.9392  -45.6445 H         1 UNK         0.0600 
    156 H156       -1.2971  -15.8942  -42.9609 H         1 UNK         0.0600 
    157 H157       -2.0418  -15.6585  -44.5371 H         1 UNK         0.0600 
    158 H158       -0.4872  -14.9188  -44.1844 H         1 UNK         0.0600 
    159 H159        1.2130  -16.4456  -43.3081 H         1 UNK         0.3000 
    160 H160        3.6490  -19.0529  -43.5901 H         1 UNK         0.0600 
    161 H161        5.0572  -16.9695  -43.4809 H         1 UNK         0.0600 
    162 H162        3.6773  -16.0324  -44.0578 H         1 UNK         0.0600 
    163 H163        4.4031  -17.2534  -45.0893 H         1 UNK         0.0600 
    164 H164        3.1376  -16.8929  -41.7363 H         1 UNK         0.3000 
    165 H165        1.3834  -18.9169  -39.3497 H         1 UNK         0.0600 
    166 H166        3.2229  -18.0661  -37.9297 H         1 UNK         0.0600 
    167 H167        3.8282  -19.3179  -39.0027 H         1 UNK         0.0600 
    168 H168        4.1663  -17.6271  -39.3537 H         1 UNK         0.0600 
    169 H169        2.1512  -16.1711  -39.3161 H         1 UNK         0.3000 
    170 H170       -0.7208  -14.8234  -40.8961 H         1 UNK         0.0600 
    171 H171       -1.5755  -15.4191  -38.6219 H         1 UNK         0.0600 
    172 H172       -0.0474  -14.9159  -37.9091 H         1 UNK         0.0600 
    173 H173       -1.0859  -13.7353  -38.7094 H         1 UNK         0.0600 
    174 H174        1.2425  -13.4467  -39.5003 H         1 UNK         0.3000 
    175 H175        2.3894  -11.9912  -40.9300 H         1 UNK         0.0600 
    176 H176        4.5876  -14.0969  -40.5947 H         1 UNK         0.0600 
    177 H177        4.8496  -12.3598  -40.4274 H         1 UNK         0.0600 
    178 H178        3.7648  -13.2007  -39.3332 H         1 UNK         0.0600 
    179 H179        2.7729  -11.7648  -43.0904 H         1 UNK         0.3000 
    180 H180        4.8346  -11.5945  -44.8731 H         1 UNK         0.0600 
    181 H181        4.5844  -14.4494  -45.9518 H         1 UNK         0.0600 
    182 H182        6.0693  -13.5790  -45.6043 H         1 UNK         0.0600 
    183 H183        5.0300  -13.0417  -46.9145 H         1 UNK         0.0600 
    184 H184        2.7772  -11.1932  -45.5669 H         1 UNK         0.3000 
    185 H185       -0.2156  -12.9202  -45.5506 H         1 UNK         0.0600 
    186 H186        0.6145  -10.7521  -44.6034 H         1 UNK         0.0600 
    187 H187        1.1509  -10.2536  -46.2099 H         1 UNK         0.0600 
    188 H188       -0.5555  -10.5197  -45.8873 H         1 UNK         0.0600 
    189 H189        0.8669  -11.8071  -48.0841 H         1 UNK         0.3000 
    190 H190       -1.7633  -20.5114  -46.4764 H         1 UNK         0.3000 
    191 H191       -3.7766  -21.1408  -48.3263 H         1 UNK         0.0600 
    192 H192       -3.9932  -20.7095  -45.3037 H         1 UNK         0.0600 
    193 H193       -5.3495  -20.7006  -46.4263 H         1 UNK         0.0600 
    194 H194       -4.1054  -19.4685  -46.5511 H         1 UNK         0.0600 
    195 H195       -2.6505  -23.0278  -45.4831 H         1 UNK         0.3000 
    196 H196       -4.5039  -25.1562  -45.6967 H         1 UNK         0.0600 
    197 H197       -2.8333  -26.3854  -44.2838 H         1 UNK         0.0600 
    198 H198       -3.1376  -24.7642  -43.6782 H         1 UNK         0.0600 
    199 H199       -1.6550  -25.1076  -44.5657 H         1 UNK         0.0600 
    200 H200       -1.2539  -24.7467  -47.1628 H         1 UNK         0.3000 
    201 H201       -1.1570  -27.3011  -48.4467 H         1 UNK         0.0600 
    202 H202        0.8671  -25.9532  -47.9548 H         1 UNK         0.0600 
    203 H203        0.3322  -24.6933  -49.0639 H         1 UNK         0.0600 
    204 H204        0.7632  -26.2854  -49.6777 H         1 UNK         0.0600 
    205 H205       -2.2874  -24.0985  -49.5214 H         1 UNK         0.3000 
    206 H206       -2.8504  -24.9921  -52.2482 H         1 UNK         0.0600 
    207 H207       -1.7841  -22.8290  -51.8235 H         1 UNK         0.0600 
    208 H208       -3.3557  -22.5515  -52.5493 H         1 UNK         0.0600 
    209 H209       -3.1329  -22.3058  -50.8259 H         1 UNK         0.0600 
    210 H210       -4.5277  -25.8361  -49.7397 H         1 UNK         0.3000 
    211 H211       -6.5906  -26.5279  -49.3099 H         1 UNK         0.0600 
    212 H212       -8.0717  -27.1250  -51.2037 H         1 UNK         0.0600 
    213 H213       -6.4120  -27.5829  -51.5527 H         1 UNK         0.0600 
    214 H214       -7.1120  -26.1528  -52.3085 H         1 UNK         0.0600 
    215 H215       -6.4505  -24.3308  -48.2117 H         1 UNK         0.3000 
    216 H216       -7.4892  -22.6502  -47.2448 H         1 UNK         0.0600 
    217 H217       -9.8931  -22.2318  -47.4548 H         1 UNK         0.0600 
    218 H218       -9.6251  -23.9650  -47.3668 H         1 UNK         0.0600 
    219 H219       -9.9986  -23.2038  -48.9131 H         1 UNK         0.0600 
    220 H220       -5.7594  -22.3126  -49.3010 H         1 UNK         0.3000 
    221 H221       -4.7630  -20.8123  -50.5911 H         1 UNK         0.0600 
    222 H222       -6.7846  -18.7370  -49.6252 H         1 UNK         0.0600 
    223 H223       -5.3378  -19.2140  -48.7413 H         1 UNK         0.0600 
    224 H224       -5.1926  -18.4289  -50.3014 H         1 UNK         0.0600 
    225 H225       -7.2351  -22.3059  -51.6578 H         1 UNK         0.3000 
    226 H226       -8.4392  -20.7288  -53.6918 H         1 UNK         0.0600 
    227 H227       -9.4474  -22.8184  -52.8307 H         1 UNK         0.0600 
    228 H228       -9.1935  -22.9520  -54.5645 H         1 UNK         0.0600 
    229 H229       -8.0974  -23.7656  -53.4522 H         1 UNK         0.0600 
    230 H230       -5.5576  -22.8390  -53.7041 H         1 UNK         0.3000 
    231 H231       -4.9720  -22.2681  -56.5418 H         1 UNK         0.0600 
    232 H232       -4.5911  -24.5385  -55.5899 H         1 UNK         0.0600 
    233 H233       -3.4167  -23.8813  -54.4549 H         1 UNK         0.0600 
    234 H234       -3.0972  -23.8306  -56.1811 H         1 UNK         0.0600 
    235 H235       -4.5282  -20.5478  -53.7214 H         1 UNK         0.3000 
    236 H236       -3.2041  -18.9950  -52.8624 H         1 UNK         0.0600 
    237 H237       -2.6034  -18.3867  -55.8108 H         1 UNK         0.0600 
    238 H238       -3.8645  -17.6833  -54.8078 H         1 UNK         0.0600 
    239 H239       -2.1792  -17.3360  -54.4637 H         1 UNK         0.0600 
    240 H240       -0.8255  -19.2982  -55.4246 H         1 UNK         0.3000 
    241 H241        0.7465  -21.2976  -54.0737 H         1 UNK         0.0600 
    242 H242       -0.7859  -21.0224  -56.6706 H         1 UNK         0.3800 
    243 H243        0.4333  -21.3852  -57.8688 H         1 UNK         0.3800 
    244 H244        2.8849  -19.9805  -54.0420 H         1 UNK         0.0800 
    245 H245        1.7133  -19.5224  -52.8567 H         1 UNK         0.0800 
    246 H246        2.7857  -17.3247  -52.2617 H         1 UNK         0.0800 
    247 H247        2.4188  -15.8580  -53.1260 H         1 UNK         0.0800 
@<TRIPOS>BOND
     1    1    2 1    
     2    1  127 1    
     3    1  128 1    
     4    1  129 1    
     5    2    3 2    
     6    2    4 am   BACKBONE|DICT|INTERRES
     7    4    5 1    
     8    4  130 1    
     9    5    6 1    
    10    5   65 1    
    11    5  131 1    
    12    6    7 1    
    13    6  132 1    
    14    6  133 1    
    15    7    8 1    
    16    8    9 1    
    17    8  134 1    
    18    8  135 1    
    19    9   10 ar   
    20    9   14 ar   
    21   10   11 ar   
    22   10  136 1    
    23   11   12 ar   
    24   11  126 1    
    25   12   13 ar   
    26   12  137 1    
    27   13   14 ar   
    28   13   15 1    
    29   14  138 1    
    30   15   16 1    
    31   15  139 1    
    32   15  140 1    
    33   16   17 1    
    34   17   18 1    
    35   17  141 1    
    36   17  142 1    
    37   18   19 1    
    38   18   67 1    
    39   18  143 1    
    40   19   20 am   BACKBONE|DICT|INTERRES
    41   19  144 1    
    42   20   21 2    
    43   20   22 1    
    44   22   23 1    
    45   22   24 1    
    46   22  145 1    
    47   23  146 1    
    48   23  147 1    
    49   23  148 1    
    50   24   25 am   BACKBONE|DICT|INTERRES
    51   24  149 1    
    52   25   26 2    
    53   25   27 1    
    54   27   28 1    
    55   27   29 1    
    56   27  150 1    
    57   28  151 1    
    58   28  152 1    
    59   28  153 1    
    60   29   30 am   BACKBONE|DICT|INTERRES
    61   29  154 1    
    62   30   31 2    
    63   30   32 1    
    64   32   33 1    
    65   32   34 1    
    66   32  155 1    
    67   33  156 1    
    68   33  157 1    
    69   33  158 1    
    70   34   35 am   BACKBONE|DICT|INTERRES
    71   34  159 1    
    72   35   36 2    
    73   35   37 1    
    74   37   38 1    
    75   37   39 1    
    76   37  160 1    
    77   38  161 1    
    78   38  162 1    
    79   38  163 1    
    80   39   40 am   BACKBONE|DICT|INTERRES
    81   39  164 1    
    82   40   41 2    
    83   40   42 1    
    84   42   43 1    
    85   42   44 1    
    86   42  165 1    
    87   43  166 1    
    88   43  167 1    
    89   43  168 1    
    90   44   45 am   BACKBONE|DICT|INTERRES
    91   44  169 1    
    92   45   46 2    
    93   45   47 1    
    94   47   48 1    
    95   47   49 1    
    96   47  170 1    
    97   48  171 1    
    98   48  172 1    
    99   48  173 1    
   100   49   50 am   BACKBONE|DICT|INTERRES
   101   49  174 1    
   102   50   51 2    
   103   50   52 1    
   104   52   53 1    
   105   52   54 1    
   106   52  175 1    
   107   53  176 1    
   108   53  177 1    
   109   53  178 1    
   110   54   55 am   BACKBONE|DICT|INTERRES
   111   54  179 1    
   112   55   56 2    
   113   55   57 1    
   114   57   58 1    
   115   57   59 1    
   116   57  180 1    
   117   58  181 1    
   118   58  182 1    
   119   58  183 1    
   120   59   60 am   BACKBONE|DICT|INTERRES
   121   59  184 1    
   122   60   61 2    
   123   60   62 1    
   124   62   63 1    
   125   62   64 1    
   126   62  185 1    
   127   63  186 1    
   128   63  187 1    
   129   63  188 1    
   130   64   65 am   BACKBONE|DICT|INTERRES
   131   64  189 1    
   132   65   66 2    
   133   67   68 2    
   134   67   69 am   BACKBONE|DICT|INTERRES
   135   69   70 1    
   136   69  190 1    
   137   70   71 1    
   138   70   72 1    
   139   70  191 1    
   140   71  192 1    
   141   71  193 1    
   142   71  194 1    
   143   72   73 2    
   144   72   74 am   BACKBONE|DICT|INTERRES
   145   74   75 1    
   146   74  195 1    
   147   75   76 1    
   148   75   77 1    
   149   75  196 1    
   150   76  197 1    
   151   76  198 1    
   152   76  199 1    
   153   77   78 2    
   154   77   79 am   BACKBONE|DICT|INTERRES
   155   79   80 1    
   156   79  200 1    
   157   80   81 1    
   158   80   82 1    
   159   80  201 1    
   160   81  202 1    
   161   81  203 1    
   162   81  204 1    
   163   82   83 2    
   164   82   84 am   BACKBONE|DICT|INTERRES
   165   84   85 1    
   166   84  205 1    
   167   85   86 1    
   168   85   87 1    
   169   85  206 1    
   170   86  207 1    
   171   86  208 1    
   172   86  209 1    
   173   87   88 2    
   174   87   89 am   BACKBONE|DICT|INTERRES
   175   89   90 1    
   176   89  210 1    
   177   90   91 1    
   178   90   92 1    
   179   90  211 1    
   180   91  212 1    
   181   91  213 1    
   182   91  214 1    
   183   92   93 2    
   184   92   94 am   BACKBONE|DICT|INTERRES
   185   94   95 1    
   186   94  215 1    
   187   95   96 1    
   188   95   97 1    
   189   95  216 1    
   190   96  217 1    
   191   96  218 1    
   192   96  219 1    
   193   97   98 2    
   194   97   99 am   BACKBONE|DICT|INTERRES
   195   99  100 1    
   196   99  220 1    
   197  100  101 1    
   198  100  102 1    
   199  100  221 1    
   200  101  222 1    
   201  101  223 1    
   202  101  224 1    
   203  102  103 2    
   204  102  104 am   BACKBONE|DICT|INTERRES
   205  104  105 1    
   206  104  225 1    
   207  105  106 1    
   208  105  107 1    
   209  105  226 1    
   210  106  227 1    
   211  106  228 1    
   212  106  229 1    
   213  107  108 2    
   214  107  109 am   BACKBONE|DICT|INTERRES
   215  109  110 1    
   216  109  230 1    
   217  110  111 1    
   218  110  112 1    
   219  110  231 1    
   220  111  232 1    
   221  111  233 1    
   222  111  234 1    
   223  112  113 2    
   224  112  114 am   BACKBONE|DICT|INTERRES
   225  114  115 1    
   226  114  235 1    
   227  115  116 1    
   228  115  117 1    
   229  115  236 1    
   230  116  237 1    
   231  116  238 1    
   232  116  239 1    
   233  117  118 2    
   234  117  119 am   BACKBONE|DICT|INTERRES
   235  119  120 1    
   236  119  240 1    
   237  120  121 1    
   238  120  124 1    
   239  120  241 1    
   240  121  122 am   BACKBONE|DICT|INTERRES
   241  121  123 2    
   242  122  242 1    
   243  122  243 1    
   244  124  125 1    
   245  124  244 1    
   246  124  245 1    
   247  125  126 1    
   248  126  246 1    
   249  126  247 1    
@<TRIPOS>SUBSTRUCTURE
     1 UNK         1 GROUP             0       ****    0 ROOT    
