@<TRIPOS>MOLECULE
3R540
247   249    1
SMALL
USER_CHARGES


@<TRIPOS>ATOM
      1 CA          0.9633  -10.0210  -47.6649 C.3       0 UNK        -0.1800 
      2 C          -0.0105  -10.8503  -48.4900 C.2       0 UNK         0.5000 
      3 O          -0.7509  -10.2984  -49.3036 O.2       0 UNK        -0.5000 
      4 N          -0.0074  -12.1736  -48.2883 N.am      1 UNK        -0.5000 
      5 CA         -0.8719  -13.1372  -48.9832 C.3       1 UNK         0.1400 
      6 C6         -1.1109  -14.4041  -48.1215 C.3       23 UNK        -0.0398 
      7 S7          0.4103  -15.3496  -47.7549 S.3       23 UNK        -0.2404 
      8 C8         -0.1097  -16.3216  -46.3113 C.3       23 UNK        -0.0205 
      9 C9         -1.1073  -17.4123  -46.6703 C.ar      23 UNK        -0.0193 
     10 C10        -0.6766  -18.5581  -47.3448 C.ar      23 UNK        -0.1150 
     11 C11        -1.5745  -19.5850  -47.6470 C.ar      23 UNK        -0.0193 
     12 C12        -2.9183  -19.4469  -47.2893 C.ar      23 UNK        -0.1150 
     13 C13        -3.3559  -18.3242  -46.5806 C.ar      23 UNK        -0.0193 
     14 C14        -2.4471  -17.3035  -46.2853 C.ar      23 UNK        -0.1150 
     15 C15        -4.8016  -18.2250  -46.1106 C.3       23 UNK        -0.0205 
     16 S16        -5.0579  -19.0425  -44.4962 S.3       23 UNK        -0.2404 
     17 C17        -5.1128  -20.8026  -44.9776 C.3       23 UNK        -0.0398 
     18 CA         -3.7406  -21.5007  -44.7639 C.3       11 UNK         0.1400 
     19 N          -3.4604  -21.8997  -43.3833 N.am      11 UNK        -0.5000 
     20 C          -4.0595  -22.8711  -42.6807 C.2       10 UNK         0.5000 
     21 O          -5.0984  -23.4304  -43.0318 O.2       10 UNK        -0.5000 
     22 CA         -3.3558  -23.3326  -41.3904 C.3       10 UNK         0.1400 
     23 CB         -2.5941  -24.6427  -41.6521 C.3       10 UNK        -0.1800 
     24 N          -2.4049  -22.3340  -40.8956 N.am      10 UNK        -0.5000 
     25 C          -2.5068  -21.6897  -39.7256 C.2       9 UNK         0.5000 
     26 O          -3.3699  -21.9265  -38.8794 O.2       9 UNK        -0.5000 
     27 CA         -1.4815  -20.5667  -39.4670 C.3       9 UNK         0.1400 
     28 CB         -0.2188  -21.1301  -38.7980 C.3       9 UNK        -0.1800 
     29 N          -1.0964  -19.8500  -40.6848 N.am      9 UNK        -0.5000 
     30 C          -1.9330  -19.1427  -41.4594 C.2       8 UNK         0.5000 
     31 O          -3.1149  -18.9467  -41.1778 O.2       8 UNK        -0.5000 
     32 CA         -1.3689  -18.5633  -42.7722 C.3       8 UNK         0.1400 
     33 CB         -1.2333  -17.0395  -42.6466 C.3       8 UNK        -0.1800 
     34 N          -0.0800  -19.1308  -43.1860 N.am      8 UNK        -0.5000 
     35 C           0.1333  -20.4079  -43.5425 C.2       7 UNK         0.5000 
     36 O          -0.7408  -21.2745  -43.5099 O.2       7 UNK        -0.5000 
     37 CA          1.5596  -20.8049  -43.9678 C.3       7 UNK         0.1400 
     38 CB          1.6520  -20.9282  -45.4943 C.3       7 UNK        -0.1800 
     39 N           2.5871  -19.8764  -43.4936 N.am      7 UNK        -0.5000 
     40 C           2.9632  -19.7602  -42.2106 C.2       6 UNK         0.5000 
     41 O           2.4855  -20.4392  -41.3008 O.2       6 UNK        -0.5000 
     42 CA          4.0279  -18.6955  -41.8754 C.3       6 UNK         0.1400 
     43 CB          5.4202  -19.3392  -41.7926 C.3       6 UNK        -0.1800 
     44 N           4.0768  -17.5821  -42.8253 N.am      6 UNK        -0.5000 
     45 C           3.0779  -16.7192  -43.0579 C.2       5 UNK         0.5000 
     46 O           1.9979  -16.7548  -42.4702 O.2       5 UNK        -0.5000 
     47 CA          3.3063  -15.6658  -44.1591 C.3       5 UNK         0.1400 
     48 CB          3.7861  -14.3427  -43.5448 C.3       5 UNK        -0.1800 
     49 N           4.2476  -16.0776  -45.2065 N.am      5 UNK        -0.5000 
     50 C           4.0931  -17.1368  -46.0121 C.2       4 UNK         0.5000 
     51 O           3.1748  -17.9520  -45.9080 O.2       4 UNK        -0.5000 
     52 CA          5.1552  -17.3292  -47.1092 C.3       4 UNK         0.1400 
     53 CB          5.9014  -18.6590  -46.9156 C.3       4 UNK        -0.1800 
     54 N           4.5451  -17.3079  -48.4378 N.am      4 UNK        -0.5000 
     55 C           3.9670  -16.2335  -48.9900 C.2       3 UNK         0.5000 
     56 O           3.9782  -15.1125  -48.4716 O.2       3 UNK        -0.5000 
     57 CA          3.2692  -16.4425  -50.3460 C.3       3 UNK         0.1400 
     58 CB          2.3144  -17.6505  -50.3317 C.3       3 UNK        -0.1800 
     59 N           2.5383  -15.2242  -50.6780 N.am      3 UNK        -0.5000 
     60 C           2.2269  -14.7844  -51.9014 C.2       2 UNK         0.5000 
     61 O           2.4527  -15.4218  -52.9306 O.2       2 UNK        -0.5000 
     62 CA          1.5938  -13.3772  -51.9812 C.3       2 UNK         0.1400 
     63 CB          0.7856  -13.1422  -53.2767 C.3       2 UNK        -0.1800 
     64 N           0.8303  -13.0299  -50.7744 N.am      2 UNK        -0.5000 
     65 C          -0.3708  -13.4995  -50.4018 C.2       1 UNK         0.5000 
     66 O          -1.0775  -14.2100  -51.1148 O.2       1 UNK        -0.5000 
     67 C          -3.4586  -22.6677  -45.7352 C.2       11 UNK         0.5000 
     68 O          -4.2499  -22.9414  -46.6356 O.2       11 UNK        -0.5000 
     69 N          -2.3135  -23.3287  -45.5327 N.am      12 UNK        -0.5000 
     70 CA         -1.8245  -24.4406  -46.3366 C.3       12 UNK         0.1400 
     71 CB         -2.4165  -25.7586  -45.8076 C.3       12 UNK        -0.1800 
     72 C          -0.2891  -24.4404  -46.2330 C.2       12 UNK         0.5000 
     73 O           0.2167  -24.3351  -45.1153 O.2       12 UNK        -0.5000 
     74 N           0.4726  -24.5542  -47.3267 N.am      13 UNK        -0.5000 
     75 CA          0.0865  -24.5612  -48.7352 C.3       13 UNK         0.1400 
     76 CB         -0.3368  -25.9746  -49.1693 C.3       13 UNK        -0.1800 
     77 C           1.2908  -24.0586  -49.5435 C.2       13 UNK         0.5000 
     78 O           2.4327  -24.2705  -49.1253 O.2       13 UNK        -0.5000 
     79 N           1.0135  -23.3889  -50.6641 N.am      14 UNK        -0.5000 
     80 CA          1.9758  -22.6914  -51.5125 C.3       14 UNK         0.1400 
     81 CB          2.6517  -21.5254  -50.7473 C.3       14 UNK        -0.1800 
     82 C           1.2441  -22.2533  -52.7943 C.2       14 UNK         0.5000 
     83 O           0.7559  -23.1152  -53.5266 O.2       14 UNK        -0.5000 
     84 N           1.1756  -20.9407  -53.0494 N.am      15 UNK        -0.5000 
     85 CA          0.5296  -20.3351  -54.2130 C.3       15 UNK         0.1400 
     86 CB          1.4486  -20.4441  -55.4476 C.3       15 UNK        -0.1800 
     87 C           0.1092  -18.8875  -53.8966 C.2       15 UNK         0.5000 
     88 O           0.3469  -17.9849  -54.7012 O.2       15 UNK        -0.5000 
     89 N          -0.4909  -18.6866  -52.7149 N.am      16 UNK        -0.5000 
     90 CA         -1.0337  -17.4027  -52.2618 C.3       16 UNK         0.1400 
     91 CB         -1.4160  -17.5217  -50.7766 C.3       16 UNK        -0.1800 
     92 C          -2.2673  -16.9592  -53.0700 C.2       16 UNK         0.5000 
     93 O          -2.8551  -17.7539  -53.8076 O.2       16 UNK        -0.5000 
     94 N          -2.6827  -15.7062  -52.8463 N.am      17 UNK        -0.5000 
     95 CA         -3.9289  -15.1236  -53.3501 C.3       17 UNK         0.1400 
     96 CB         -3.9720  -13.6352  -52.9738 C.3       17 UNK        -0.1800 
     97 C          -5.1862  -15.8533  -52.8327 C.2       17 UNK         0.5000 
     98 O          -6.1860  -15.9291  -53.5473 O.2       17 UNK        -0.5000 
     99 N          -5.0919  -16.4412  -51.6312 N.am      18 UNK        -0.5000 
    100 CA        -6.0755  -17.3439  -51.0279 C.3       18 UNK         0.1400 
    101 CB        -5.8856  -17.3182  -49.5009 C.3       18 UNK        -0.1800 
    102 C         -5.9653  -18.7742  -51.6049 C.2       18 UNK         0.5000 
    103 O         -5.9156  -19.7480  -50.8499 O.2       18 UNK        -0.5000 
    104 N         -5.9034  -18.8775  -52.9391 N.am      19 UNK        -0.5000 
    105 CA        -5.5992  -20.0865  -53.7101 C.3       19 UNK         0.1400 
    106 CB        -5.5569  -19.7281  -55.2028 C.3       19 UNK        -0.1800 
    107 C         -6.5601  -21.2644  -53.4709 C.2       19 UNK         0.5000 
    108 O         -6.1382  -22.4159  -53.5788 O.2       19 UNK        -0.5000 
    109 N         -7.8156  -20.9611  -53.1129 N.am      20 UNK        -0.5000 
    110 CA        -8.8474  -21.9377  -52.7559 C.3       20 UNK         0.1400 
    111 CB       -10.1802  -21.2028  -52.5468 C.3       20 UNK        -0.1800 
    112 C         -8.4955  -22.7820  -51.5137 C.2       20 UNK         0.5000 
    113 O         -8.9345  -23.9293  -51.4230 O.2       20 UNK        -0.5000 
    114 N         -7.7034  -22.2088  -50.5982 N.am      21 UNK        -0.5000 
    115 CA        -7.1458  -22.8955  -49.4361 C.3       21 UNK         0.1400 
    116 CB        -7.2793  -21.9851  -48.2038 C.3       21 UNK        -0.1800 
    117 C         -5.6740  -23.2643  -49.6858 C.2       21 UNK         0.5000 
    118 O         -5.2764  -24.3997  -49.4229 O.2       21 UNK        -0.5000 
    119 N         -4.8999  -22.2936  -50.1882 N.am      22 UNK        -0.5000 
    120 CA        -3.4455  -22.3748  -50.3641 C.3       22 UNK         0.1400 
    121 C         -2.9518  -23.3307  -51.4876 C.2       22 UNK         0.5000 
    122 N         -3.7571  -23.6667  -52.4868 N.am      22 UNK        -0.7600 
    123 O         -1.8133  -23.7871  -51.4404 O.2       22 UNK        -0.5000 
    124 C124       -2.8500  -20.9516  -50.5092 C.3       23 UNK        -0.0398 
    125 S125       -1.0784  -20.8359  -50.0993 S.3       23 UNK        -0.2404 
    126 C126       -1.0769  -20.8743  -48.2835 C.3       23 UNK        -0.0205 
    127 H127        1.5590  -10.6420  -46.9952 H         1 UNK         0.0600 
    128 H128        0.4192   -9.2950  -47.0608 H         1 UNK         0.0600 
    129 H129        1.6441   -9.4784  -48.3208 H         1 UNK         0.0600 
    130 H130        0.6244  -12.5747  -47.6089 H         1 UNK         0.3000 
    131 H131       -1.8473  -12.6670  -49.1257 H         1 UNK         0.0600 
    132 H132       -1.5732  -14.1102  -47.1784 H         1 UNK         0.0800 
    133 H133       -1.8311  -15.0683  -48.6003 H         1 UNK         0.0800 
    134 H134        0.7675  -16.7866  -45.8619 H         1 UNK         0.0800 
    135 H135       -0.5186  -15.6439  -45.5620 H         1 UNK         0.0800 
    136 H136        0.3643  -18.6539  -47.6198 H         1 UNK         0.1150 
    137 H137       -3.6167  -20.2383  -47.5197 H         1 UNK         0.1150 
    138 H138       -2.7794  -16.4332  -45.7373 H         1 UNK         0.1150 
    139 H139       -5.0860  -17.1758  -46.0186 H         1 UNK         0.0800 
    140 H140       -5.4736  -18.6524  -46.8555 H         1 UNK         0.0800 
    141 H141       -5.4352  -20.8446  -46.0178 H         1 UNK         0.0800 
    142 H142       -5.8993  -21.3018  -44.4117 H         1 UNK         0.0800 
    143 H143       -2.9619  -20.7747  -44.9938 H         1 UNK         0.0600 
    144 H144       -2.5787  -21.5414  -43.0376 H         1 UNK         0.3000 
    145 H145       -4.1349  -23.5287  -40.6511 H         1 UNK         0.0600 
    146 H146       -2.1303  -25.0168  -40.7393 H         1 UNK         0.0600 
    147 H147       -1.8084  -24.5100  -42.3976 H         1 UNK         0.0600 
    148 H148       -3.2654  -25.4208  -42.0179 H         1 UNK         0.0600 
    149 H149       -1.6479  -22.0795  -41.5160 H         1 UNK         0.3000 
    150 H150       -1.9409  -19.8476  -38.7858 H         1 UNK         0.0600 
    151 H151       -0.4666  -21.6569  -37.8755 H         1 UNK         0.0600 
    152 H152        0.4796  -20.3337  -38.5398 H         1 UNK         0.0600 
    153 H153        0.3025  -21.8331  -39.4493 H         1 UNK         0.0600 
    154 H154       -0.1350  -19.9445  -40.9819 H         1 UNK         0.3000 
    155 H155       -2.0889  -18.7790  -43.5638 H         1 UNK         0.0600 
    156 H156       -2.2089  -16.5718  -42.5080 H         1 UNK         0.0600 
    157 H157       -0.7877  -16.6042  -43.5374 H         1 UNK         0.0600 
    158 H158       -0.6120  -16.7610  -41.7947 H         1 UNK         0.0600 
    159 H159        0.7048  -18.4915  -43.1912 H         1 UNK         0.3000 
    160 H160        1.7631  -21.7885  -43.5391 H         1 UNK         0.0600 
    161 H161        1.4500  -19.9773  -45.9852 H         1 UNK         0.0600 
    162 H162        0.9295  -21.6532  -45.8682 H         1 UNK         0.0600 
    163 H163        2.6409  -21.2637  -45.8068 H         1 UNK         0.0600 
    164 H164        2.9904  -19.2572  -44.1879 H         1 UNK         0.3000 
    165 H165        3.7801  -18.2852  -40.8943 H         1 UNK         0.0600 
    166 H166        6.1709  -18.6173  -41.4704 H         1 UNK         0.0600 
    167 H167        5.4300  -20.1588  -41.0728 H         1 UNK         0.0600 
    168 H168        5.7336  -19.7443  -42.7558 H         1 UNK         0.0600 
    169 H169        4.9256  -17.4805  -43.3615 H         1 UNK         0.3000 
    170 H170        2.3428  -15.4838  -44.6378 H         1 UNK         0.0600 
    171 H171        3.0931  -13.9936  -42.7779 H         1 UNK         0.0600 
    172 H172        4.7665  -14.4476  -43.0784 H         1 UNK         0.0600 
    173 H173        3.8538  -13.5587  -44.2994 H         1 UNK         0.0600 
    174 H174        5.0279  -15.4575  -45.3689 H         1 UNK         0.3000 
    175 H175        5.8834  -16.5174  -47.0529 H         1 UNK         0.0600 
    176 H176        5.2286  -19.5147  -46.9907 H         1 UNK         0.0600 
    177 H177        6.6865  -18.7833  -47.6617 H         1 UNK         0.0600 
    178 H178        6.3762  -18.7008  -45.9346 H         1 UNK         0.0600 
    179 H179        4.4721  -18.1977  -48.9076 H         1 UNK         0.3000 
    180 H180        4.0477  -16.6056  -51.0940 H         1 UNK         0.0600 
    181 H181        1.5840  -17.5676  -49.5274 H         1 UNK         0.0600 
    182 H182        2.8581  -18.5831  -50.1867 H         1 UNK         0.0600 
    183 H183        1.7756  -17.7392  -51.2736 H         1 UNK         0.0600 
    184 H184        2.3677  -14.6266  -49.8793 H         1 UNK         0.3000 
    185 H185        2.4331  -12.6809  -52.0024 H         1 UNK         0.0600 
    186 H186        0.0129  -13.8975  -53.4217 H         1 UNK         0.0600 
    187 H187        0.3054  -12.1638  -53.2729 H         1 UNK         0.0600 
    188 H188        1.4370  -13.1805  -54.1503 H         1 UNK         0.0600 
    189 H189        1.3095  -12.4349  -50.1140 H         1 UNK         0.3000 
    190 H190       -1.6829  -23.0250  -44.7983 H         1 UNK         0.3000 
    191 H191       -2.1530  -24.3050  -47.3656 H         1 UNK         0.0600 
    192 H192       -2.1659  -25.9191  -44.7582 H         1 UNK         0.0600 
    193 H193       -2.0389  -26.6128  -46.3700 H         1 UNK         0.0600 
    194 H194       -3.5031  -25.7655  -45.8955 H         1 UNK         0.0600 
    195 H195        1.4787  -24.5406  -47.2136 H         1 UNK         0.3000 
    196 H196       -0.7285  -23.8580  -48.9060 H         1 UNK         0.0600 
    197 H197        0.4491  -26.7052  -48.9744 H         1 UNK         0.0600 
    198 H198       -1.2366  -26.3022  -48.6506 H         1 UNK         0.0600 
    199 H199       -0.5548  -26.0045  -50.2376 H         1 UNK         0.0600 
    200 H200        0.0471  -23.3432  -50.9840 H         1 UNK         0.3000 
    201 H201        2.7472  -23.4021  -51.8147 H         1 UNK         0.0600 
    202 H202        3.2545  -21.8892  -49.9158 H         1 UNK         0.0600 
    203 H203        1.9188  -20.8309  -50.3367 H         1 UNK         0.0600 
    204 H204        3.3285  -20.9646  -51.3930 H         1 UNK         0.0600 
    205 H205        1.5893  -20.2949  -52.3917 H         1 UNK         0.3000 
    206 H206       -0.3938  -20.8788  -54.4243 H         1 UNK         0.0600 
    207 H207        1.6812  -21.4830  -55.6812 H         1 UNK         0.0600 
    208 H208        0.9725  -20.0170  -56.3310 H         1 UNK         0.0600 
    209 H209        2.3904  -19.9170  -55.2914 H         1 UNK         0.0600 
    210 H210       -0.6669  -19.4809  -52.1157 H         1 UNK         0.3000 
    211 H211       -0.2566  -16.6433  -52.3697 H         1 UNK         0.0600 
    212 H212       -2.2678  -18.1844  -50.6309 H         1 UNK         0.0600 
    213 H213       -1.6965  -16.5598  -50.3553 H         1 UNK         0.0600 
    214 H214       -0.5895  -17.8969  -50.1775 H         1 UNK         0.0600 
    215 H215       -2.1299  -15.1193  -52.2206 H         1 UNK         0.3000 
    216 H216       -3.9213  -15.2063  -54.4387 H         1 UNK         0.0600 
    217 H217       -3.9572  -13.4938  -51.8923 H         1 UNK         0.0600 
    218 H218       -4.8760  -13.1601  -53.3570 H         1 UNK         0.0600 
    219 H219       -3.1196  -13.0989  -53.3915 H         1 UNK         0.0600 
    220 H220       -4.2180  -16.3449  -51.1364 H         1 UNK         0.3000 
    221 H221       -7.0799  -16.9789  -51.2509 H         1 UNK         0.0600 
    222 H222       -4.9022  -17.6931  -49.2136 H         1 UNK         0.0600 
    223 H223       -5.9872  -16.3073  -49.1060 H         1 UNK         0.0600 
    224 H224       -6.6336  -17.9361  -49.0024 H         1 UNK         0.0600 
    225 H225       -5.9653  -18.0159  -53.4686 H         1 UNK         0.3000 
    226 H226       -4.6023  -20.4170  -53.4126 H         1 UNK         0.0600 
    227 H227       -4.8044  -18.9653  -55.4040 H         1 UNK         0.0600 
    228 H228       -5.3033  -20.5994  -55.8082 H         1 UNK         0.0600 
    229 H229       -6.5186  -19.3514  -55.5530 H         1 UNK         0.0600 
    230 H230       -8.0686  -19.9862  -53.0468 H         1 UNK         0.3000 
    231 H231       -8.9616  -22.6239  -53.5975 H         1 UNK         0.0600 
    232 H232      -10.9792  -21.9045  -52.3038 H         1 UNK         0.0600 
    233 H233      -10.4822  -20.6681  -53.4476 H         1 UNK         0.0600 
    234 H234      -10.1179  -20.4811  -51.7313 H         1 UNK         0.0600 
    235 H235       -7.3616  -21.2715  -50.7735 H         1 UNK         0.3000 
    236 H236       -7.6954  -23.8169  -49.2328 H         1 UNK         0.0600 
    237 H237       -8.3228  -21.7374  -48.0094 H         1 UNK         0.0600 
    238 H238       -6.8922  -22.4809  -47.3130 H         1 UNK         0.0600 
    239 H239       -6.7309  -21.0500  -48.3262 H         1 UNK         0.0600 
    240 H240       -5.3180  -21.3891  -50.3914 H         1 UNK         0.3000 
    241 H241       -3.0665  -22.7987  -49.4330 H         1 UNK         0.0600 
    242 H242       -3.4128  -24.2953  -53.1939 H         1 UNK         0.3800 
    243 H243       -4.6886  -23.2768  -52.5836 H         1 UNK         0.3800 
    244 H244       -3.3841  -20.2480  -49.8719 H         1 UNK         0.0800 
    245 H245       -2.9945  -20.5802  -51.5249 H         1 UNK         0.0800 
    246 H246       -0.0550  -21.0682  -47.9574 H         1 UNK         0.0800 
    247 H247       -1.6662  -21.7192  -47.9312 H         1 UNK         0.0800 
@<TRIPOS>BOND
     1    1    2 1    
     2    1  127 1    
     3    1  128 1    
     4    1  129 1    
     5    2    3 2    
     6    2    4 am   BACKBONE|DICT|INTERRES
     7    4    5 1    
     8    4  130 1    
     9    5    6 1    
    10    5   65 1    
    11    5  131 1    
    12    6    7 1    
    13    6  132 1    
    14    6  133 1    
    15    7    8 1    
    16    8    9 1    
    17    8  134 1    
    18    8  135 1    
    19    9   10 ar   
    20    9   14 ar   
    21   10   11 ar   
    22   10  136 1    
    23   11   12 ar   
    24   11  126 1    
    25   12   13 ar   
    26   12  137 1    
    27   13   14 ar   
    28   13   15 1    
    29   14  138 1    
    30   15   16 1    
    31   15  139 1    
    32   15  140 1    
    33   16   17 1    
    34   17   18 1    
    35   17  141 1    
    36   17  142 1    
    37   18   19 1    
    38   18   67 1    
    39   18  143 1    
    40   19   20 am   BACKBONE|DICT|INTERRES
    41   19  144 1    
    42   20   21 2    
    43   20   22 1    
    44   22   23 1    
    45   22   24 1    
    46   22  145 1    
    47   23  146 1    
    48   23  147 1    
    49   23  148 1    
    50   24   25 am   BACKBONE|DICT|INTERRES
    51   24  149 1    
    52   25   26 2    
    53   25   27 1    
    54   27   28 1    
    55   27   29 1    
    56   27  150 1    
    57   28  151 1    
    58   28  152 1    
    59   28  153 1    
    60   29   30 am   BACKBONE|DICT|INTERRES
    61   29  154 1    
    62   30   31 2    
    63   30   32 1    
    64   32   33 1    
    65   32   34 1    
    66   32  155 1    
    67   33  156 1    
    68   33  157 1    
    69   33  158 1    
    70   34   35 am   BACKBONE|DICT|INTERRES
    71   34  159 1    
    72   35   36 2    
    73   35   37 1    
    74   37   38 1    
    75   37   39 1    
    76   37  160 1    
    77   38  161 1    
    78   38  162 1    
    79   38  163 1    
    80   39   40 am   BACKBONE|DICT|INTERRES
    81   39  164 1    
    82   40   41 2    
    83   40   42 1    
    84   42   43 1    
    85   42   44 1    
    86   42  165 1    
    87   43  166 1    
    88   43  167 1    
    89   43  168 1    
    90   44   45 am   BACKBONE|DICT|INTERRES
    91   44  169 1    
    92   45   46 2    
    93   45   47 1    
    94   47   48 1    
    95   47   49 1    
    96   47  170 1    
    97   48  171 1    
    98   48  172 1    
    99   48  173 1    
   100   49   50 am   BACKBONE|DICT|INTERRES
   101   49  174 1    
   102   50   51 2    
   103   50   52 1    
   104   52   53 1    
   105   52   54 1    
   106   52  175 1    
   107   53  176 1    
   108   53  177 1    
   109   53  178 1    
   110   54   55 am   BACKBONE|DICT|INTERRES
   111   54  179 1    
   112   55   56 2    
   113   55   57 1    
   114   57   58 1    
   115   57   59 1    
   116   57  180 1    
   117   58  181 1    
   118   58  182 1    
   119   58  183 1    
   120   59   60 am   BACKBONE|DICT|INTERRES
   121   59  184 1    
   122   60   61 2    
   123   60   62 1    
   124   62   63 1    
   125   62   64 1    
   126   62  185 1    
   127   63  186 1    
   128   63  187 1    
   129   63  188 1    
   130   64   65 am   BACKBONE|DICT|INTERRES
   131   64  189 1    
   132   65   66 2    
   133   67   68 2    
   134   67   69 am   BACKBONE|DICT|INTERRES
   135   69   70 1    
   136   69  190 1    
   137   70   71 1    
   138   70   72 1    
   139   70  191 1    
   140   71  192 1    
   141   71  193 1    
   142   71  194 1    
   143   72   73 2    
   144   72   74 am   BACKBONE|DICT|INTERRES
   145   74   75 1    
   146   74  195 1    
   147   75   76 1    
   148   75   77 1    
   149   75  196 1    
   150   76  197 1    
   151   76  198 1    
   152   76  199 1    
   153   77   78 2    
   154   77   79 am   BACKBONE|DICT|INTERRES
   155   79   80 1    
   156   79  200 1    
   157   80   81 1    
   158   80   82 1    
   159   80  201 1    
   160   81  202 1    
   161   81  203 1    
   162   81  204 1    
   163   82   83 2    
   164   82   84 am   BACKBONE|DICT|INTERRES
   165   84   85 1    
   166   84  205 1    
   167   85   86 1    
   168   85   87 1    
   169   85  206 1    
   170   86  207 1    
   171   86  208 1    
   172   86  209 1    
   173   87   88 2    
   174   87   89 am   BACKBONE|DICT|INTERRES
   175   89   90 1    
   176   89  210 1    
   177   90   91 1    
   178   90   92 1    
   179   90  211 1    
   180   91  212 1    
   181   91  213 1    
   182   91  214 1    
   183   92   93 2    
   184   92   94 am   BACKBONE|DICT|INTERRES
   185   94   95 1    
   186   94  215 1    
   187   95   96 1    
   188   95   97 1    
   189   95  216 1    
   190   96  217 1    
   191   96  218 1    
   192   96  219 1    
   193   97   98 2    
   194   97   99 am   BACKBONE|DICT|INTERRES
   195   99  100 1    
   196   99  220 1    
   197  100  101 1    
   198  100  102 1    
   199  100  221 1    
   200  101  222 1    
   201  101  223 1    
   202  101  224 1    
   203  102  103 2    
   204  102  104 am   BACKBONE|DICT|INTERRES
   205  104  105 1    
   206  104  225 1    
   207  105  106 1    
   208  105  107 1    
   209  105  226 1    
   210  106  227 1    
   211  106  228 1    
   212  106  229 1    
   213  107  108 2    
   214  107  109 am   BACKBONE|DICT|INTERRES
   215  109  110 1    
   216  109  230 1    
   217  110  111 1    
   218  110  112 1    
   219  110  231 1    
   220  111  232 1    
   221  111  233 1    
   222  111  234 1    
   223  112  113 2    
   224  112  114 am   BACKBONE|DICT|INTERRES
   225  114  115 1    
   226  114  235 1    
   227  115  116 1    
   228  115  117 1    
   229  115  236 1    
   230  116  237 1    
   231  116  238 1    
   232  116  239 1    
   233  117  118 2    
   234  117  119 am   BACKBONE|DICT|INTERRES
   235  119  120 1    
   236  119  240 1    
   237  120  121 1    
   238  120  124 1    
   239  120  241 1    
   240  121  122 am   BACKBONE|DICT|INTERRES
   241  121  123 2    
   242  122  242 1    
   243  122  243 1    
   244  124  125 1    
   245  124  244 1    
   246  124  245 1    
   247  125  126 1    
   248  126  246 1    
   249  126  247 1    
@<TRIPOS>SUBSTRUCTURE
     1 UNK         1 GROUP             0       ****    0 ROOT    
