@<TRIPOS>MOLECULE
3R540
247   249    1
SMALL
USER_CHARGES


@<TRIPOS>ATOM
      1 CA         -1.3008  -13.4511  -52.4800 C.3       0 UNK        -0.1800 
      2 C          -0.9322  -13.8198  -51.0508 C.2       0 UNK         0.5000 
      3 O           0.1079  -14.4388  -50.8236 O.2       0 UNK        -0.5000 
      4 N          -1.7760  -13.4406  -50.0827 N.am      1 UNK        -0.5000 
      5 CA         -1.5909  -13.6973  -48.6502 C.3       1 UNK         0.1400 
      6 C6         -2.9286  -13.7012  -47.8676 C.3       23 UNK        -0.0398 
      7 S7         -4.1843  -14.8529  -48.5214 S.3       23 UNK        -0.2404 
      8 C8         -3.3684  -16.4722  -48.3472 C.3       23 UNK        -0.0205 
      9 C9         -4.3938  -17.5907  -48.2429 C.ar      23 UNK        -0.0193 
     10 C10        -5.1750  -17.9323  -49.3501 C.ar      23 UNK        -0.1150 
     11 C11        -6.1361  -18.9433  -49.2591 C.ar      23 UNK        -0.0193 
     12 C12        -6.3086  -19.6210  -48.0488 C.ar      23 UNK        -0.1150 
     13 C13        -5.5329  -19.2894  -46.9333 C.ar      23 UNK        -0.0193 
     14 C14        -4.5744  -18.2786  -47.0389 C.ar      23 UNK        -0.1150 
     15 C15        -5.7675  -19.9909  -45.6038 C.3       23 UNK        -0.0205 
     16 S16        -5.0107  -21.6428  -45.5513 S.3       23 UNK        -0.2404 
     17 C17        -3.3013  -21.2715  -45.0266 C.3       23 UNK        -0.0398 
     18 CA         -2.3101  -22.3774  -45.4661 C.3       11 UNK         0.1400 
     19 N          -0.9157  -21.9320  -45.4074 N.am      11 UNK        -0.5000 
     20 C           0.0997  -22.5724  -46.0028 C.2       10 UNK         0.5000 
     21 O          -0.0580  -23.5265  -46.7643 O.2       10 UNK        -0.5000 
     22 CA          1.5281  -22.0804  -45.7102 C.3       10 UNK         0.1400 
     23 CB          2.0272  -21.1987  -46.8609 C.3       10 UNK        -0.1800 
     24 N           1.6480  -21.3649  -44.4361 N.am      10 UNK        -0.5000 
     25 C           1.5378  -21.9634  -43.2420 C.2       9 UNK         0.5000 
     26 O           1.3230  -23.1674  -43.1071 O.2       9 UNK        -0.5000 
     27 CA          1.6149  -21.0734  -41.9901 C.3       9 UNK         0.1400 
     28 CB          3.0274  -20.5165  -41.7655 C.3       9 UNK        -0.1800 
     29 N           0.6252  -19.9918  -41.9765 N.am      9 UNK        -0.5000 
     30 C          -0.6998  -20.1996  -41.9489 C.2       8 UNK         0.5000 
     31 O          -1.2242  -21.2980  -42.1314 O.2       8 UNK        -0.5000 
     32 CA         -1.5961  -18.9917  -41.6591 C.3       8 UNK         0.1400 
     33 CB         -1.3254  -18.4052  -40.2626 C.3       8 UNK        -0.1800 
     34 N          -1.4200  -17.9583  -42.6738 N.am      8 UNK        -0.5000 
     35 C          -2.4147  -17.4726  -43.4267 C.2       7 UNK         0.5000 
     36 O          -3.5798  -17.8655  -43.3644 O.2       7 UNK        -0.5000 
     37 CA         -2.0668  -16.3497  -44.4170 C.3       7 UNK         0.1400 
     38 CB         -2.2780  -14.9727  -43.7707 C.3       7 UNK        -0.1800 
     39 N          -0.7161  -16.4309  -44.9728 N.am      7 UNK        -0.5000 
     40 C          -0.2805  -17.3931  -45.7995 C.2       6 UNK         0.5000 
     41 O          -0.9375  -18.3884  -46.1019 O.2       6 UNK        -0.5000 
     42 CA          1.1195  -17.1987  -46.4024 C.3       6 UNK         0.1400 
     43 CB          1.0806  -16.1760  -47.5411 C.3       6 UNK        -0.1800 
     44 N           2.0762  -16.7509  -45.3965 N.am      6 UNK        -0.5000 
     45 C           2.8636  -17.5772  -44.6990 C.2       5 UNK         0.5000 
     46 O           2.8789  -18.7970  -44.8518 O.2       5 UNK        -0.5000 
     47 CA          3.7516  -16.9382  -43.6153 C.3       5 UNK         0.1400 
     48 CB          5.0237  -16.3464  -44.2399 C.3       5 UNK        -0.1800 
     49 N           3.0592  -15.8986  -42.8568 N.am      5 UNK        -0.5000 
     50 C           1.9243  -16.0716  -42.1653 C.2       4 UNK         0.5000 
     51 O           1.3633  -17.1600  -42.0258 O.2       4 UNK        -0.5000 
     52 CA          1.2794  -14.8053  -41.5715 C.3       4 UNK         0.1400 
     53 CB          1.6986  -14.6339  -40.1045 C.3       4 UNK        -0.1800 
     54 N           1.5780  -13.5683  -42.3063 N.am      4 UNK        -0.5000 
     55 C           1.3203  -13.3373  -43.6029 C.2       3 UNK         0.5000 
     56 O           0.8066  -14.1741  -44.3493 O.2       3 UNK        -0.5000 
     57 CA          1.6930  -11.9375  -44.1368 C.3       3 UNK         0.1400 
     58 CB          3.1036  -11.4922  -43.6913 C.3       3 UNK        -0.1800 
     59 N           1.5499  -11.8127  -45.5924 N.am      3 UNK        -0.5000 
     60 C           2.2382  -12.4548  -46.5464 C.2       2 UNK         0.5000 
     61 O           3.1155  -13.2926  -46.3248 O.2       2 UNK        -0.5000 
     62 CA          1.8604  -12.0959  -47.9993 C.3       2 UNK         0.1400 
     63 CB          3.0223  -12.3397  -48.9779 C.3       2 UNK        -0.1800 
     64 N           0.6997  -12.8515  -48.4643 N.am      2 UNK        -0.5000 
     65 C          -0.5630  -12.7142  -48.0431 C.2       1 UNK         0.5000 
     66 O          -0.9220  -11.8481  -47.2429 O.2       1 UNK        -0.5000 
     67 C          -2.5008  -23.6913  -44.6758 C.2       11 UNK         0.5000 
     68 O          -3.1557  -24.6077  -45.1705 O.2       11 UNK        -0.5000 
     69 N          -1.8984  -23.7721  -43.4815 N.am      12 UNK        -0.5000 
     70 CA         -1.9147  -24.9576  -42.6275 C.3       12 UNK         0.1400 
     71 CB         -1.5048  -24.5593  -41.2010 C.3       12 UNK        -0.1800 
     72 C          -1.0123  -26.0859  -43.1593 C.2       12 UNK         0.5000 
     73 O          -1.4280  -27.2453  -43.1572 O.2       12 UNK        -0.5000 
     74 N           0.2082  -25.7340  -43.5872 N.am      13 UNK        -0.5000 
     75 CA          1.2285  -26.6813  -44.0424 C.3       13 UNK         0.1400 
     76 CB          2.6026  -25.9946  -44.0202 C.3       13 UNK        -0.1800 
     77 C           0.9527  -27.2712  -45.4371 C.2       13 UNK         0.5000 
     78 O           1.3745  -28.3973  -45.7058 O.2       13 UNK        -0.5000 
     79 N           0.2719  -26.5086  -46.2985 N.am      14 UNK        -0.5000 
     80 CA         -0.0560  -26.8811  -47.6686 C.3       14 UNK         0.1400 
     81 CB          1.0497  -26.3716  -48.6185 C.3       14 UNK        -0.1800 
     82 C          -1.4660  -26.3596  -47.9846 C.2       14 UNK         0.5000 
     83 O          -2.4344  -26.8809  -47.4305 O.2       14 UNK        -0.5000 
     84 N          -1.5613  -25.3553  -48.8621 N.am      15 UNK        -0.5000 
     85 CA         -2.8027  -24.6932  -49.2587 C.3       15 UNK         0.1400 
     86 CB         -3.5244  -25.5280  -50.3370 C.3       15 UNK        -0.1800 
     87 C          -2.5276  -23.2477  -49.7127 C.2       15 UNK         0.5000 
     88 O          -3.1929  -22.7630  -50.6269 O.2       15 UNK        -0.5000 
     89 N          -1.5235  -22.5946  -49.1036 N.am      16 UNK        -0.5000 
     90 CA         -1.0998  -21.2061  -49.3512 C.3       16 UNK         0.1400 
     91 CB         -2.1652  -20.2185  -48.8367 C.3       16 UNK        -0.1800 
     92 C          -0.6923  -20.9295  -50.8159 C.2       16 UNK         0.5000 
     93 O          -0.9519  -19.8459  -51.3373 O.2       16 UNK        -0.5000 
     94 N          -0.0766  -21.9377  -51.4532 N.am      17 UNK        -0.5000 
     95 CA          0.3023  -22.0004  -52.8719 C.3       17 UNK         0.1400 
     96 CB          1.3078  -20.8888  -53.2409 C.3       17 UNK        -0.1800 
     97 C          -0.8986  -22.0695  -53.8442 C.2       17 UNK         0.5000 
     98 O          -0.7149  -21.8745  -55.0475 O.2       17 UNK        -0.5000 
     99 N          -2.0927  -22.3890  -53.3206 N.am      18 UNK        -0.5000 
    100 CA        -3.3582  -22.5719  -54.0309 C.3       18 UNK         0.1400 
    101 CB        -3.3270  -23.8830  -54.8481 C.3       18 UNK        -0.1800 
    102 C         -3.7497  -21.3205  -54.8415 C.2       18 UNK         0.5000 
    103 O         -3.7664  -20.2230  -54.2821 O.2       18 UNK        -0.5000 
    104 N         -4.0439  -21.4915  -56.1380 N.am      19 UNK        -0.5000 
    105 CA        -4.5219  -20.4649  -57.0706 C.3       19 UNK         0.1400 
    106 CB        -4.7265  -21.1085  -58.4502 C.3       19 UNK        -0.1800 
    107 C         -3.6373  -19.2064  -57.1913 C.2       19 UNK         0.5000 
    108 O         -4.1448  -18.1595  -57.5946 O.2       19 UNK        -0.5000 
    109 N         -2.3565  -19.3073  -56.8063 N.am      20 UNK        -0.5000 
    110 CA        -1.4206  -18.1854  -56.7089 C.3       20 UNK         0.1400 
    111 CB        -0.0209  -18.7261  -56.3828 C.3       20 UNK        -0.1800 
    112 C         -1.8388  -17.1165  -55.6764 C.2       20 UNK         0.5000 
    113 O         -1.4824  -15.9503  -55.8514 O.2       20 UNK        -0.5000 
    114 N         -2.5919  -17.5198  -54.6434 N.am      21 UNK        -0.5000 
    115 CA        -3.1791  -16.6274  -53.6442 C.3       21 UNK         0.1400 
    116 CB        -2.6303  -16.9792  -52.2539 C.3       21 UNK        -0.1800 
    117 C         -4.7130  -16.7107  -53.6477 C.2       21 UNK         0.5000 
    118 O         -5.3707  -15.6825  -53.4852 O.2       21 UNK        -0.5000 
    119 N         -5.2581  -17.9201  -53.8250 N.am      22 UNK        -0.5000 
    120 CA        -6.6985  -18.2106  -53.7527 C.3       22 UNK         0.1400 
    121 C         -7.4909  -17.9037  -55.0566 C.2       22 UNK         0.5000 
    122 N         -6.8544  -17.5435  -56.1645 N.am      22 UNK        -0.7600 
    123 O         -8.7160  -17.9849  -55.0612 O.2       22 UNK        -0.5000 
    124 C124       -6.9796  -19.6573  -53.2569 C.3       23 UNK        -0.0398 
    125 S125       -6.0487  -20.1200  -51.7532 S.3       23 UNK        -0.2404 
    126 C126       -7.0054  -19.2692  -50.4629 C.3       23 UNK        -0.0205 
    127 H127       -0.7669  -12.5509  -52.7840 H         1 UNK         0.0600 
    128 H128       -2.3710  -13.2708  -52.5843 H         1 UNK         0.0600 
    129 H129       -1.0240  -14.2561  -53.1609 H         1 UNK         0.0600 
    130 H130       -2.6083  -12.9226  -50.3262 H         1 UNK         0.3000 
    131 H131       -1.1660  -14.6952  -48.5436 H         1 UNK         0.0600 
    132 H132       -3.3720  -12.7039  -47.8676 H         1 UNK         0.0800 
    133 H133       -2.7543  -13.9538  -46.8206 H         1 UNK         0.0800 
    134 H134       -2.7176  -16.4694  -47.4750 H         1 UNK         0.0800 
    135 H135       -2.7194  -16.6505  -49.2047 H         1 UNK         0.0800 
    136 H136       -5.0437  -17.4019  -50.2830 H         1 UNK         0.1150 
    137 H137       -7.0552  -20.3985  -47.9680 H         1 UNK         0.1150 
    138 H138       -3.9766  -18.0273  -46.1768 H         1 UNK         0.1150 
    139 H139       -5.3971  -19.3883  -44.7730 H         1 UNK         0.0800 
    140 H140       -6.8413  -20.0959  -45.4426 H         1 UNK         0.0800 
    141 H141       -3.2809  -21.1221  -43.9459 H         1 UNK         0.0800 
    142 H142       -3.0082  -20.3178  -45.4675 H         1 UNK         0.0800 
    143 H143       -2.5252  -22.6040  -46.5118 H         1 UNK         0.0600 
    144 H144       -0.7061  -21.1512  -44.8028 H         1 UNK         0.3000 
    145 H145        2.1724  -22.9602  -45.6632 H         1 UNK         0.0600 
    146 H146        3.0374  -20.8338  -46.6754 H         1 UNK         0.0600 
    147 H147        2.0520  -21.7578  -47.7971 H         1 UNK         0.0600 
    148 H148        1.3753  -20.3401  -47.0097 H         1 UNK         0.0600 
    149 H149        1.8883  -20.3777  -44.4844 H         1 UNK         0.3000 
    150 H150        1.3879  -21.7138  -41.1348 H         1 UNK         0.0600 
    151 H151        3.7511  -21.3264  -41.6673 H         1 UNK         0.0600 
    152 H152        3.0784  -19.9215  -40.8535 H         1 UNK         0.0600 
    153 H153        3.3540  -19.8913  -42.5920 H         1 UNK         0.0600 
    154 H154        0.9780  -19.0449  -41.8685 H         1 UNK         0.3000 
    155 H155       -2.6234  -19.3621  -41.6588 H         1 UNK         0.0600 
    156 H156       -0.3181  -17.9993  -40.1716 H         1 UNK         0.0600 
    157 H157       -1.4421  -19.1675  -39.4913 H         1 UNK         0.0600 
    158 H158       -2.0271  -17.6029  -40.0344 H         1 UNK         0.0600 
    159 H159       -0.4803  -17.5961  -42.7904 H         1 UNK         0.3000 
    160 H160       -2.7694  -16.4203  -45.2448 H         1 UNK         0.0600 
    161 H161       -2.0688  -14.1664  -44.4735 H         1 UNK         0.0600 
    162 H162       -1.6372  -14.8318  -42.9023 H         1 UNK         0.0600 
    163 H163       -3.3096  -14.8537  -43.4371 H         1 UNK         0.0600 
    164 H164       -0.1053  -15.6403  -44.7724 H         1 UNK         0.3000 
    165 H165        1.4433  -18.1457  -46.8318 H         1 UNK         0.0600 
    166 H166        0.7726  -15.2011  -47.1689 H         1 UNK         0.0600 
    167 H167        2.0608  -16.0609  -48.0043 H         1 UNK         0.0600 
    168 H168        0.3832  -16.4818  -48.3221 H         1 UNK         0.0600 
    169 H169        2.0807  -15.7619  -45.1768 H         1 UNK         0.3000 
    170 H170        4.0473  -17.7186  -42.9131 H         1 UNK         0.0600 
    171 H171        5.5702  -17.1037  -44.8035 H         1 UNK         0.0600 
    172 H172        4.7935  -15.5289  -44.9250 H         1 UNK         0.0600 
    173 H173        5.6981  -15.9629  -43.4740 H         1 UNK         0.0600 
    174 H174        3.4360  -14.9649  -42.9220 H         1 UNK         0.3000 
    175 H175        0.1999  -14.9541  -41.5949 H         1 UNK         0.0600 
    176 H176        2.7694  -14.4489  -40.0107 H         1 UNK         0.0600 
    177 H177        1.1707  -13.8023  -39.6372 H         1 UNK         0.0600 
    178 H178        1.4677  -15.5289  -39.5248 H         1 UNK         0.0600 
    179 H179        1.9977  -12.8271  -41.7642 H         1 UNK         0.3000 
    180 H180        0.9700  -11.2437  -43.7060 H         1 UNK         0.0600 
    181 H181        3.8679  -12.2163  -43.9757 H         1 UNK         0.0600 
    182 H182        3.1606  -11.3634  -42.6102 H         1 UNK         0.0600 
    183 H183        3.3717  -10.5342  -44.1372 H         1 UNK         0.0600 
    184 H184        0.7691  -11.2460  -45.9002 H         1 UNK         0.3000 
    185 H185        1.6163  -11.0320  -48.0324 H         1 UNK         0.0600 
    186 H186        3.9160  -11.7977  -48.6662 H         1 UNK         0.0600 
    187 H187        3.2831  -13.3972  -49.0400 H         1 UNK         0.0600 
    188 H188        2.7692  -11.9992  -49.9822 H         1 UNK         0.0600 
    189 H189        0.8762  -13.5563  -49.1730 H         1 UNK         0.3000 
    190 H190       -1.4119  -22.9584  -43.1152 H         1 UNK         0.3000 
    191 H191       -2.9375  -25.3384  -42.5885 H         1 UNK         0.0600 
    192 H192       -0.5001  -24.1355  -41.1732 H         1 UNK         0.0600 
    193 H193       -1.5176  -25.4223  -40.5343 H         1 UNK         0.0600 
    194 H194       -2.1892  -23.8179  -40.7883 H         1 UNK         0.0600 
    195 H195        0.4983  -24.7618  -43.5002 H         1 UNK         0.3000 
    196 H196        1.2588  -27.5128  -43.3351 H         1 UNK         0.0600 
    197 H197        3.3923  -26.6893  -44.3089 H         1 UNK         0.0600 
    198 H198        2.8433  -25.6250  -43.0232 H         1 UNK         0.0600 
    199 H199        2.6403  -25.1503  -44.7088 H         1 UNK         0.0600 
    200 H200       -0.0531  -25.5950  -46.0057 H         1 UNK         0.3000 
    201 H201       -0.1086  -27.9681  -47.7580 H         1 UNK         0.0600 
    202 H202        2.0032  -26.8487  -48.3914 H         1 UNK         0.0600 
    203 H203        1.1976  -25.2942  -48.5356 H         1 UNK         0.0600 
    204 H204        0.8176  -26.6048  -49.6584 H         1 UNK         0.0600 
    205 H205       -0.7109  -24.9929  -49.2679 H         1 UNK         0.3000 
    206 H206       -3.4548  -24.6157  -48.3859 H         1 UNK         0.0600 
    207 H207       -3.7411  -26.5354  -49.9820 H         1 UNK         0.0600 
    208 H208       -4.4774  -25.0754  -50.6139 H         1 UNK         0.0600 
    209 H209       -2.9240  -25.6136  -51.2434 H         1 UNK         0.0600 
    210 H210       -1.0343  -23.0674  -48.3476 H         1 UNK         0.3000 
    211 H211       -0.2000  -21.0490  -48.7579 H         1 UNK         0.0600 
    212 H212       -2.4124  -20.4098  -47.7941 H         1 UNK         0.0600 
    213 H213       -3.0879  -20.2774  -49.4156 H         1 UNK         0.0600 
    214 H214       -1.8079  -19.1898  -48.8944 H         1 UNK         0.0600 
    215 H215        0.0887  -22.7833  -50.9275 H         1 UNK         0.3000 
    216 H216        0.8223  -22.9517  -52.9921 H         1 UNK         0.0600 
    217 H217        1.7053  -21.0380  -54.2454 H         1 UNK         0.0600 
    218 H218        2.1559  -20.8817  -52.5564 H         1 UNK         0.0600 
    219 H219        0.8503  -19.8999  -53.2182 H         1 UNK         0.0600 
    220 H220       -2.1737  -22.4583  -52.3115 H         1 UNK         0.3000 
    221 H221       -4.1253  -22.6794  -53.2627 H         1 UNK         0.0600 
    222 H222       -2.5872  -23.8518  -55.6488 H         1 UNK         0.0600 
    223 H223       -3.0814  -24.7306  -54.2079 H         1 UNK         0.0600 
    224 H224       -4.2991  -24.0962  -55.2944 H         1 UNK         0.0600 
    225 H225       -3.9671  -22.4250  -56.5147 H         1 UNK         0.3000 
    226 H226       -5.4949  -20.1324  -56.7041 H         1 UNK         0.0600 
    227 H227       -5.4423  -21.9293  -58.4019 H         1 UNK         0.0600 
    228 H228       -5.1152  -20.3842  -59.1674 H         1 UNK         0.0600 
    229 H229       -3.7912  -21.4997  -58.8525 H         1 UNK         0.0600 
    230 H230       -2.0276  -20.2003  -56.4631 H         1 UNK         0.3000 
    231 H231       -1.3812  -17.7008  -57.6865 H         1 UNK         0.0600 
    232 H232        0.3105  -19.4476  -57.1297 H         1 UNK         0.0600 
    233 H233       -0.0016  -19.2169  -55.4100 H         1 UNK         0.0600 
    234 H234        0.7140  -17.9205  -56.3585 H         1 UNK         0.0600 
    235 H235       -2.8427  -18.5014  -54.5766 H         1 UNK         0.3000 
    236 H236       -2.9187  -15.5896  -53.8575 H         1 UNK         0.0600 
    237 H237       -3.0221  -16.2927  -51.5033 H         1 UNK         0.0600 
    238 H238       -2.9071  -17.9913  -51.9542 H         1 UNK         0.0600 
    239 H239       -1.5429  -16.9078  -52.2261 H         1 UNK         0.0600 
    240 H240       -4.6577  -18.7362  -53.9247 H         1 UNK         0.3000 
    241 H241       -7.1229  -17.5364  -53.0075 H         1 UNK         0.0600 
    242 H242       -5.8475  -17.4764  -56.1950 H         1 UNK         0.3800 
    243 H243       -7.3890  -17.3405  -56.9942 H         1 UNK         0.3800 
    244 H244       -6.7178  -20.3751  -54.0359 H         1 UNK         0.0800 
    245 H245       -8.0443  -19.7976  -53.0622 H         1 UNK         0.0800 
    246 H246       -7.8541  -19.8923  -50.1773 H         1 UNK         0.0800 
    247 H247       -7.4226  -18.3395  -50.8500 H         1 UNK         0.0800 
@<TRIPOS>BOND
     1    1    2 1    
     2    1  127 1    
     3    1  128 1    
     4    1  129 1    
     5    2    3 2    
     6    2    4 am   BACKBONE|DICT|INTERRES
     7    4    5 1    
     8    4  130 1    
     9    5    6 1    
    10    5   65 1    
    11    5  131 1    
    12    6    7 1    
    13    6  132 1    
    14    6  133 1    
    15    7    8 1    
    16    8    9 1    
    17    8  134 1    
    18    8  135 1    
    19    9   10 ar   
    20    9   14 ar   
    21   10   11 ar   
    22   10  136 1    
    23   11   12 ar   
    24   11  126 1    
    25   12   13 ar   
    26   12  137 1    
    27   13   14 ar   
    28   13   15 1    
    29   14  138 1    
    30   15   16 1    
    31   15  139 1    
    32   15  140 1    
    33   16   17 1    
    34   17   18 1    
    35   17  141 1    
    36   17  142 1    
    37   18   19 1    
    38   18   67 1    
    39   18  143 1    
    40   19   20 am   BACKBONE|DICT|INTERRES
    41   19  144 1    
    42   20   21 2    
    43   20   22 1    
    44   22   23 1    
    45   22   24 1    
    46   22  145 1    
    47   23  146 1    
    48   23  147 1    
    49   23  148 1    
    50   24   25 am   BACKBONE|DICT|INTERRES
    51   24  149 1    
    52   25   26 2    
    53   25   27 1    
    54   27   28 1    
    55   27   29 1    
    56   27  150 1    
    57   28  151 1    
    58   28  152 1    
    59   28  153 1    
    60   29   30 am   BACKBONE|DICT|INTERRES
    61   29  154 1    
    62   30   31 2    
    63   30   32 1    
    64   32   33 1    
    65   32   34 1    
    66   32  155 1    
    67   33  156 1    
    68   33  157 1    
    69   33  158 1    
    70   34   35 am   BACKBONE|DICT|INTERRES
    71   34  159 1    
    72   35   36 2    
    73   35   37 1    
    74   37   38 1    
    75   37   39 1    
    76   37  160 1    
    77   38  161 1    
    78   38  162 1    
    79   38  163 1    
    80   39   40 am   BACKBONE|DICT|INTERRES
    81   39  164 1    
    82   40   41 2    
    83   40   42 1    
    84   42   43 1    
    85   42   44 1    
    86   42  165 1    
    87   43  166 1    
    88   43  167 1    
    89   43  168 1    
    90   44   45 am   BACKBONE|DICT|INTERRES
    91   44  169 1    
    92   45   46 2    
    93   45   47 1    
    94   47   48 1    
    95   47   49 1    
    96   47  170 1    
    97   48  171 1    
    98   48  172 1    
    99   48  173 1    
   100   49   50 am   BACKBONE|DICT|INTERRES
   101   49  174 1    
   102   50   51 2    
   103   50   52 1    
   104   52   53 1    
   105   52   54 1    
   106   52  175 1    
   107   53  176 1    
   108   53  177 1    
   109   53  178 1    
   110   54   55 am   BACKBONE|DICT|INTERRES
   111   54  179 1    
   112   55   56 2    
   113   55   57 1    
   114   57   58 1    
   115   57   59 1    
   116   57  180 1    
   117   58  181 1    
   118   58  182 1    
   119   58  183 1    
   120   59   60 am   BACKBONE|DICT|INTERRES
   121   59  184 1    
   122   60   61 2    
   123   60   62 1    
   124   62   63 1    
   125   62   64 1    
   126   62  185 1    
   127   63  186 1    
   128   63  187 1    
   129   63  188 1    
   130   64   65 am   BACKBONE|DICT|INTERRES
   131   64  189 1    
   132   65   66 2    
   133   67   68 2    
   134   67   69 am   BACKBONE|DICT|INTERRES
   135   69   70 1    
   136   69  190 1    
   137   70   71 1    
   138   70   72 1    
   139   70  191 1    
   140   71  192 1    
   141   71  193 1    
   142   71  194 1    
   143   72   73 2    
   144   72   74 am   BACKBONE|DICT|INTERRES
   145   74   75 1    
   146   74  195 1    
   147   75   76 1    
   148   75   77 1    
   149   75  196 1    
   150   76  197 1    
   151   76  198 1    
   152   76  199 1    
   153   77   78 2    
   154   77   79 am   BACKBONE|DICT|INTERRES
   155   79   80 1    
   156   79  200 1    
   157   80   81 1    
   158   80   82 1    
   159   80  201 1    
   160   81  202 1    
   161   81  203 1    
   162   81  204 1    
   163   82   83 2    
   164   82   84 am   BACKBONE|DICT|INTERRES
   165   84   85 1    
   166   84  205 1    
   167   85   86 1    
   168   85   87 1    
   169   85  206 1    
   170   86  207 1    
   171   86  208 1    
   172   86  209 1    
   173   87   88 2    
   174   87   89 am   BACKBONE|DICT|INTERRES
   175   89   90 1    
   176   89  210 1    
   177   90   91 1    
   178   90   92 1    
   179   90  211 1    
   180   91  212 1    
   181   91  213 1    
   182   91  214 1    
   183   92   93 2    
   184   92   94 am   BACKBONE|DICT|INTERRES
   185   94   95 1    
   186   94  215 1    
   187   95   96 1    
   188   95   97 1    
   189   95  216 1    
   190   96  217 1    
   191   96  218 1    
   192   96  219 1    
   193   97   98 2    
   194   97   99 am   BACKBONE|DICT|INTERRES
   195   99  100 1    
   196   99  220 1    
   197  100  101 1    
   198  100  102 1    
   199  100  221 1    
   200  101  222 1    
   201  101  223 1    
   202  101  224 1    
   203  102  103 2    
   204  102  104 am   BACKBONE|DICT|INTERRES
   205  104  105 1    
   206  104  225 1    
   207  105  106 1    
   208  105  107 1    
   209  105  226 1    
   210  106  227 1    
   211  106  228 1    
   212  106  229 1    
   213  107  108 2    
   214  107  109 am   BACKBONE|DICT|INTERRES
   215  109  110 1    
   216  109  230 1    
   217  110  111 1    
   218  110  112 1    
   219  110  231 1    
   220  111  232 1    
   221  111  233 1    
   222  111  234 1    
   223  112  113 2    
   224  112  114 am   BACKBONE|DICT|INTERRES
   225  114  115 1    
   226  114  235 1    
   227  115  116 1    
   228  115  117 1    
   229  115  236 1    
   230  116  237 1    
   231  116  238 1    
   232  116  239 1    
   233  117  118 2    
   234  117  119 am   BACKBONE|DICT|INTERRES
   235  119  120 1    
   236  119  240 1    
   237  120  121 1    
   238  120  124 1    
   239  120  241 1    
   240  121  122 am   BACKBONE|DICT|INTERRES
   241  121  123 2    
   242  122  242 1    
   243  122  243 1    
   244  124  125 1    
   245  124  244 1    
   246  124  245 1    
   247  125  126 1    
   248  126  246 1    
   249  126  247 1    
@<TRIPOS>SUBSTRUCTURE
     1 UNK         1 GROUP             0       ****    0 ROOT    
