@<TRIPOS>MOLECULE
3R540
247   249    1
SMALL
USER_CHARGES


@<TRIPOS>ATOM
      1 CA          1.7611  -12.6495  -40.2074 C.3       0 UNK        -0.1800 
      2 C           1.2137  -13.4280  -41.3946 C.2       0 UNK         0.5000 
      3 O           1.9559  -14.1866  -42.0173 O.2       0 UNK        -0.5000 
      4 N          -0.0790  -13.2459  -41.6998 N.am      1 UNK        -0.5000 
      5 CA         -0.8111  -13.8759  -42.8110 C.3       1 UNK         0.1400 
      6 C6         -0.8625  -15.4290  -42.7428 C.3       23 UNK        -0.0398 
      7 S7         -1.3953  -16.0581  -41.1116 S.3       23 UNK        -0.2404 
      8 C8         -3.1796  -16.3183  -41.3615 C.3       23 UNK        -0.0205 
      9 C9         -3.4615  -17.4933  -42.2844 C.ar      23 UNK        -0.0193 
     10 C10        -4.0403  -17.2852  -43.5386 C.ar      23 UNK        -0.1150 
     11 C11        -4.2816  -18.3624  -44.3965 C.ar      23 UNK        -0.0193 
     12 C12        -3.9601  -19.6579  -43.9816 C.ar      23 UNK        -0.1150 
     13 C13        -3.3701  -19.8780  -42.7330 C.ar      23 UNK        -0.0193 
     14 C14        -3.1363  -18.7921  -41.8853 C.ar      23 UNK        -0.1150 
     15 C15        -2.9703  -21.2774  -42.2890 C.3       23 UNK        -0.0205 
     16 S16        -1.1642  -21.5066  -42.3899 S.3       23 UNK        -0.2404 
     17 C17        -0.9799  -22.5516  -43.8720 C.3       23 UNK        -0.0398 
     18 CA         -1.2777  -21.8293  -45.2070 C.3       11 UNK         0.1400 
     19 N          -0.4898  -20.6135  -45.4312 N.am      11 UNK        -0.5000 
     20 C          -0.7065  -19.7592  -46.4449 C.2       10 UNK         0.5000 
     21 O          -1.6315  -19.8772  -47.2469 O.2       10 UNK        -0.5000 
     22 CA          0.3300  -18.6394  -46.6488 C.3       10 UNK         0.1400 
     23 CB          0.0366  -17.4276  -45.7525 C.3       10 UNK        -0.1800 
     24 N           1.6925  -19.1223  -46.4144 N.am      10 UNK        -0.5000 
     25 C           2.3177  -20.0109  -47.2016 C.2       9 UNK         0.5000 
     26 O           1.8484  -20.4409  -48.2533 O.2       9 UNK        -0.5000 
     27 CA          3.6645  -20.5626  -46.7047 C.3       9 UNK         0.1400 
     28 CB          4.8354  -19.6949  -47.1911 C.3       9 UNK        -0.1800 
     29 N           3.6922  -20.6934  -45.2469 N.am      9 UNK        -0.5000 
     30 C           3.0053  -21.6339  -44.5808 C.2       8 UNK         0.5000 
     31 O           2.3372  -22.5047  -45.1391 O.2       8 UNK        -0.5000 
     32 CA          3.0321  -21.5873  -43.0410 C.3       8 UNK         0.1400 
     33 CB          4.1338  -22.5081  -42.4967 C.3       8 UNK        -0.1800 
     34 N           3.2108  -20.2455  -42.4845 N.am      8 UNK        -0.5000 
     35 C           2.3537  -19.2263  -42.6352 C.2       7 UNK         0.5000 
     36 O           1.3186  -19.3101  -43.2954 O.2       7 UNK        -0.5000 
     37 CA          2.7226  -17.8823  -41.9640 C.3       7 UNK         0.1400 
     38 CB          4.0108  -17.9404  -41.1147 C.3       7 UNK        -0.1800 
     39 N           2.8239  -16.7563  -42.8987 N.am      7 UNK        -0.5000 
     40 C           3.4208  -16.7284  -44.0967 C.2       6 UNK         0.5000 
     41 O           3.9091  -17.7094  -44.6617 O.2       6 UNK        -0.5000 
     42 CA          3.5222  -15.3534  -44.7629 C.3       6 UNK         0.1400 
     43 CB          4.8131  -14.6350  -44.3293 C.3       6 UNK        -0.1800 
     44 N           3.4868  -15.5103  -46.2142 N.am      6 UNK        -0.5000 
     45 C           3.1196  -14.5376  -47.0532 C.2       5 UNK         0.5000 
     46 O           2.8971  -13.3817  -46.6817 O.2       5 UNK        -0.5000 
     47 CA          2.9623  -14.8863  -48.5456 C.3       5 UNK         0.1400 
     48 CB          2.1634  -16.1849  -48.7744 C.3       5 UNK        -0.1800 
     49 N           2.2672  -13.7587  -49.1512 N.am      5 UNK        -0.5000 
     50 C           2.1522  -13.4259  -50.4384 C.2       4 UNK         0.5000 
     51 O           2.6619  -14.0616  -51.3627 O.2       4 UNK        -0.5000 
     52 CA          1.3276  -12.1449  -50.7104 C.3       4 UNK         0.1400 
     53 CB          0.8163  -12.0448  -52.1631 C.3       4 UNK        -0.1800 
     54 N           0.2362  -11.9645  -49.7379 N.am      4 UNK        -0.5000 
     55 C          -0.8171  -12.7749  -49.5479 C.2       3 UNK         0.5000 
     56 O          -1.0844  -13.7199  -50.2894 O.2       3 UNK        -0.5000 
     57 CA         -1.6952  -12.4898  -48.3073 C.3       3 UNK         0.1400 
     58 CB         -2.7463  -13.5867  -48.0574 C.3       3 UNK        -0.1800 
     59 N          -0.8999  -12.3319  -47.0853 N.am      3 UNK        -0.5000 
     60 C          -0.2744  -11.2196  -46.6874 C.2       2 UNK         0.5000 
     61 O          -0.2755  -10.1880  -47.3619 O.2       2 UNK        -0.5000 
     62 CA          0.4915  -11.2616  -45.3411 C.3       2 UNK         0.1400 
     63 CB          0.8138   -9.8524  -44.8105 C.3       2 UNK        -0.1800 
     64 N          -0.1539  -12.0181  -44.2620 N.am      2 UNK        -0.5000 
     65 C          -0.2983  -13.3485  -44.1713 C.2       1 UNK         0.5000 
     66 O          -0.0236  -14.1278  -45.0838 O.2       1 UNK        -0.5000 
     67 C          -1.1671  -22.8066  -46.3914 C.2       11 UNK         0.5000 
     68 O          -2.1973  -23.2335  -46.9107 O.2       11 UNK        -0.5000 
     69 N           0.0630  -23.1028  -46.8372 N.am      12 UNK        -0.5000 
     70 CA          0.3429  -23.9546  -47.9980 C.3       12 UNK         0.1400 
     71 CB          1.8601  -24.1274  -48.1578 C.3       12 UNK        -0.1800 
     72 C          -0.2887  -23.4258  -49.3000 C.2       12 UNK         0.5000 
     73 O          -0.8746  -24.2042  -50.0519 O.2       12 UNK        -0.5000 
     74 N          -0.2263  -22.1021  -49.4966 N.am      13 UNK        -0.5000 
     75 CA         -0.8343  -21.3680  -50.6077 C.3       13 UNK         0.1400 
     76 CB         -0.2820  -19.9349  -50.6171 C.3       13 UNK        -0.1800 
     77 C          -2.3779  -21.3596  -50.6213 C.2       13 UNK         0.5000 
     78 O          -2.9511  -20.8495  -51.5849 O.2       13 UNK        -0.5000 
     79 N          -3.0267  -21.9095  -49.5879 N.am      14 UNK        -0.5000 
     80 CA         -4.4636  -22.1715  -49.5432 C.3       14 UNK         0.1400 
     81 CB         -5.0677  -21.4680  -48.3174 C.3       14 UNK        -0.1800 
     82 C          -4.7469  -23.6839  -49.4913 C.2       14 UNK         0.5000 
     83 O          -5.6561  -24.1562  -50.1735 O.2       14 UNK        -0.5000 
     84 N          -3.9843  -24.4196  -48.6709 N.am      15 UNK        -0.5000 
     85 CA         -4.2016  -25.8346  -48.3705 C.3       15 UNK         0.1400 
     86 CB         -3.3711  -26.2211  -47.1372 C.3       15 UNK        -0.1800 
     87 C          -3.8958  -26.7924  -49.5341 C.2       15 UNK         0.5000 
     88 O          -4.5352  -27.8425  -49.6220 O.2       15 UNK        -0.5000 
     89 N          -2.9356  -26.4421  -50.4015 N.am      16 UNK        -0.5000 
     90 CA         -2.4795  -27.2713  -51.5221 C.3       16 UNK         0.1400 
     91 CB         -1.0507  -26.8505  -51.9096 C.3       16 UNK        -0.1800 
     92 C          -3.4591  -27.2572  -52.7174 C.2       16 UNK         0.5000 
     93 O          -3.0850  -26.8528  -53.8188 O.2       16 UNK        -0.5000 
     94 N          -4.6981  -27.7071  -52.4697 N.am      17 UNK        -0.5000 
     95 CA         -5.8264  -27.7963  -53.4036 C.3       17 UNK         0.1400 
     96 CB         -5.5505  -28.8507  -54.4960 C.3       17 UNK        -0.1800 
     97 C          -6.2059  -26.4157  -53.9740 C.2       17 UNK         0.5000 
     98 O          -6.1498  -26.2009  -55.1863 O.2       17 UNK        -0.5000 
     99 N          -6.5277  -25.4861  -53.0636 N.am      18 UNK        -0.5000 
    100 CA        -6.8362  -24.0633  -53.2645 C.3       18 UNK         0.1400 
    101 CB        -7.9842  -23.8433  -54.2685 C.3       18 UNK        -0.1800 
    102 C         -5.6055  -23.2073  -53.6154 C.2       18 UNK         0.5000 
    103 O         -5.4818  -22.1076  -53.0792 O.2       18 UNK        -0.5000 
    104 N         -4.7180  -23.7297  -54.4738 N.am      19 UNK        -0.5000 
    105 CA        -3.4292  -23.1765  -54.8965 C.3       19 UNK         0.1400 
    106 CB        -2.3676  -23.3992  -53.7994 C.3       19 UNK        -0.1800 
    107 C         -3.5218  -21.7190  -55.3926 C.2       19 UNK         0.5000 
    108 O         -3.9293  -21.5021  -56.5350 O.2       19 UNK        -0.5000 
    109 N         -3.1434  -20.7595  -54.5400 N.am      20 UNK        -0.5000 
    110 CA        -3.1352  -19.3254  -54.8251 C.3       20 UNK         0.1400 
    111 CB        -1.7118  -18.7916  -54.5910 C.3       20 UNK        -0.1800 
    112 C         -4.1682  -18.5658  -53.9705 C.2       20 UNK         0.5000 
    113 O         -4.1030  -17.3371  -53.9046 O.2       20 UNK        -0.5000 
    114 N         -5.0860  -19.2935  -53.3143 N.am      21 UNK        -0.5000 
    115 CA        -6.1394  -18.8008  -52.4225 C.3       21 UNK         0.1400 
    116 CB        -7.2226  -18.0525  -53.2265 C.3       21 UNK        -0.1800 
    117 C         -5.5729  -17.9787  -51.2470 C.2       21 UNK         0.5000 
    118 O         -6.0575  -16.8816  -50.9661 O.2       21 UNK        -0.5000 
    119 N         -4.5323  -18.5303  -50.6093 N.am      22 UNK        -0.5000 
    120 CA        -3.7082  -17.9270  -49.5462 C.3       22 UNK         0.1400 
    121 C         -2.5319  -17.0527  -50.0741 C.2       22 UNK         0.5000 
    122 N         -2.4979  -16.6583  -51.3417 N.am      22 UNK        -0.7600 
    123 O         -1.5971  -16.7689  -49.3337 O.2       22 UNK        -0.5000 
    124 C124       -4.5409  -17.2125  -48.4390 C.3       23 UNK        -0.0398 
    125 S125       -3.7202  -17.1696  -46.8132 S.3       23 UNK        -0.2404 
    126 C126       -4.8716  -18.1216  -45.7772 C.3       23 UNK        -0.0205 
    127 H127        2.1410  -13.3377  -39.4524 H         1 UNK         0.0600 
    128 H128        0.9977  -12.0237  -39.7447 H         1 UNK         0.0600 
    129 H129        2.5808  -12.0066  -40.5279 H         1 UNK         0.0600 
    130 H130       -0.6273  -12.6212  -41.1255 H         1 UNK         0.3000 
    131 H131       -1.8397  -13.5220  -42.7281 H         1 UNK         0.0600 
    132 H132       -1.5242  -15.8201  -43.5167 H         1 UNK         0.0800 
    133 H133        0.1179  -15.8560  -42.9545 H         1 UNK         0.0800 
    134 H134       -3.6297  -15.4005  -41.7429 H         1 UNK         0.0800 
    135 H135       -3.6460  -16.5093  -40.3940 H         1 UNK         0.0800 
    136 H136       -4.2864  -16.2831  -43.8606 H         1 UNK         0.1150 
    137 H137       -4.1621  -20.4903  -44.6390 H         1 UNK         0.1150 
    138 H138       -2.6770  -18.9553  -40.9204 H         1 UNK         0.1150 
    139 H139       -3.2851  -21.4280  -41.2554 H         1 UNK         0.0800 
    140 H140       -3.4882  -22.0364  -42.8769 H         1 UNK         0.0800 
    141 H141       -1.6328  -23.4186  -43.7550 H         1 UNK         0.0800 
    142 H142        0.0369  -22.9450  -43.8707 H         1 UNK         0.0800 
    143 H143       -2.3202  -21.5213  -45.1798 H         1 UNK         0.0600 
    144 H144        0.2499  -20.4100  -44.7684 H         1 UNK         0.3000 
    145 H145        0.2652  -18.3091  -47.6870 H         1 UNK         0.0600 
    146 H146        0.8169  -16.6723  -45.8334 H         1 UNK         0.0600 
    147 H147       -0.8981  -16.9508  -46.0457 H         1 UNK         0.0600 
    148 H148       -0.0596  -17.7044  -44.7038 H         1 UNK         0.0600 
    149 H149        2.1306  -18.8561  -45.5412 H         1 UNK         0.3000 
    150 H150        3.7945  -21.5574  -47.1358 H         1 UNK         0.0600 
    151 H151        4.8795  -19.6860  -48.2808 H         1 UNK         0.0600 
    152 H152        5.7892  -20.0803  -46.8308 H         1 UNK         0.0600 
    153 H153        4.7462  -18.6599  -46.8652 H         1 UNK         0.0600 
    154 H154        4.1567  -19.9566  -44.7307 H         1 UNK         0.3000 
    155 H155        2.0698  -21.9633  -42.6881 H         1 UNK         0.0600 
    156 H156        5.1265  -22.1651  -42.7909 H         1 UNK         0.0600 
    157 H157        4.0132  -23.5254  -42.8719 H         1 UNK         0.0600 
    158 H158        4.1037  -22.5596  -41.4081 H         1 UNK         0.0600 
    159 H159        4.0506  -20.0891  -41.9469 H         1 UNK         0.3000 
    160 H160        1.8939  -17.6472  -41.2945 H         1 UNK         0.0600 
    161 H161        4.8925  -18.1400  -41.7253 H         1 UNK         0.0600 
    162 H162        3.9481  -18.7099  -40.3442 H         1 UNK         0.0600 
    163 H163        4.1775  -16.9933  -40.6011 H         1 UNK         0.0600 
    164 H164        2.4586  -15.8730  -42.5454 H         1 UNK         0.3000 
    165 H165        2.6573  -14.7622  -44.4563 H         1 UNK         0.0600 
    166 H166        4.8727  -13.6317  -44.7507 H         1 UNK         0.0600 
    167 H167        4.8540  -14.5306  -43.2443 H         1 UNK         0.0600 
    168 H168        5.7013  -15.1848  -44.6425 H         1 UNK         0.0600 
    169 H169        3.6580  -16.4505  -46.5442 H         1 UNK         0.3000 
    170 H170        3.9570  -14.9762  -48.9854 H         1 UNK         0.0600 
    171 H171        2.6721  -17.0504  -48.3504 H         1 UNK         0.0600 
    172 H172        1.1719  -16.1235  -48.3240 H         1 UNK         0.0600 
    173 H173        2.0274  -16.3864  -49.8369 H         1 UNK         0.0600 
    174 H174        1.8748  -13.1347  -48.4570 H         1 UNK         0.3000 
    175 H175        2.0117  -11.3105  -50.5505 H         1 UNK         0.0600 
    176 H176        0.2308  -11.1379  -52.3138 H         1 UNK         0.0600 
    177 H177        1.6490  -12.0135  -52.8665 H         1 UNK         0.0600 
    178 H178        0.1937  -12.8968  -52.4367 H         1 UNK         0.0600 
    179 H179        0.3435  -11.1956  -49.0851 H         1 UNK         0.3000 
    180 H180       -2.2309  -11.5592  -48.5049 H         1 UNK         0.0600 
    181 H181       -2.2751  -14.5453  -47.8366 H         1 UNK         0.0600 
    182 H182       -3.3876  -13.7285  -48.9282 H         1 UNK         0.0600 
    183 H183       -3.3925  -13.3322  -47.2173 H         1 UNK         0.0600 
    184 H184       -0.7762  -13.1608  -46.5094 H         1 UNK         0.3000 
    185 H185        1.4450  -11.7443  -45.5437 H         1 UNK         0.0600 
    186 H186        1.3920   -9.2787  -45.5361 H         1 UNK         0.0600 
    187 H187       -0.0942   -9.2890  -44.5923 H         1 UNK         0.0600 
    188 H188        1.4081   -9.9001  -43.8977 H         1 UNK         0.0600 
    189 H189       -0.4309  -11.4690  -43.4617 H         1 UNK         0.3000 
    190 H190        0.8689  -22.7383  -46.3356 H         1 UNK         0.3000 
    191 H191       -0.0904  -24.9361  -47.7967 H         1 UNK         0.0600 
    192 H192        2.3550  -23.1765  -48.3556 H         1 UNK         0.0600 
    193 H193        2.0908  -24.7965  -48.9877 H         1 UNK         0.0600 
    194 H194        2.3054  -24.5560  -47.2598 H         1 UNK         0.0600 
    195 H195        0.3073  -21.5410  -48.8391 H         1 UNK         0.3000 
    196 H196       -0.5207  -21.8542  -51.5334 H         1 UNK         0.0600 
    197 H197       -0.7107  -19.3443  -51.4254 H         1 UNK         0.0600 
    198 H198        0.7995  -19.9287  -50.7524 H         1 UNK         0.0600 
    199 H199       -0.5054  -19.4163  -49.6856 H         1 UNK         0.0600 
    200 H200       -2.4804  -22.2637  -48.8130 H         1 UNK         0.3000 
    201 H201       -4.9571  -21.7790  -50.4341 H         1 UNK         0.0600 
    202 H202       -4.9476  -20.3881  -48.3862 H         1 UNK         0.0600 
    203 H203       -4.5967  -21.7944  -47.3893 H         1 UNK         0.0600 
    204 H204       -6.1361  -21.6709  -48.2360 H         1 UNK         0.0600 
    205 H205       -3.2811  -23.9547  -48.0998 H         1 UNK         0.3000 
    206 H206       -5.2562  -25.9607  -48.1168 H         1 UNK         0.0600 
    207 H207       -3.6431  -25.6152  -46.2727 H         1 UNK         0.0600 
    208 H208       -3.5333  -27.2649  -46.8653 H         1 UNK         0.0600 
    209 H209       -2.3033  -26.0895  -47.3159 H         1 UNK         0.0600 
    210 H210       -2.4492  -25.5615  -50.2670 H         1 UNK         0.3000 
    211 H211       -2.4215  -28.3071  -51.1811 H         1 UNK         0.0600 
    212 H212       -0.6648  -27.4676  -52.7219 H         1 UNK         0.0600 
    213 H213       -1.0092  -25.8119  -52.2356 H         1 UNK         0.0600 
    214 H214       -0.3675  -26.9599  -51.0672 H         1 UNK         0.0600 
    215 H215       -4.8936  -27.9770  -51.5092 H         1 UNK         0.3000 
    216 H216       -6.6847  -28.1412  -52.8250 H         1 UNK         0.0600 
    217 H217       -6.4214  -28.9802  -55.1396 H         1 UNK         0.0600 
    218 H218       -5.3243  -29.8223  -54.0568 H         1 UNK         0.0600 
    219 H219       -4.7128  -28.5690  -55.1347 H         1 UNK         0.0600 
    220 H220       -6.4670  -25.7537  -52.0901 H         1 UNK         0.3000 
    221 H221       -7.1933  -23.7070  -52.2974 H         1 UNK         0.0600 
    222 H222       -7.6979  -24.1057  -55.2870 H         1 UNK         0.0600 
    223 H223       -8.8611  -24.4329  -54.0015 H         1 UNK         0.0600 
    224 H224       -8.2878  -22.7958  -54.2807 H         1 UNK         0.0600 
    225 H225       -4.9595  -24.6294  -54.8768 H         1 UNK         0.3000 
    226 H226       -3.1164  -23.7607  -55.7632 H         1 UNK         0.0600 
    227 H227       -2.0717  -24.4452  -53.7695 H         1 UNK         0.0600 
    228 H228       -1.4594  -22.8237  -53.9834 H         1 UNK         0.0600 
    229 H229       -2.7410  -23.1441  -52.8101 H         1 UNK         0.0600 
    230 H230       -2.9278  -21.0138  -53.5798 H         1 UNK         0.3000 
    231 H231       -3.3973  -19.1396  -55.8683 H         1 UNK         0.0600 
    232 H232       -0.9825  -19.3347  -55.1922 H         1 UNK         0.0600 
    233 H233       -1.4199  -18.8825  -53.5458 H         1 UNK         0.0600 
    234 H234       -1.6347  -17.7384  -54.8632 H         1 UNK         0.0600 
    235 H235       -5.0337  -20.3082  -53.3837 H         1 UNK         0.3000 
    236 H236       -6.6059  -19.6833  -51.9821 H         1 UNK         0.0600 
    237 H237       -6.8359  -17.1364  -53.6740 H         1 UNK         0.0600 
    238 H238       -7.6179  -18.6764  -54.0281 H         1 UNK         0.0600 
    239 H239       -8.0618  -17.7758  -52.5874 H         1 UNK         0.0600 
    240 H240       -4.1641  -19.4012  -50.9817 H         1 UNK         0.3000 
    241 H241       -3.2263  -18.7870  -49.0817 H         1 UNK         0.0600 
    242 H242       -3.2380  -16.8817  -51.9939 H         1 UNK         0.3800 
    243 H243       -1.7309  -16.0721  -51.6308 H         1 UNK         0.3800 
    244 H244       -5.5029  -17.7114  -48.3174 H         1 UNK         0.0800 
    245 H245       -4.7743  -16.1879  -48.7325 H         1 UNK         0.0800 
    246 H246       -5.8137  -17.5801  -45.6834 H         1 UNK         0.0800 
    247 H247       -5.0972  -19.0692  -46.2680 H         1 UNK         0.0800 
@<TRIPOS>BOND
     1    1    2 1    
     2    1  127 1    
     3    1  128 1    
     4    1  129 1    
     5    2    3 2    
     6    2    4 am   BACKBONE|DICT|INTERRES
     7    4    5 1    
     8    4  130 1    
     9    5    6 1    
    10    5   65 1    
    11    5  131 1    
    12    6    7 1    
    13    6  132 1    
    14    6  133 1    
    15    7    8 1    
    16    8    9 1    
    17    8  134 1    
    18    8  135 1    
    19    9   10 ar   
    20    9   14 ar   
    21   10   11 ar   
    22   10  136 1    
    23   11   12 ar   
    24   11  126 1    
    25   12   13 ar   
    26   12  137 1    
    27   13   14 ar   
    28   13   15 1    
    29   14  138 1    
    30   15   16 1    
    31   15  139 1    
    32   15  140 1    
    33   16   17 1    
    34   17   18 1    
    35   17  141 1    
    36   17  142 1    
    37   18   19 1    
    38   18   67 1    
    39   18  143 1    
    40   19   20 am   BACKBONE|DICT|INTERRES
    41   19  144 1    
    42   20   21 2    
    43   20   22 1    
    44   22   23 1    
    45   22   24 1    
    46   22  145 1    
    47   23  146 1    
    48   23  147 1    
    49   23  148 1    
    50   24   25 am   BACKBONE|DICT|INTERRES
    51   24  149 1    
    52   25   26 2    
    53   25   27 1    
    54   27   28 1    
    55   27   29 1    
    56   27  150 1    
    57   28  151 1    
    58   28  152 1    
    59   28  153 1    
    60   29   30 am   BACKBONE|DICT|INTERRES
    61   29  154 1    
    62   30   31 2    
    63   30   32 1    
    64   32   33 1    
    65   32   34 1    
    66   32  155 1    
    67   33  156 1    
    68   33  157 1    
    69   33  158 1    
    70   34   35 am   BACKBONE|DICT|INTERRES
    71   34  159 1    
    72   35   36 2    
    73   35   37 1    
    74   37   38 1    
    75   37   39 1    
    76   37  160 1    
    77   38  161 1    
    78   38  162 1    
    79   38  163 1    
    80   39   40 am   BACKBONE|DICT|INTERRES
    81   39  164 1    
    82   40   41 2    
    83   40   42 1    
    84   42   43 1    
    85   42   44 1    
    86   42  165 1    
    87   43  166 1    
    88   43  167 1    
    89   43  168 1    
    90   44   45 am   BACKBONE|DICT|INTERRES
    91   44  169 1    
    92   45   46 2    
    93   45   47 1    
    94   47   48 1    
    95   47   49 1    
    96   47  170 1    
    97   48  171 1    
    98   48  172 1    
    99   48  173 1    
   100   49   50 am   BACKBONE|DICT|INTERRES
   101   49  174 1    
   102   50   51 2    
   103   50   52 1    
   104   52   53 1    
   105   52   54 1    
   106   52  175 1    
   107   53  176 1    
   108   53  177 1    
   109   53  178 1    
   110   54   55 am   BACKBONE|DICT|INTERRES
   111   54  179 1    
   112   55   56 2    
   113   55   57 1    
   114   57   58 1    
   115   57   59 1    
   116   57  180 1    
   117   58  181 1    
   118   58  182 1    
   119   58  183 1    
   120   59   60 am   BACKBONE|DICT|INTERRES
   121   59  184 1    
   122   60   61 2    
   123   60   62 1    
   124   62   63 1    
   125   62   64 1    
   126   62  185 1    
   127   63  186 1    
   128   63  187 1    
   129   63  188 1    
   130   64   65 am   BACKBONE|DICT|INTERRES
   131   64  189 1    
   132   65   66 2    
   133   67   68 2    
   134   67   69 am   BACKBONE|DICT|INTERRES
   135   69   70 1    
   136   69  190 1    
   137   70   71 1    
   138   70   72 1    
   139   70  191 1    
   140   71  192 1    
   141   71  193 1    
   142   71  194 1    
   143   72   73 2    
   144   72   74 am   BACKBONE|DICT|INTERRES
   145   74   75 1    
   146   74  195 1    
   147   75   76 1    
   148   75   77 1    
   149   75  196 1    
   150   76  197 1    
   151   76  198 1    
   152   76  199 1    
   153   77   78 2    
   154   77   79 am   BACKBONE|DICT|INTERRES
   155   79   80 1    
   156   79  200 1    
   157   80   81 1    
   158   80   82 1    
   159   80  201 1    
   160   81  202 1    
   161   81  203 1    
   162   81  204 1    
   163   82   83 2    
   164   82   84 am   BACKBONE|DICT|INTERRES
   165   84   85 1    
   166   84  205 1    
   167   85   86 1    
   168   85   87 1    
   169   85  206 1    
   170   86  207 1    
   171   86  208 1    
   172   86  209 1    
   173   87   88 2    
   174   87   89 am   BACKBONE|DICT|INTERRES
   175   89   90 1    
   176   89  210 1    
   177   90   91 1    
   178   90   92 1    
   179   90  211 1    
   180   91  212 1    
   181   91  213 1    
   182   91  214 1    
   183   92   93 2    
   184   92   94 am   BACKBONE|DICT|INTERRES
   185   94   95 1    
   186   94  215 1    
   187   95   96 1    
   188   95   97 1    
   189   95  216 1    
   190   96  217 1    
   191   96  218 1    
   192   96  219 1    
   193   97   98 2    
   194   97   99 am   BACKBONE|DICT|INTERRES
   195   99  100 1    
   196   99  220 1    
   197  100  101 1    
   198  100  102 1    
   199  100  221 1    
   200  101  222 1    
   201  101  223 1    
   202  101  224 1    
   203  102  103 2    
   204  102  104 am   BACKBONE|DICT|INTERRES
   205  104  105 1    
   206  104  225 1    
   207  105  106 1    
   208  105  107 1    
   209  105  226 1    
   210  106  227 1    
   211  106  228 1    
   212  106  229 1    
   213  107  108 2    
   214  107  109 am   BACKBONE|DICT|INTERRES
   215  109  110 1    
   216  109  230 1    
   217  110  111 1    
   218  110  112 1    
   219  110  231 1    
   220  111  232 1    
   221  111  233 1    
   222  111  234 1    
   223  112  113 2    
   224  112  114 am   BACKBONE|DICT|INTERRES
   225  114  115 1    
   226  114  235 1    
   227  115  116 1    
   228  115  117 1    
   229  115  236 1    
   230  116  237 1    
   231  116  238 1    
   232  116  239 1    
   233  117  118 2    
   234  117  119 am   BACKBONE|DICT|INTERRES
   235  119  120 1    
   236  119  240 1    
   237  120  121 1    
   238  120  124 1    
   239  120  241 1    
   240  121  122 am   BACKBONE|DICT|INTERRES
   241  121  123 2    
   242  122  242 1    
   243  122  243 1    
   244  124  125 1    
   245  124  244 1    
   246  124  245 1    
   247  125  126 1    
   248  126  246 1    
   249  126  247 1    
@<TRIPOS>SUBSTRUCTURE
     1 UNK         1 GROUP             0       ****    0 ROOT    
