@<TRIPOS>MOLECULE
3R540
247   249    1
SMALL
USER_CHARGES


@<TRIPOS>ATOM
      1 CA          2.4733  -10.8971  -46.7465 C.3       0 UNK        -0.1800 
      2 C           1.2509  -11.2474  -47.5894 C.2       0 UNK         0.5000 
      3 O           0.6411  -10.3528  -48.1705 O.2       0 UNK        -0.5000 
      4 N           0.8489  -12.5218  -47.6863 N.am      1 UNK        -0.5000 
      5 CA          1.4543  -13.6943  -47.0368 C.3       1 UNK         0.1400 
      6 C6          1.2005  -14.9821  -47.8566 C.3       23 UNK        -0.0398 
      7 S7          2.0811  -14.9676  -49.4545 S.3       23 UNK        -0.2404 
      8 C8          0.7170  -14.7623  -50.6528 C.3       23 UNK        -0.0205 
      9 C9         -0.3102  -15.8927  -50.6385 C.ar      23 UNK        -0.0193 
     10 C10        -1.6686  -15.5931  -50.7843 C.ar      23 UNK        -0.1150 
     11 C11        -2.6299  -16.6094  -50.7893 C.ar      23 UNK        -0.0193 
     12 C12        -2.2242  -17.9360  -50.6288 C.ar      23 UNK        -0.1150 
     13 C13        -0.8709  -18.2512  -50.4904 C.ar      23 UNK        -0.0193 
     14 C14         0.0810  -17.2294  -50.5056 C.ar      23 UNK        -0.1150 
     15 C15        -0.4416  -19.6922  -50.2914 C.3       23 UNK        -0.0205 
     16 S16        -0.7388  -20.1772  -48.5714 S.3       23 UNK        -0.2404 
     17 C17         0.0364  -21.8195  -48.5076 C.3       23 UNK        -0.0398 
     18 CA         -0.5120  -22.7246  -47.3799 C.3       11 UNK         0.1400 
     19 N          -0.1918  -22.2450  -46.0304 N.am      11 UNK        -0.5000 
     20 C          -0.2335  -23.0289  -44.9419 C.2       10 UNK         0.5000 
     21 O          -0.5766  -24.2113  -44.9724 O.2       10 UNK        -0.5000 
     22 CA          0.1142  -22.3831  -43.5901 C.3       10 UNK         0.1400 
     23 CB          1.6164  -22.0805  -43.4808 C.3       10 UNK        -0.1800 
     24 N          -0.6623  -21.1696  -43.3489 N.am      10 UNK        -0.5000 
     25 C          -1.9896  -21.1491  -43.1618 C.2       9 UNK         0.5000 
     26 O          -2.6917  -22.1601  -43.1265 O.2       9 UNK        -0.5000 
     27 CA         -2.6471  -19.7653  -43.0184 C.3       9 UNK         0.1400 
     28 CB         -2.6413  -19.3042  -41.5530 C.3       9 UNK        -0.1800 
     29 N          -1.9960  -18.7548  -43.8525 N.am      9 UNK        -0.5000 
     30 C          -2.0962  -18.7066  -45.1889 C.2       8 UNK         0.5000 
     31 O          -2.7709  -19.4936  -45.8491 O.2       8 UNK        -0.5000 
     32 CA         -1.2805  -17.6121  -45.9027 C.3       8 UNK         0.1400 
     33 CB         -2.0349  -16.2749  -45.8500 C.3       8 UNK        -0.1800 
     34 N           0.0597  -17.4467  -45.3351 N.am      8 UNK        -0.5000 
     35 C           0.9995  -18.4044  -45.2828 C.2       7 UNK         0.5000 
     36 O           0.8723  -19.5265  -45.7700 O.2       7 UNK        -0.5000 
     37 CA          2.2665  -18.0786  -44.4746 C.3       7 UNK         0.1400 
     38 CB          3.3808  -17.5164  -45.3696 C.3       7 UNK        -0.1800 
     39 N           1.9943  -17.1488  -43.3787 N.am      7 UNK        -0.5000 
     40 C           1.2936  -17.4600  -42.2788 C.2       6 UNK         0.5000 
     41 O           0.7937  -18.5714  -42.0965 O.2       6 UNK        -0.5000 
     42 CA          1.0782  -16.3366  -41.2400 C.3       6 UNK         0.1400 
     43 CB          0.9664  -16.8763  -39.7995 C.3       6 UNK        -0.1800 
     44 N           2.0660  -15.2526  -41.3246 N.am      6 UNK        -0.5000 
     45 C           3.3894  -15.3459  -41.1330 C.2       5 UNK         0.5000 
     46 O           3.9732  -16.3860  -40.8246 O.2       5 UNK        -0.5000 
     47 CA          4.2015  -14.0809  -41.4353 C.3       5 UNK         0.1400 
     48 CB          5.5004  -14.0042  -40.6081 C.3       5 UNK        -0.1800 
     49 N           4.5166  -14.1223  -42.8617 N.am      5 UNK        -0.5000 
     50 C           4.6776  -13.0995  -43.7093 C.2       4 UNK         0.5000 
     51 O           4.8568  -13.2904  -44.9113 O.2       4 UNK        -0.5000 
     52 CA          4.5762  -11.6551  -43.1881 C.3       4 UNK         0.1400 
     53 CB          5.3471  -10.6491  -44.0649 C.3       4 UNK        -0.1800 
     54 N           3.1669  -11.2905  -43.1557 N.am      4 UNK        -0.5000 
     55 C           2.5998  -10.4516  -42.2839 C.2       3 UNK         0.5000 
     56 O           3.2128   -9.8990  -41.3699 O.2       3 UNK        -0.5000 
     57 CA          1.0954  -10.1683  -42.4658 C.3       3 UNK         0.1400 
     58 CB          0.8901   -8.7852  -43.1034 C.3       3 UNK        -0.1800 
     59 N           0.3864  -11.1633  -43.2769 N.am      3 UNK        -0.5000 
     60 C           0.1076  -12.4142  -42.8869 C.2       2 UNK         0.5000 
     61 O           0.5035  -12.9106  -41.8326 O.2       2 UNK        -0.5000 
     62 CA         -0.7173  -13.2620  -43.8690 C.3       2 UNK         0.1400 
     63 CB         -2.1819  -12.7995  -43.9056 C.3       2 UNK        -0.1800 
     64 N          -0.1548  -13.2220  -45.2194 N.am      2 UNK        -0.5000 
     65 C           0.9579  -13.8736  -45.5847 C.2       1 UNK         0.5000 
     66 O           1.5845  -14.6027  -44.8157 O.2       1 UNK        -0.5000 
     67 C          -2.0074  -23.0555  -47.5634 C.2       11 UNK         0.5000 
     68 O          -2.3210  -23.9176  -48.3836 O.2       11 UNK        -0.5000 
     69 N          -2.9038  -22.4184  -46.7928 N.am      12 UNK        -0.5000 
     70 CA         -4.3311  -22.7533  -46.7384 C.3       12 UNK         0.1400 
     71 CB         -5.0855  -21.7524  -45.8525 C.3       12 UNK        -0.1800 
     72 C          -4.5898  -24.1970  -46.2707 C.2       12 UNK         0.5000 
     73 O          -5.5033  -24.8430  -46.7835 O.2       12 UNK        -0.5000 
     74 N          -3.7610  -24.6840  -45.3388 N.am      13 UNK        -0.5000 
     75 CA         -3.7783  -26.0655  -44.8709 C.3       13 UNK         0.1400 
     76 CB         -3.2478  -26.1183  -43.4291 C.3       13 UNK        -0.1800 
     77 C          -2.9584  -26.9859  -45.7919 C.2       13 UNK         0.5000 
     78 O          -3.4494  -28.0441  -46.1860 O.2       13 UNK        -0.5000 
     79 N          -1.7172  -26.5826  -46.0962 N.am      14 UNK        -0.5000 
     80 CA         -0.7184  -27.4317  -46.7475 C.3       14 UNK         0.1400 
     81 CB          0.6816  -26.8695  -46.4552 C.3       14 UNK        -0.1800 
     82 C          -0.9086  -27.6104  -48.2643 C.2       14 UNK         0.5000 
     83 O          -0.5433  -28.6648  -48.7864 O.2       14 UNK        -0.5000 
     84 N          -1.4314  -26.5862  -48.9502 N.am      15 UNK        -0.5000 
     85 CA         -1.4835  -26.5150  -50.4142 C.3       15 UNK         0.1400 
     86 CB         -0.3317  -25.6157  -50.9014 C.3       15 UNK        -0.1800 
     87 C          -2.8408  -26.0164  -50.9395 C.2       15 UNK         0.5000 
     88 O          -2.9378  -25.6770  -52.1203 O.2       15 UNK        -0.5000 
     89 N          -3.8540  -25.9395  -50.0634 N.am      16 UNK        -0.5000 
     90 CA         -5.2020  -25.4204  -50.3259 C.3       16 UNK         0.1400 
     91 CB         -5.9804  -26.3854  -51.2449 C.3       16 UNK        -0.1800 
     92 C          -5.1940  -23.9680  -50.8531 C.2       16 UNK         0.5000 
     93 O          -5.9415  -23.6449  -51.7750 O.2       16 UNK        -0.5000 
     94 N          -4.3129  -23.1310  -50.2845 N.am      17 UNK        -0.5000 
     95 CA         -4.0445  -21.7363  -50.6610 C.3       17 UNK         0.1400 
     96 CB         -5.2802  -20.8414  -50.4276 C.3       17 UNK        -0.1800 
     97 C          -3.4683  -21.6321  -52.0875 C.2       17 UNK         0.5000 
     98 O          -3.8868  -20.7817  -52.8755 O.2       17 UNK        -0.5000 
     99 N          -2.5273  -22.5417  -52.3863 N.am      18 UNK        -0.5000 
    100 CA        -1.8959  -22.7725  -53.6882 C.3       18 UNK         0.1400 
    101 CB        -1.0145  -21.5715  -54.0914 C.3       18 UNK        -0.1800 
    102 C         -2.9456  -23.1494  -54.7515 C.2       18 UNK         0.5000 
    103 O         -3.0648  -22.4728  -55.7730 O.2       18 UNK        -0.5000 
    104 N         -3.7353  -24.1907  -54.4449 N.am      19 UNK        -0.5000 
    105 CA        -4.8849  -24.6869  -55.2148 C.3       19 UNK         0.1400 
    106 CB        -4.4054  -25.3790  -56.5070 C.3       19 UNK        -0.1800 
    107 C         -5.9471  -23.5940  -55.4751 C.2       19 UNK         0.5000 
    108 O         -6.4995  -23.5070  -56.5730 O.2       19 UNK        -0.5000 
    109 N         -6.1694  -22.7542  -54.4548 N.am      20 UNK        -0.5000 
    110 CA        -7.0169  -21.5602  -54.4076 C.3       20 UNK         0.1400 
    111 CB        -8.5006  -21.9427  -54.5831 C.3       20 UNK        -0.1800 
    112 C         -6.5921  -20.4165  -55.3562 C.2       20 UNK         0.5000 
    113 O         -7.3404  -19.4462  -55.4889 O.2       20 UNK        -0.5000 
    114 N         -5.4197  -20.5231  -55.9978 N.am      21 UNK        -0.5000 
    115 CA        -4.9177  -19.5333  -56.9501 C.3       21 UNK         0.1400 
    116 CB        -4.0606  -20.2383  -58.0131 C.3       21 UNK        -0.1800 
    117 C         -4.1162  -18.4086  -56.2734 C.2       21 UNK         0.5000 
    118 O         -3.9758  -17.3427  -56.8747 O.2       21 UNK        -0.5000 
    119 N         -3.5980  -18.6539  -55.0597 N.am      22 UNK        -0.5000 
    120 CA        -2.7735  -17.7161  -54.2729 C.3       22 UNK         0.1400 
    121 C         -1.4116  -17.3291  -54.9327 C.2       22 UNK         0.5000 
    122 N         -0.8758  -18.1277  -55.8487 N.am      22 UNK        -0.7600 
    123 O         -0.8120  -16.3107  -54.5993 O.2       22 UNK        -0.5000 
    124 C124       -3.5899  -16.4891  -53.7695 C.3       23 UNK        -0.0398 
    125 S125       -4.8125  -16.9842  -52.5047 S.3       23 UNK        -0.2404 
    126 C126       -4.1040  -16.2715  -50.9791 C.3       23 UNK        -0.0205 
    127 H127        2.5742   -9.8164  -46.6440 H         1 UNK         0.0600 
    128 H128        3.3821  -11.2773  -47.2133 H         1 UNK         0.0600 
    129 H129        2.3919  -11.3169  -45.7474 H         1 UNK         0.0600 
    130 H130        0.0497  -12.7210  -48.2699 H         1 UNK         0.3000 
    131 H131        2.5354  -13.5546  -46.9755 H         1 UNK         0.0600 
    132 H132        0.1336  -15.1344  -48.0210 H         1 UNK         0.0800 
    133 H133        1.5471  -15.8648  -47.3189 H         1 UNK         0.0800 
    134 H134        1.1421  -14.6999  -51.6553 H         1 UNK         0.0800 
    135 H135        0.2338  -13.8026  -50.4644 H         1 UNK         0.0800 
    136 H136       -1.9785  -14.5647  -50.9065 H         1 UNK         0.1150 
    137 H137       -2.9622  -18.7243  -50.6204 H         1 UNK         0.1150 
    138 H138        1.1277  -17.4761  -50.3987 H         1 UNK         0.1150 
    139 H139       -0.9935  -20.3456  -50.9670 H         1 UNK         0.0800 
    140 H140        0.6163  -19.8146  -50.5290 H         1 UNK         0.0800 
    141 H141       -0.0909  -22.3095  -49.4743 H         1 UNK         0.0800 
    142 H142        1.1112  -21.6830  -48.3807 H         1 UNK         0.0800 
    143 H143        0.0085  -23.6776  -47.4943 H         1 UNK         0.0600 
    144 H144        0.0902  -21.2706  -45.9439 H         1 UNK         0.3000 
    145 H145       -0.1378  -23.1001  -42.8057 H         1 UNK         0.0600 
    146 H146        1.8594  -21.6314  -42.5175 H         1 UNK         0.0600 
    147 H147        1.9555  -21.4008  -44.2615 H         1 UNK         0.0600 
    148 H148        2.2023  -22.9960  -43.5708 H         1 UNK         0.0600 
    149 H149       -0.1568  -20.2935  -43.3377 H         1 UNK         0.3000 
    150 H150       -3.6871  -19.8558  -43.3392 H         1 UNK         0.0600 
    151 H151       -3.1662  -20.0202  -40.9193 H         1 UNK         0.0600 
    152 H152       -3.1417  -18.3425  -41.4393 H         1 UNK         0.0600 
    153 H153       -1.6286  -19.2045  -41.1619 H         1 UNK         0.0600 
    154 H154       -1.3865  -18.1026  -43.3831 H         1 UNK         0.3000 
    155 H155       -1.1701  -17.8937  -46.9500 H         1 UNK         0.0600 
    156 H156       -3.0362  -16.3782  -46.2702 H         1 UNK         0.0600 
    157 H157       -1.5270  -15.5049  -46.4270 H         1 UNK         0.0600 
    158 H158       -2.1455  -15.9139  -44.8274 H         1 UNK         0.0600 
    159 H159        0.2729  -16.5596  -44.9017 H         1 UNK         0.3000 
    160 H160        2.6268  -19.0146  -44.0429 H         1 UNK         0.0600 
    161 H161        3.1347  -16.5315  -45.7634 H         1 UNK         0.0600 
    162 H162        3.5691  -18.1737  -46.2196 H         1 UNK         0.0600 
    163 H163        4.3159  -17.4260  -44.8168 H         1 UNK         0.0600 
    164 H164        2.2807  -16.1875  -43.5165 H         1 UNK         0.3000 
    165 H165        0.1187  -15.8829  -41.4915 H         1 UNK         0.0600 
    166 H166        0.8028  -16.0675  -39.0874 H         1 UNK         0.0600 
    167 H167        0.1265  -17.5654  -39.7034 H         1 UNK         0.0600 
    168 H168        1.8647  -17.4148  -39.4968 H         1 UNK         0.0600 
    169 H169        1.6729  -14.3479  -41.5756 H         1 UNK         0.3000 
    170 H170        3.5751  -13.2203  -41.1950 H         1 UNK         0.0600 
    171 H171        6.1724  -14.8329  -40.8345 H         1 UNK         0.0600 
    172 H172        6.0473  -13.0804  -40.7914 H         1 UNK         0.0600 
    173 H173        5.2817  -14.0421  -39.5403 H         1 UNK         0.0600 
    174 H174        4.5749  -15.0567  -43.2399 H         1 UNK         0.3000 
    175 H175        5.0030  -11.6072  -42.1864 H         1 UNK         0.0600 
    176 H176        4.9457  -10.5995  -45.0775 H         1 UNK         0.0600 
    177 H177        5.3047   -9.6454  -43.6417 H         1 UNK         0.0600 
    178 H178        6.3993  -10.9255  -44.1404 H         1 UNK         0.0600 
    179 H179        2.5803  -11.7399  -43.8426 H         1 UNK         0.3000 
    180 H180        0.6450  -10.1571  -41.4709 H         1 UNK         0.0600 
    181 H181        1.3068   -8.7410  -44.1106 H         1 UNK         0.0600 
    182 H182        1.3743   -8.0055  -42.5137 H         1 UNK         0.0600 
    183 H183       -0.1684   -8.5316  -43.1653 H         1 UNK         0.0600 
    184 H184        0.0266  -10.8431  -44.1636 H         1 UNK         0.3000 
    185 H185       -0.7015  -14.2940  -43.5123 H         1 UNK         0.0600 
    186 H186       -2.2784  -11.7780  -44.2752 H         1 UNK         0.0600 
    187 H187       -2.7822  -13.4436  -44.5482 H         1 UNK         0.0600 
    188 H188       -2.6258  -12.8318  -42.9097 H         1 UNK         0.0600 
    189 H189       -0.6265  -12.6444  -45.9005 H         1 UNK         0.3000 
    190 H190       -2.5919  -21.6555  -46.2032 H         1 UNK         0.3000 
    191 H191       -4.7386  -22.6604  -47.7436 H         1 UNK         0.0600 
    192 H192       -5.0409  -20.7470  -46.2703 H         1 UNK         0.0600 
    193 H193       -4.6797  -21.7186  -44.8424 H         1 UNK         0.0600 
    194 H194       -6.1405  -22.0179  -45.7730 H         1 UNK         0.0600 
    195 H195       -3.0296  -24.0871  -44.9750 H         1 UNK         0.3000 
    196 H196       -4.8076  -26.4310  -44.8587 H         1 UNK         0.0600 
    197 H197       -3.8673  -25.5191  -42.7615 H         1 UNK         0.0600 
    198 H198       -2.2256  -25.7452  -43.3567 H         1 UNK         0.0600 
    199 H199       -3.2529  -27.1404  -43.0483 H         1 UNK         0.0600 
    200 H200       -1.3781  -25.7034  -45.7115 H         1 UNK         0.3000 
    201 H201       -0.7748  -28.4247  -46.2959 H         1 UNK         0.0600 
    202 H202        0.8645  -26.8041  -45.3824 H         1 UNK         0.0600 
    203 H203        0.8122  -25.8733  -46.8777 H         1 UNK         0.0600 
    204 H204        1.4571  -27.5094  -46.8783 H         1 UNK         0.0600 
    205 H205       -1.7152  -25.7436  -48.4591 H         1 UNK         0.3000 
    206 H206       -1.3489  -27.5072  -50.8489 H         1 UNK         0.0600 
    207 H207        0.6324  -25.9910  -50.5580 H         1 UNK         0.0600 
    208 H208       -0.4410  -24.5938  -50.5376 H         1 UNK         0.0600 
    209 H209       -0.2905  -25.5771  -51.9906 H         1 UNK         0.0600 
    210 H210       -3.6728  -26.2290  -49.1130 H         1 UNK         0.3000 
    211 H211       -5.7194  -25.3928  -49.3671 H         1 UNK         0.0600 
    212 H212       -5.5462  -26.4350  -52.2436 H         1 UNK         0.0600 
    213 H213       -7.0185  -26.0694  -51.3552 H         1 UNK         0.0600 
    214 H214       -5.9922  -27.3950  -50.8347 H         1 UNK         0.0600 
    215 H215       -3.6976  -23.5153  -49.5713 H         1 UNK         0.3000 
    216 H216       -3.2597  -21.3830  -49.9913 H         1 UNK         0.0600 
    217 H217       -5.0516  -19.7945  -50.6283 H         1 UNK         0.0600 
    218 H218       -5.6214  -20.9046  -49.3945 H         1 UNK         0.0600 
    219 H219       -6.1139  -21.1161  -51.0729 H         1 UNK         0.0600 
    220 H220       -2.3150  -23.2330  -51.6822 H         1 UNK         0.3000 
    221 H221       -1.2434  -23.6393  -53.5738 H         1 UNK         0.0600 
    222 H222       -1.6007  -20.6659  -54.2425 H         1 UNK         0.0600 
    223 H223       -0.2648  -21.3599  -53.3292 H         1 UNK         0.0600 
    224 H224       -0.4835  -21.7743  -55.0220 H         1 UNK         0.0600 
    225 H225       -3.5458  -24.6853  -53.5750 H         1 UNK         0.3000 
    226 H226       -5.3689  -25.4410  -54.5930 H         1 UNK         0.0600 
    227 H227       -3.6732  -26.1561  -56.2884 H         1 UNK         0.0600 
    228 H228       -5.2368  -25.8550  -57.0280 H         1 UNK         0.0600 
    229 H229       -3.9474  -24.6711  -57.1985 H         1 UNK         0.0600 
    230 H230       -5.7151  -22.9704  -53.5719 H         1 UNK         0.3000 
    231 H231       -6.8990  -21.1616  -53.3995 H         1 UNK         0.0600 
    232 H232       -9.1519  -21.0892  -54.3922 H         1 UNK         0.0600 
    233 H233       -8.7887  -22.7296  -53.8859 H         1 UNK         0.0600 
    234 H234       -8.7116  -22.2940  -55.5934 H         1 UNK         0.0600 
    235 H235       -4.8308  -21.3319  -55.8311 H         1 UNK         0.3000 
    236 H236       -5.7625  -19.0716  -57.4656 H         1 UNK         0.0600 
    237 H237       -3.1349  -20.6314  -57.5935 H         1 UNK         0.0600 
    238 H238       -4.6005  -21.0665  -58.4728 H         1 UNK         0.0600 
    239 H239       -3.7857  -19.5461  -58.8098 H         1 UNK         0.0600 
    240 H240       -3.7904  -19.5427  -54.6104 H         1 UNK         0.3000 
    241 H241       -2.4676  -18.2833  -53.3943 H         1 UNK         0.0600 
    242 H242        0.0066  -17.8781  -56.2666 H         1 UNK         0.3800 
    243 H243       -1.3490  -18.9685  -56.1365 H         1 UNK         0.3800 
    244 H244       -4.1128  -16.0023  -54.5927 H         1 UNK         0.0800 
    245 H245       -2.9430  -15.7199  -53.3479 H         1 UNK         0.0800 
    246 H246       -4.6675  -16.6419  -50.1217 H         1 UNK         0.0800 
    247 H247       -4.2518  -15.1907  -50.9985 H         1 UNK         0.0800 
@<TRIPOS>BOND
     1    1    2 1    
     2    1  127 1    
     3    1  128 1    
     4    1  129 1    
     5    2    3 2    
     6    2    4 am   BACKBONE|DICT|INTERRES
     7    4    5 1    
     8    4  130 1    
     9    5    6 1    
    10    5   65 1    
    11    5  131 1    
    12    6    7 1    
    13    6  132 1    
    14    6  133 1    
    15    7    8 1    
    16    8    9 1    
    17    8  134 1    
    18    8  135 1    
    19    9   10 ar   
    20    9   14 ar   
    21   10   11 ar   
    22   10  136 1    
    23   11   12 ar   
    24   11  126 1    
    25   12   13 ar   
    26   12  137 1    
    27   13   14 ar   
    28   13   15 1    
    29   14  138 1    
    30   15   16 1    
    31   15  139 1    
    32   15  140 1    
    33   16   17 1    
    34   17   18 1    
    35   17  141 1    
    36   17  142 1    
    37   18   19 1    
    38   18   67 1    
    39   18  143 1    
    40   19   20 am   BACKBONE|DICT|INTERRES
    41   19  144 1    
    42   20   21 2    
    43   20   22 1    
    44   22   23 1    
    45   22   24 1    
    46   22  145 1    
    47   23  146 1    
    48   23  147 1    
    49   23  148 1    
    50   24   25 am   BACKBONE|DICT|INTERRES
    51   24  149 1    
    52   25   26 2    
    53   25   27 1    
    54   27   28 1    
    55   27   29 1    
    56   27  150 1    
    57   28  151 1    
    58   28  152 1    
    59   28  153 1    
    60   29   30 am   BACKBONE|DICT|INTERRES
    61   29  154 1    
    62   30   31 2    
    63   30   32 1    
    64   32   33 1    
    65   32   34 1    
    66   32  155 1    
    67   33  156 1    
    68   33  157 1    
    69   33  158 1    
    70   34   35 am   BACKBONE|DICT|INTERRES
    71   34  159 1    
    72   35   36 2    
    73   35   37 1    
    74   37   38 1    
    75   37   39 1    
    76   37  160 1    
    77   38  161 1    
    78   38  162 1    
    79   38  163 1    
    80   39   40 am   BACKBONE|DICT|INTERRES
    81   39  164 1    
    82   40   41 2    
    83   40   42 1    
    84   42   43 1    
    85   42   44 1    
    86   42  165 1    
    87   43  166 1    
    88   43  167 1    
    89   43  168 1    
    90   44   45 am   BACKBONE|DICT|INTERRES
    91   44  169 1    
    92   45   46 2    
    93   45   47 1    
    94   47   48 1    
    95   47   49 1    
    96   47  170 1    
    97   48  171 1    
    98   48  172 1    
    99   48  173 1    
   100   49   50 am   BACKBONE|DICT|INTERRES
   101   49  174 1    
   102   50   51 2    
   103   50   52 1    
   104   52   53 1    
   105   52   54 1    
   106   52  175 1    
   107   53  176 1    
   108   53  177 1    
   109   53  178 1    
   110   54   55 am   BACKBONE|DICT|INTERRES
   111   54  179 1    
   112   55   56 2    
   113   55   57 1    
   114   57   58 1    
   115   57   59 1    
   116   57  180 1    
   117   58  181 1    
   118   58  182 1    
   119   58  183 1    
   120   59   60 am   BACKBONE|DICT|INTERRES
   121   59  184 1    
   122   60   61 2    
   123   60   62 1    
   124   62   63 1    
   125   62   64 1    
   126   62  185 1    
   127   63  186 1    
   128   63  187 1    
   129   63  188 1    
   130   64   65 am   BACKBONE|DICT|INTERRES
   131   64  189 1    
   132   65   66 2    
   133   67   68 2    
   134   67   69 am   BACKBONE|DICT|INTERRES
   135   69   70 1    
   136   69  190 1    
   137   70   71 1    
   138   70   72 1    
   139   70  191 1    
   140   71  192 1    
   141   71  193 1    
   142   71  194 1    
   143   72   73 2    
   144   72   74 am   BACKBONE|DICT|INTERRES
   145   74   75 1    
   146   74  195 1    
   147   75   76 1    
   148   75   77 1    
   149   75  196 1    
   150   76  197 1    
   151   76  198 1    
   152   76  199 1    
   153   77   78 2    
   154   77   79 am   BACKBONE|DICT|INTERRES
   155   79   80 1    
   156   79  200 1    
   157   80   81 1    
   158   80   82 1    
   159   80  201 1    
   160   81  202 1    
   161   81  203 1    
   162   81  204 1    
   163   82   83 2    
   164   82   84 am   BACKBONE|DICT|INTERRES
   165   84   85 1    
   166   84  205 1    
   167   85   86 1    
   168   85   87 1    
   169   85  206 1    
   170   86  207 1    
   171   86  208 1    
   172   86  209 1    
   173   87   88 2    
   174   87   89 am   BACKBONE|DICT|INTERRES
   175   89   90 1    
   176   89  210 1    
   177   90   91 1    
   178   90   92 1    
   179   90  211 1    
   180   91  212 1    
   181   91  213 1    
   182   91  214 1    
   183   92   93 2    
   184   92   94 am   BACKBONE|DICT|INTERRES
   185   94   95 1    
   186   94  215 1    
   187   95   96 1    
   188   95   97 1    
   189   95  216 1    
   190   96  217 1    
   191   96  218 1    
   192   96  219 1    
   193   97   98 2    
   194   97   99 am   BACKBONE|DICT|INTERRES
   195   99  100 1    
   196   99  220 1    
   197  100  101 1    
   198  100  102 1    
   199  100  221 1    
   200  101  222 1    
   201  101  223 1    
   202  101  224 1    
   203  102  103 2    
   204  102  104 am   BACKBONE|DICT|INTERRES
   205  104  105 1    
   206  104  225 1    
   207  105  106 1    
   208  105  107 1    
   209  105  226 1    
   210  106  227 1    
   211  106  228 1    
   212  106  229 1    
   213  107  108 2    
   214  107  109 am   BACKBONE|DICT|INTERRES
   215  109  110 1    
   216  109  230 1    
   217  110  111 1    
   218  110  112 1    
   219  110  231 1    
   220  111  232 1    
   221  111  233 1    
   222  111  234 1    
   223  112  113 2    
   224  112  114 am   BACKBONE|DICT|INTERRES
   225  114  115 1    
   226  114  235 1    
   227  115  116 1    
   228  115  117 1    
   229  115  236 1    
   230  116  237 1    
   231  116  238 1    
   232  116  239 1    
   233  117  118 2    
   234  117  119 am   BACKBONE|DICT|INTERRES
   235  119  120 1    
   236  119  240 1    
   237  120  121 1    
   238  120  124 1    
   239  120  241 1    
   240  121  122 am   BACKBONE|DICT|INTERRES
   241  121  123 2    
   242  122  242 1    
   243  122  243 1    
   244  124  125 1    
   245  124  244 1    
   246  124  245 1    
   247  125  126 1    
   248  126  246 1    
   249  126  247 1    
@<TRIPOS>SUBSTRUCTURE
     1 UNK         1 GROUP             0       ****    0 ROOT    
