@<TRIPOS>MOLECULE
3R540
247   249    1
SMALL
USER_CHARGES


@<TRIPOS>ATOM
      1 CA         -3.5541  -10.5935  -47.7247 C.3       0 UNK        -0.1800 
      2 C          -3.0183  -11.9949  -47.4714 C.2       0 UNK         0.5000 
      3 O          -2.2523  -12.5130  -48.2842 O.2       0 UNK        -0.5000 
      4 N          -3.4147  -12.6074  -46.3476 N.am      1 UNK        -0.5000 
      5 CA         -3.0150  -13.9660  -45.9527 C.3       1 UNK         0.1400 
      6 C6         -3.9725  -14.5959  -44.9111 C.3       23 UNK        -0.0398 
      7 S7         -5.7295  -14.5233  -45.3858 S.3       23 UNK        -0.2404 
      8 C8         -6.3849  -16.0022  -44.5483 C.3       23 UNK        -0.0205 
      9 C9         -6.3537  -17.2315  -45.4443 C.ar      23 UNK        -0.0193 
     10 C10        -7.1741  -17.2763  -46.5722 C.ar      23 UNK        -0.1150 
     11 C11        -7.1929  -18.4014  -47.3973 C.ar      23 UNK        -0.0193 
     12 C12        -6.4069  -19.5073  -47.0632 C.ar      23 UNK        -0.1150 
     13 C13        -5.6020  -19.4981  -45.9176 C.ar      23 UNK        -0.0193 
     14 C14        -5.5594  -18.3385  -45.1280 C.ar      23 UNK        -0.1150 
     15 C15        -4.8191  -20.7675  -45.5728 C.3       23 UNK        -0.0205 
     16 S16        -4.3391  -20.9365  -43.8151 S.3       23 UNK        -0.2404 
     17 C17        -4.1659  -22.7420  -43.6170 C.3       23 UNK        -0.0398 
     18 CA         -3.2170  -23.4327  -44.6274 C.3       11 UNK         0.1400 
     19 N          -1.8339  -22.9312  -44.5702 N.am      11 UNK        -0.5000 
     20 C          -0.8601  -23.2804  -45.4263 C.2       10 UNK         0.5000 
     21 O          -1.0411  -24.0781  -46.3483 O.2       10 UNK        -0.5000 
     22 CA          0.5412  -22.6730  -45.2424 C.3       10 UNK         0.1400 
     23 CB          1.1026  -22.1580  -46.5784 C.3       10 UNK        -0.1800 
     24 N           0.5618  -21.5750  -44.2791 N.am      10 UNK        -0.5000 
     25 C           1.3640  -21.4999  -43.2084 C.2       9 UNK         0.5000 
     26 O           2.0801  -22.4281  -42.8304 O.2       9 UNK        -0.5000 
     27 CA          1.4061  -20.1657  -42.4354 C.3       9 UNK         0.1400 
     28 CB          2.7963  -19.5184  -42.5507 C.3       9 UNK        -0.1800 
     29 N           0.4117  -19.2068  -42.9142 N.am      9 UNK        -0.5000 
     30 C          -0.8358  -19.1008  -42.4392 C.2       8 UNK         0.5000 
     31 O          -1.2680  -19.7713  -41.5015 O.2       8 UNK        -0.5000 
     32 CA         -1.7643  -18.0868  -43.1373 C.3       8 UNK         0.1400 
     33 CB         -1.7516  -16.7502  -42.3792 C.3       8 UNK        -0.1800 
     34 N          -1.4413  -17.8386  -44.5455 N.am      8 UNK        -0.5000 
     35 C          -1.3988  -18.7644  -45.5149 C.2       7 UNK         0.5000 
     36 O          -1.5882  -19.9630  -45.3326 O.2       7 UNK        -0.5000 
     37 CA         -1.0048  -18.2822  -46.9174 C.3       7 UNK         0.1400 
     38 CB         -2.2393  -17.7135  -47.6317 C.3       7 UNK        -0.1800 
     39 N           0.0639  -17.2817  -46.9006 N.am      7 UNK        -0.5000 
     40 C           1.2742  -17.4313  -46.3411 C.2       6 UNK         0.5000 
     41 O           1.6457  -18.4687  -45.7893 O.2       6 UNK        -0.5000 
     42 CA          2.2009  -16.1961  -46.3760 C.3       6 UNK         0.1400 
     43 CB          3.6808  -16.5437  -46.1162 C.3       6 UNK        -0.1800 
     44 N           2.0630  -15.3951  -47.5970 N.am      6 UNK        -0.5000 
     45 C           2.2674  -15.8027  -48.8585 C.2       5 UNK         0.5000 
     46 O           2.6323  -16.9344  -49.1755 O.2       5 UNK        -0.5000 
     47 CA          2.0381  -14.7467  -49.9507 C.3       5 UNK         0.1400 
     48 CB          0.5452  -14.4028  -50.0838 C.3       5 UNK        -0.1800 
     49 N           2.8073  -13.5299  -49.6922 N.am      5 UNK        -0.5000 
     50 C           4.1367  -13.4297  -49.8446 C.2       4 UNK         0.5000 
     51 O           4.8463  -14.3496  -50.2536 O.2       4 UNK        -0.5000 
     52 CA          4.7930  -12.0752  -49.5098 C.3       4 UNK         0.1400 
     53 CB          5.1115  -11.3005  -50.7985 C.3       4 UNK        -0.1800 
     54 N           3.9655  -11.2314  -48.6475 N.am      4 UNK        -0.5000 
     55 C           3.8251  -11.3969  -47.3265 C.2       3 UNK         0.5000 
     56 O           4.4348  -12.2516  -46.6797 O.2       3 UNK        -0.5000 
     57 CA          2.8428  -10.4503  -46.5995 C.3       3 UNK         0.1400 
     58 CB          1.9355   -9.6330  -47.5486 C.3       3 UNK        -0.1800 
     59 N           2.0190  -11.1481  -45.6071 N.am      3 UNK        -0.5000 
     60 C           1.2217  -12.2053  -45.8196 C.2       2 UNK         0.5000 
     61 O           1.1193  -12.7763  -46.9083 O.2       2 UNK        -0.5000 
     62 CA          0.3886  -12.7109  -44.6245 C.3       2 UNK         0.1400 
     63 CB          0.4192  -11.7846  -43.3919 C.3       2 UNK        -0.1800 
     64 N          -0.9973  -12.8694  -45.0543 N.am      2 UNK        -0.5000 
     65 C          -1.5685  -14.0242  -45.4153 C.2       1 UNK         0.5000 
     66 O          -1.0135  -15.1166  -45.3119 O.2       1 UNK        -0.5000 
     67 C          -3.3047  -24.9660  -44.4673 C.2       11 UNK         0.5000 
     68 O          -4.1570  -25.5913  -45.0983 O.2       11 UNK        -0.5000 
     69 N          -2.3804  -25.5514  -43.6915 N.am      12 UNK        -0.5000 
     70 CA         -2.2095  -26.9992  -43.5286 C.3       12 UNK         0.1400 
     71 CB         -1.1962  -27.2538  -42.4024 C.3       12 UNK        -0.1800 
     72 C          -1.7704  -27.7215  -44.8213 C.2       12 UNK         0.5000 
     73 O          -1.9886  -28.9269  -44.9440 O.2       12 UNK        -0.5000 
     74 N          -1.1838  -26.9708  -45.7625 N.am      13 UNK        -0.5000 
     75 CA         -0.7878  -27.4148  -47.0968 C.3       13 UNK         0.1400 
     76 CB          0.6647  -26.9688  -47.3475 C.3       13 UNK        -0.1800 
     77 C          -1.7423  -26.8622  -48.1757 C.2       13 UNK         0.5000 
     78 O          -1.3587  -26.8116  -49.3438 O.2       13 UNK        -0.5000 
     79 N          -2.9514  -26.4322  -47.7779 N.am      14 UNK        -0.5000 
     80 CA         -4.0037  -25.8463  -48.6170 C.3       14 UNK         0.1400 
     81 CB         -4.5629  -26.8931  -49.6039 C.3       14 UNK        -0.1800 
     82 C          -3.5514  -24.5453  -49.3113 C.2       14 UNK         0.5000 
     83 O          -3.7470  -24.3849  -50.5165 O.2       14 UNK        -0.5000 
     84 N          -2.9136  -23.6576  -48.5336 N.am      15 UNK        -0.5000 
     85 CA         -2.2860  -22.4022  -48.9610 C.3       15 UNK         0.1400 
     86 CB         -3.3327  -21.3909  -49.4731 C.3       15 UNK        -0.1800 
     87 C          -1.1426  -22.6668  -49.9594 C.2       15 UNK         0.5000 
     88 O          -1.0855  -22.0456  -51.0226 O.2       15 UNK        -0.5000 
     89 N          -0.2754  -23.6223  -49.5911 N.am      16 UNK        -0.5000 
     90 CA          0.8746  -24.1196  -50.3537 C.3       16 UNK         0.1400 
     91 CB          1.9619  -23.0283  -50.4598 C.3       16 UNK        -0.1800 
     92 C           0.4572  -24.6865  -51.7260 C.2       16 UNK         0.5000 
     93 O           0.9597  -24.2420  -52.7574 O.2       16 UNK        -0.5000 
     94 N          -0.5013  -25.6241  -51.7124 N.am      17 UNK        -0.5000 
     95 CA         -1.1597  -26.2282  -52.8777 C.3       17 UNK         0.1400 
     96 CB         -0.1821  -27.1444  -53.6423 C.3       17 UNK        -0.1800 
     97 C          -1.8358  -25.1720  -53.7793 C.2       17 UNK         0.5000 
     98 O          -1.7279  -25.2303  -55.0054 O.2       17 UNK        -0.5000 
     99 N          -2.4945  -24.2048  -53.1276 N.am      18 UNK        -0.5000 
    100 CA        -3.1622  -23.0268  -53.6795 C.3       18 UNK         0.1400 
    101 CB        -4.3640  -23.4337  -54.5561 C.3       18 UNK        -0.1800 
    102 C         -2.2286  -22.0141  -54.3797 C.2       18 UNK         0.5000 
    103 O         -2.7231  -21.1495  -55.1039 O.2       18 UNK        -0.5000 
    104 N         -0.9102  -22.0918  -54.1455 N.am      19 UNK        -0.5000 
    105 CA         0.0650  -21.1381  -54.6808 C.3       19 UNK         0.1400 
    106 CB         1.4743  -21.7450  -54.6317 C.3       19 UNK        -0.1800 
    107 C          0.0394  -19.7890  -53.9396 C.2       19 UNK         0.5000 
    108 O          0.2723  -18.7541  -54.5652 O.2       19 UNK        -0.5000 
    109 N         -0.2455  -19.8193  -52.6306 N.am      20 UNK        -0.5000 
    110 CA        -0.3287  -18.6348  -51.7742 C.3       20 UNK         0.1400 
    111 CB         0.2261  -18.9875  -50.3855 C.3       20 UNK        -0.1800 
    112 C         -1.7647  -18.0944  -51.6499 C.2       20 UNK         0.5000 
    113 O         -1.9441  -17.0169  -51.0814 O.2       20 UNK        -0.5000 
    114 N         -2.7546  -18.8516  -52.1477 N.am      21 UNK        -0.5000 
    115 CA        -4.1884  -18.5659  -52.0687 C.3       21 UNK         0.1400 
    116 CB        -4.9640  -19.6641  -52.8142 C.3       21 UNK        -0.1800 
    117 C         -4.5470  -17.1708  -52.6359 C.2       21 UNK         0.5000 
    118 O         -4.3974  -16.9776  -53.8429 O.2       21 UNK        -0.5000 
    119 N         -4.9993  -16.1939  -51.8395 N.am      22 UNK        -0.5000 
    120 CA        -5.1713  -16.1749  -50.3788 C.3       22 UNK         0.1400 
    121 C         -4.5567  -14.8636  -49.8282 C.2       22 UNK         0.5000 
    122 N         -3.2353  -14.7541  -49.8392 N.am      22 UNK        -0.7600 
    123 O         -5.2595  -13.9487  -49.4080 O.2       22 UNK        -0.5000 
    124 C124       -6.6565  -16.3759  -49.9741 C.3       23 UNK        -0.0398 
    125 S125       -7.1999  -18.1085  -50.1735 S.3       23 UNK        -0.2404 
    126 C126       -8.0974  -18.4323  -48.6216 C.3       23 UNK        -0.0205 
    127 H127       -4.2027  -10.2544  -46.9166 H         1 UNK         0.0600 
    128 H128       -4.1277  -10.5763  -48.6515 H         1 UNK         0.0600 
    129 H129       -2.7288   -9.8878  -47.8192 H         1 UNK         0.0600 
    130 H130       -4.0720  -12.1482  -45.7331 H         1 UNK         0.3000 
    131 H131       -3.0459  -14.5901  -46.8477 H         1 UNK         0.0600 
    132 H132       -3.8699  -14.1059  -43.9410 H         1 UNK         0.0800 
    133 H133       -3.7065  -15.6437  -44.7605 H         1 UNK         0.0800 
    134 H134       -5.8445  -16.1771  -43.6165 H         1 UNK         0.0800 
    135 H135       -7.4197  -15.8074  -44.2631 H         1 UNK         0.0800 
    136 H136       -7.7996  -16.4261  -46.8062 H         1 UNK         0.1150 
    137 H137       -6.4393  -20.3872  -47.6906 H         1 UNK         0.1150 
    138 H138       -4.9352  -18.3006  -44.2479 H         1 UNK         0.1150 
    139 H139       -5.4274  -21.6319  -45.8431 H         1 UNK         0.0800 
    140 H140       -3.9244  -20.8090  -46.1942 H         1 UNK         0.0800 
    141 H141       -5.1695  -23.1667  -43.6868 H         1 UNK         0.0800 
    142 H142       -3.8308  -22.9317  -42.5958 H         1 UNK         0.0800 
    143 H143       -3.5834  -23.2199  -45.6324 H         1 UNK         0.0600 
    144 H144       -1.6362  -22.2281  -43.8728 H         1 UNK         0.3000 
    145 H145        1.1797  -23.4906  -44.9032 H         1 UNK         0.0600 
    146 H146        0.4558  -21.4017  -47.0239 H         1 UNK         0.0600 
    147 H147        2.0894  -21.7137  -46.4466 H         1 UNK         0.0600 
    148 H148        1.2113  -22.9713  -47.2952 H         1 UNK         0.0600 
    149 H149       -0.0356  -20.7864  -44.5100 H         1 UNK         0.3000 
    150 H150        1.2251  -20.3908  -41.3824 H         1 UNK         0.0600 
    151 H151        3.5696  -20.1760  -42.1516 H         1 UNK         0.0600 
    152 H152        2.8449  -18.5848  -41.9901 H         1 UNK         0.0600 
    153 H153        3.0548  -19.3010  -43.5877 H         1 UNK         0.0600 
    154 H154        0.6757  -18.6566  -43.7220 H         1 UNK         0.3000 
    155 H155       -2.7758  -18.4925  -43.0974 H         1 UNK         0.0600 
    156 H156       -1.9665  -16.8972  -41.3199 H         1 UNK         0.0600 
    157 H157       -2.5049  -16.0662  -42.7659 H         1 UNK         0.0600 
    158 H158       -0.7817  -16.2566  -42.4533 H         1 UNK         0.0600 
    159 H159       -1.2303  -16.8758  -44.8006 H         1 UNK         0.3000 
    160 H160       -0.6392  -19.1424  -47.4803 H         1 UNK         0.0600 
    161 H161       -1.9757  -17.2956  -48.5990 H         1 UNK         0.0600 
    162 H162       -2.7165  -16.9244  -47.0508 H         1 UNK         0.0600 
    163 H163       -2.9866  -18.4902  -47.7999 H         1 UNK         0.0600 
    164 H164       -0.1699  -16.3685  -47.2617 H         1 UNK         0.3000 
    165 H165        1.8692  -15.5553  -45.5587 H         1 UNK         0.0600 
    166 H166        4.0715  -17.2331  -46.8651 H         1 UNK         0.0600 
    167 H167        4.3023  -15.6481  -46.1270 H         1 UNK         0.0600 
    168 H168        3.8074  -17.0146  -45.1406 H         1 UNK         0.0600 
    169 H169        1.7533  -14.4355  -47.4529 H         1 UNK         0.3000 
    170 H170        2.3683  -15.1707  -50.9016 H         1 UNK         0.0600 
    171 H171        0.1503  -13.9286  -49.1845 H         1 UNK         0.0600 
    172 H172        0.3693  -13.7269  -50.9205 H         1 UNK         0.0600 
    173 H173       -0.0445  -15.3016  -50.2639 H         1 UNK         0.0600 
    174 H174        2.3021  -12.7451  -49.3069 H         1 UNK         0.3000 
    175 H175        5.7350  -12.2840  -48.9979 H         1 UNK         0.0600 
    176 H176        4.2064  -11.0576  -51.3567 H         1 UNK         0.0600 
    177 H177        5.6328  -10.3683  -50.5801 H         1 UNK         0.0600 
    178 H178        5.7560  -11.8846  -51.4568 H         1 UNK         0.0600 
    179 H179        3.4351  -10.5027  -49.1029 H         1 UNK         0.3000 
    180 H180        3.4615   -9.7444  -46.0437 H         1 UNK         0.0600 
    181 H181        1.3211  -10.2757  -48.1807 H         1 UNK         0.0600 
    182 H182        2.5198   -8.9797  -48.1975 H         1 UNK         0.0600 
    183 H183        1.2609   -8.9904  -46.9825 H         1 UNK         0.0600 
    184 H184        2.0639  -10.7744  -44.6700 H         1 UNK         0.3000 
    185 H185        0.8077  -13.6737  -44.3268 H         1 UNK         0.0600 
    186 H186       -0.2055  -12.1845  -42.5928 H         1 UNK         0.0600 
    187 H187        1.4277  -11.6929  -42.9866 H         1 UNK         0.0600 
    188 H188        0.0537  -10.7832  -43.6239 H         1 UNK         0.0600 
    189 H189       -1.5179  -12.0195  -45.2132 H         1 UNK         0.3000 
    190 H190       -1.7114  -24.9628  -43.2166 H         1 UNK         0.3000 
    191 H191       -3.1710  -27.4211  -43.2287 H         1 UNK         0.0600 
    192 H192       -0.2171  -26.8358  -42.6402 H         1 UNK         0.0600 
    193 H193       -1.5310  -26.8141  -41.4627 H         1 UNK         0.0600 
    194 H194       -1.0635  -28.3227  -42.2296 H         1 UNK         0.0600 
    195 H195       -1.0832  -25.9759  -45.5992 H         1 UNK         0.3000 
    196 H196       -0.8261  -28.5035  -47.1647 H         1 UNK         0.0600 
    197 H197        1.3332  -27.3626  -46.5818 H         1 UNK         0.0600 
    198 H198        0.7601  -25.8826  -47.3464 H         1 UNK         0.0600 
    199 H199        1.0296  -27.3312  -48.3093 H         1 UNK         0.0600 
    200 H200       -3.1729  -26.4845  -46.7909 H         1 UNK         0.3000 
    201 H201       -4.8139  -25.5653  -47.9427 H         1 UNK         0.0600 
    202 H202       -5.4244  -26.4983  -50.1435 H         1 UNK         0.0600 
    203 H203       -4.8920  -27.7909  -49.0809 H         1 UNK         0.0600 
    204 H204       -3.8223  -27.1902  -50.3471 H         1 UNK         0.0600 
    205 H205       -2.6921  -23.9411  -47.5870 H         1 UNK         0.3000 
    206 H206       -1.8253  -21.9657  -48.0739 H         1 UNK         0.0600 
    207 H207       -4.1210  -21.2316  -48.7380 H         1 UNK         0.0600 
    208 H208       -3.8014  -21.7223  -50.3991 H         1 UNK         0.0600 
    209 H209       -2.8727  -20.4222  -49.6683 H         1 UNK         0.0600 
    210 H210       -0.4493  -24.0873  -48.7101 H         1 UNK         0.3000 
    211 H211        1.2928  -24.9528  -49.7875 H         1 UNK         0.0600 
    212 H212        2.2705  -22.6788  -49.4752 H         1 UNK         0.0600 
    213 H213        2.8517  -23.4123  -50.9598 H         1 UNK         0.0600 
    214 H214        1.6178  -22.1629  -51.0270 H         1 UNK         0.0600 
    215 H215       -0.8479  -25.9469  -50.8090 H         1 UNK         0.3000 
    216 H216       -1.9621  -26.8541  -52.4843 H         1 UNK         0.0600 
    217 H217       -0.6962  -27.6879  -54.4358 H         1 UNK         0.0600 
    218 H218        0.6271  -26.5786  -54.1049 H         1 UNK         0.0600 
    219 H219        0.2633  -27.8852  -52.9783 H         1 UNK         0.0600 
    220 H220       -2.5611  -24.2787  -52.1166 H         1 UNK         0.3000 
    221 H221       -3.5576  -22.5032  -52.8100 H         1 UNK         0.0600 
    222 H222       -4.0458  -23.9117  -55.4828 H         1 UNK         0.0600 
    223 H223       -5.0198  -24.1257  -54.0276 H         1 UNK         0.0600 
    224 H224       -4.9647  -22.5645  -54.8264 H         1 UNK         0.0600 
    225 H225       -0.5548  -22.8171  -53.5331 H         1 UNK         0.3000 
    226 H226       -0.1779  -20.9491  -55.7287 H         1 UNK         0.0600 
    227 H227        1.5084  -22.7102  -55.1374 H         1 UNK         0.0600 
    228 H228        2.1955  -21.0923  -55.1249 H         1 UNK         0.0600 
    229 H229        1.8150  -21.8890  -53.6060 H         1 UNK         0.0600 
    230 H230       -0.4479  -20.7115  -52.1832 H         1 UNK         0.3000 
    231 H231        0.2877  -17.8327  -52.1853 H         1 UNK         0.0600 
    232 H232        0.2437  -18.1080  -49.7422 H         1 UNK         0.0600 
    233 H233        1.2480  -19.3618  -50.4486 H         1 UNK         0.0600 
    234 H234       -0.3790  -19.7419  -49.8851 H         1 UNK         0.0600 
    235 H235       -2.4912  -19.6945  -52.6343 H         1 UNK         0.3000 
    236 H236       -4.4687  -18.6625  -51.0243 H         1 UNK         0.0600 
    237 H237       -4.8212  -20.6360  -52.3456 H         1 UNK         0.0600 
    238 H238       -6.0353  -19.4599  -52.8015 H         1 UNK         0.0600 
    239 H239       -4.6597  -19.7391  -53.8584 H         1 UNK         0.0600 
    240 H240       -5.1757  -15.2980  -52.2694 H         1 UNK         0.3000 
    241 H241       -4.5844  -16.9491  -49.8876 H         1 UNK         0.0600 
    242 H242       -2.6624  -15.4904  -50.2454 H         1 UNK         0.3800 
    243 H243       -2.8047  -13.9190  -49.4529 H         1 UNK         0.3800 
    244 H244       -6.8091  -16.0704  -48.9405 H         1 UNK         0.0800 
    245 H245       -7.3068  -15.7329  -50.5690 H         1 UNK         0.0800 
    246 H246       -8.5740  -19.4112  -48.6916 H         1 UNK         0.0800 
    247 H247       -8.9085  -17.7095  -48.5192 H         1 UNK         0.0800 
@<TRIPOS>BOND
     1    1    2 1    
     2    1  127 1    
     3    1  128 1    
     4    1  129 1    
     5    2    3 2    
     6    2    4 am   BACKBONE|DICT|INTERRES
     7    4    5 1    
     8    4  130 1    
     9    5    6 1    
    10    5   65 1    
    11    5  131 1    
    12    6    7 1    
    13    6  132 1    
    14    6  133 1    
    15    7    8 1    
    16    8    9 1    
    17    8  134 1    
    18    8  135 1    
    19    9   10 ar   
    20    9   14 ar   
    21   10   11 ar   
    22   10  136 1    
    23   11   12 ar   
    24   11  126 1    
    25   12   13 ar   
    26   12  137 1    
    27   13   14 ar   
    28   13   15 1    
    29   14  138 1    
    30   15   16 1    
    31   15  139 1    
    32   15  140 1    
    33   16   17 1    
    34   17   18 1    
    35   17  141 1    
    36   17  142 1    
    37   18   19 1    
    38   18   67 1    
    39   18  143 1    
    40   19   20 am   BACKBONE|DICT|INTERRES
    41   19  144 1    
    42   20   21 2    
    43   20   22 1    
    44   22   23 1    
    45   22   24 1    
    46   22  145 1    
    47   23  146 1    
    48   23  147 1    
    49   23  148 1    
    50   24   25 am   BACKBONE|DICT|INTERRES
    51   24  149 1    
    52   25   26 2    
    53   25   27 1    
    54   27   28 1    
    55   27   29 1    
    56   27  150 1    
    57   28  151 1    
    58   28  152 1    
    59   28  153 1    
    60   29   30 am   BACKBONE|DICT|INTERRES
    61   29  154 1    
    62   30   31 2    
    63   30   32 1    
    64   32   33 1    
    65   32   34 1    
    66   32  155 1    
    67   33  156 1    
    68   33  157 1    
    69   33  158 1    
    70   34   35 am   BACKBONE|DICT|INTERRES
    71   34  159 1    
    72   35   36 2    
    73   35   37 1    
    74   37   38 1    
    75   37   39 1    
    76   37  160 1    
    77   38  161 1    
    78   38  162 1    
    79   38  163 1    
    80   39   40 am   BACKBONE|DICT|INTERRES
    81   39  164 1    
    82   40   41 2    
    83   40   42 1    
    84   42   43 1    
    85   42   44 1    
    86   42  165 1    
    87   43  166 1    
    88   43  167 1    
    89   43  168 1    
    90   44   45 am   BACKBONE|DICT|INTERRES
    91   44  169 1    
    92   45   46 2    
    93   45   47 1    
    94   47   48 1    
    95   47   49 1    
    96   47  170 1    
    97   48  171 1    
    98   48  172 1    
    99   48  173 1    
   100   49   50 am   BACKBONE|DICT|INTERRES
   101   49  174 1    
   102   50   51 2    
   103   50   52 1    
   104   52   53 1    
   105   52   54 1    
   106   52  175 1    
   107   53  176 1    
   108   53  177 1    
   109   53  178 1    
   110   54   55 am   BACKBONE|DICT|INTERRES
   111   54  179 1    
   112   55   56 2    
   113   55   57 1    
   114   57   58 1    
   115   57   59 1    
   116   57  180 1    
   117   58  181 1    
   118   58  182 1    
   119   58  183 1    
   120   59   60 am   BACKBONE|DICT|INTERRES
   121   59  184 1    
   122   60   61 2    
   123   60   62 1    
   124   62   63 1    
   125   62   64 1    
   126   62  185 1    
   127   63  186 1    
   128   63  187 1    
   129   63  188 1    
   130   64   65 am   BACKBONE|DICT|INTERRES
   131   64  189 1    
   132   65   66 2    
   133   67   68 2    
   134   67   69 am   BACKBONE|DICT|INTERRES
   135   69   70 1    
   136   69  190 1    
   137   70   71 1    
   138   70   72 1    
   139   70  191 1    
   140   71  192 1    
   141   71  193 1    
   142   71  194 1    
   143   72   73 2    
   144   72   74 am   BACKBONE|DICT|INTERRES
   145   74   75 1    
   146   74  195 1    
   147   75   76 1    
   148   75   77 1    
   149   75  196 1    
   150   76  197 1    
   151   76  198 1    
   152   76  199 1    
   153   77   78 2    
   154   77   79 am   BACKBONE|DICT|INTERRES
   155   79   80 1    
   156   79  200 1    
   157   80   81 1    
   158   80   82 1    
   159   80  201 1    
   160   81  202 1    
   161   81  203 1    
   162   81  204 1    
   163   82   83 2    
   164   82   84 am   BACKBONE|DICT|INTERRES
   165   84   85 1    
   166   84  205 1    
   167   85   86 1    
   168   85   87 1    
   169   85  206 1    
   170   86  207 1    
   171   86  208 1    
   172   86  209 1    
   173   87   88 2    
   174   87   89 am   BACKBONE|DICT|INTERRES
   175   89   90 1    
   176   89  210 1    
   177   90   91 1    
   178   90   92 1    
   179   90  211 1    
   180   91  212 1    
   181   91  213 1    
   182   91  214 1    
   183   92   93 2    
   184   92   94 am   BACKBONE|DICT|INTERRES
   185   94   95 1    
   186   94  215 1    
   187   95   96 1    
   188   95   97 1    
   189   95  216 1    
   190   96  217 1    
   191   96  218 1    
   192   96  219 1    
   193   97   98 2    
   194   97   99 am   BACKBONE|DICT|INTERRES
   195   99  100 1    
   196   99  220 1    
   197  100  101 1    
   198  100  102 1    
   199  100  221 1    
   200  101  222 1    
   201  101  223 1    
   202  101  224 1    
   203  102  103 2    
   204  102  104 am   BACKBONE|DICT|INTERRES
   205  104  105 1    
   206  104  225 1    
   207  105  106 1    
   208  105  107 1    
   209  105  226 1    
   210  106  227 1    
   211  106  228 1    
   212  106  229 1    
   213  107  108 2    
   214  107  109 am   BACKBONE|DICT|INTERRES
   215  109  110 1    
   216  109  230 1    
   217  110  111 1    
   218  110  112 1    
   219  110  231 1    
   220  111  232 1    
   221  111  233 1    
   222  111  234 1    
   223  112  113 2    
   224  112  114 am   BACKBONE|DICT|INTERRES
   225  114  115 1    
   226  114  235 1    
   227  115  116 1    
   228  115  117 1    
   229  115  236 1    
   230  116  237 1    
   231  116  238 1    
   232  116  239 1    
   233  117  118 2    
   234  117  119 am   BACKBONE|DICT|INTERRES
   235  119  120 1    
   236  119  240 1    
   237  120  121 1    
   238  120  124 1    
   239  120  241 1    
   240  121  122 am   BACKBONE|DICT|INTERRES
   241  121  123 2    
   242  122  242 1    
   243  122  243 1    
   244  124  125 1    
   245  124  244 1    
   246  124  245 1    
   247  125  126 1    
   248  126  246 1    
   249  126  247 1    
@<TRIPOS>SUBSTRUCTURE
     1 UNK         1 GROUP             0       ****    0 ROOT    
