@<TRIPOS>MOLECULE
3R540
247   249    1
SMALL
USER_CHARGES


@<TRIPOS>ATOM
      1 CA          5.4697  -13.2865  -52.5247 C.3       0 UNK        -0.1800 
      2 C           4.7038  -12.9032  -51.2662 C.2       0 UNK         0.5000 
      3 O           4.8452  -11.7807  -50.7797 O.2       0 UNK        -0.5000 
      4 N           3.9019  -13.8326  -50.7347 N.am      1 UNK        -0.5000 
      5 CA          3.0460  -13.6279  -49.5638 C.3       1 UNK         0.1400 
      6 C6          2.4962  -14.9652  -49.0084 C.3       23 UNK        -0.0398 
      7 S7          3.7722  -16.0872  -48.3445 S.3       23 UNK        -0.2404 
      8 C8          3.9121  -17.3581  -49.6445 C.3       23 UNK        -0.0205 
      9 C9          2.6366  -18.1716  -49.8264 C.ar      23 UNK        -0.0193 
     10 C10         1.7685  -17.8832  -50.8819 C.ar      23 UNK        -0.1150 
     11 C11         0.5963  -18.6193  -51.0613 C.ar      23 UNK        -0.0193 
     12 C12         0.3191  -19.6878  -50.2049 C.ar      23 UNK        -0.1150 
     13 C13         1.1896  -20.0137  -49.1602 C.ar      23 UNK        -0.0193 
     14 C14         2.3369  -19.2306  -48.9633 C.ar      23 UNK        -0.1150 
     15 C15         0.8527  -21.2057  -48.2642 C.3       23 UNK        -0.0205 
     16 S16         2.3192  -22.1022  -47.6484 S.3       23 UNK        -0.2404 
     17 C17         1.8233  -23.8527  -47.8071 C.3       23 UNK        -0.0398 
     18 CA          1.0962  -24.4478  -46.5725 C.3       11 UNK         0.1400 
     19 N           1.7134  -24.0432  -45.3067 N.am      11 UNK        -0.5000 
     20 C           1.4387  -24.5510  -44.0989 C.2       10 UNK         0.5000 
     21 O           0.6609  -25.4878  -43.9155 O.2       10 UNK        -0.5000 
     22 CA          2.1044  -23.8630  -42.8906 C.3       10 UNK         0.1400 
     23 CB          3.3673  -24.6288  -42.4690 C.3       10 UNK        -0.1800 
     24 N           2.4494  -22.4503  -43.1032 N.am      10 UNK        -0.5000 
     25 C           1.5769  -21.4746  -43.3943 C.2       9 UNK         0.5000 
     26 O           0.3828  -21.6760  -43.6221 O.2       9 UNK        -0.5000 
     27 CA          2.1505  -20.0462  -43.4764 C.3       9 UNK         0.1400 
     28 CB          2.5565  -19.7057  -44.9179 C.3       9 UNK        -0.1800 
     29 N           1.2070  -19.0351  -43.0022 N.am      9 UNK        -0.5000 
     30 C           0.7417  -18.9342  -41.7502 C.2       8 UNK         0.5000 
     31 O           1.1003  -19.6647  -40.8248 O.2       8 UNK        -0.5000 
     32 CA         -0.2843  -17.8192  -41.4743 C.3       8 UNK         0.1400 
     33 CB          0.4253  -16.5283  -41.0376 C.3       8 UNK        -0.1800 
     34 N          -1.1461  -17.5326  -42.6221 N.am      8 UNK        -0.5000 
     35 C          -2.1485  -18.3220  -43.0327 C.2       7 UNK         0.5000 
     36 O          -2.4714  -19.3659  -42.4658 O.2       7 UNK        -0.5000 
     37 CA         -2.9451  -17.8535  -44.2656 C.3       7 UNK         0.1400 
     38 CB         -4.0595  -16.8882  -43.8293 C.3       7 UNK        -0.1800 
     39 N          -2.1052  -17.2068  -45.2751 N.am      7 UNK        -0.5000 
     40 C          -1.1930  -17.8422  -46.0263 C.2       6 UNK         0.5000 
     41 O          -1.0270  -19.0585  -46.0145 O.2       6 UNK        -0.5000 
     42 CA         -0.2819  -16.9736  -46.9108 C.3       6 UNK         0.1400 
     43 CB         -0.9403  -16.6891  -48.2658 C.3       6 UNK        -0.1800 
     44 N           0.0742  -15.7082  -46.2755 N.am      6 UNK        -0.5000 
     45 C           0.8035  -15.5844  -45.1599 C.2       5 UNK         0.5000 
     46 O           1.2986  -16.5334  -44.5549 O.2       5 UNK        -0.5000 
     47 CA          0.9495  -14.1621  -44.5941 C.3       5 UNK         0.1400 
     48 CB          2.0768  -13.3953  -45.3017 C.3       5 UNK        -0.1800 
     49 N          -0.3018  -13.4090  -44.6940 N.am      5 UNK        -0.5000 
     50 C          -1.3880  -13.6555  -43.9487 C.2       4 UNK         0.5000 
     51 O          -1.4290  -14.5183  -43.0724 O.2       4 UNK        -0.5000 
     52 CA         -2.6456  -12.8198  -44.2517 C.3       4 UNK         0.1400 
     53 CB         -2.5912  -11.4747  -43.5124 C.3       4 UNK        -0.1800 
     54 N          -2.8375  -12.5781  -45.6829 N.am      4 UNK        -0.5000 
     55 C          -3.1705  -13.5251  -46.5714 C.2       3 UNK         0.5000 
     56 O          -3.3665  -14.7024  -46.2727 O.2       3 UNK        -0.5000 
     57 CA         -3.2443  -13.0900  -48.0497 C.3       3 UNK         0.1400 
     58 CB         -4.6186  -12.4766  -48.3568 C.3       3 UNK        -0.1800 
     59 N          -2.1864  -12.1521  -48.4545 N.am      3 UNK        -0.5000 
     60 C          -0.8748  -12.3940  -48.3276 C.2       2 UNK         0.5000 
     61 O          -0.4283  -13.4062  -47.7845 O.2       2 UNK        -0.5000 
     62 CA          0.1056  -11.3183  -48.8373 C.3       2 UNK         0.1400 
     63 CB          0.1395  -10.1240  -47.8704 C.3       2 UNK        -0.1800 
     64 N           1.4528  -11.8857  -48.9241 N.am      2 UNK        -0.5000 
     65 C           1.8551  -12.7063  -49.9019 C.2       1 UNK         0.5000 
     66 O           1.2806  -12.8139  -50.9882 O.2       1 UNK        -0.5000 
     67 C          -0.4304  -24.2135  -46.6309 C.2       11 UNK         0.5000 
     68 O          -1.0902  -24.8624  -47.4412 O.2       11 UNK        -0.5000 
     69 N          -0.9840  -23.3595  -45.7534 N.am      12 UNK        -0.5000 
     70 CA         -2.4266  -23.1353  -45.6119 C.3       12 UNK         0.1400 
     71 CB         -2.6733  -21.9472  -44.6739 C.3       12 UNK        -0.1800 
     72 C          -3.2143  -24.3638  -45.1134 C.2       12 UNK         0.5000 
     73 O          -4.4338  -24.4021  -45.2785 O.2       12 UNK        -0.5000 
     74 N          -2.5187  -25.3474  -44.5233 N.am      13 UNK        -0.5000 
     75 CA         -3.0823  -26.6401  -44.1291 C.3       13 UNK         0.1400 
     76 CB         -2.1189  -27.3198  -43.1438 C.3       13 UNK        -0.1800 
     77 C          -3.3727  -27.5686  -45.3285 C.2       13 UNK         0.5000 
     78 O          -4.0795  -28.5632  -45.1588 O.2       13 UNK        -0.5000 
     79 N          -2.8232  -27.2417  -46.5044 N.am      14 UNK        -0.5000 
     80 CA         -3.0084  -27.9495  -47.7655 C.3       14 UNK         0.1400 
     81 CB         -1.6203  -28.3823  -48.2730 C.3       14 UNK        -0.1800 
     82 C          -3.7041  -27.0308  -48.7861 C.2       14 UNK         0.5000 
     83 O          -3.9535  -25.8558  -48.5104 O.2       14 UNK        -0.5000 
     84 N          -3.9753  -27.5803  -49.9760 N.am      15 UNK        -0.5000 
     85 CA         -4.4971  -26.8497  -51.1366 C.3       15 UNK         0.1400 
     86 CB         -5.2289  -27.8455  -52.0516 C.3       15 UNK        -0.1800 
     87 C          -3.4017  -26.0887  -51.9182 C.2       15 UNK         0.5000 
     88 O          -3.7114  -25.4651  -52.9349 O.2       15 UNK        -0.5000 
     89 N          -2.1466  -26.1724  -51.4509 N.am      16 UNK        -0.5000 
     90 CA         -0.9410  -25.5652  -52.0142 C.3       16 UNK         0.1400 
     91 CB          0.2316  -25.8265  -51.0567 C.3       16 UNK        -0.1800 
     92 C          -1.1036  -24.0592  -52.2900 C.2       16 UNK         0.5000 
     93 O          -1.3268  -23.2841  -51.3571 O.2       16 UNK        -0.5000 
     94 N          -1.0445  -23.6973  -53.5801 N.am      17 UNK        -0.5000 
     95 CA         -1.2326  -22.3512  -54.1377 C.3       17 UNK         0.1400 
     96 CB         -0.0463  -21.4462  -53.7504 C.3       17 UNK        -0.1800 
     97 C          -2.6051  -21.7169  -53.8083 C.2       17 UNK         0.5000 
     98 O          -2.7308  -20.4925  -53.8250 O.2       17 UNK        -0.5000 
     99 N          -3.6032  -22.5656  -53.5136 N.am      18 UNK        -0.5000 
    100 CA        -4.9506  -22.2350  -53.0404 C.3       18 UNK         0.1400 
    101 CB        -5.7366  -21.4360  -54.1009 C.3       18 UNK        -0.1800 
    102 C         -4.9714  -21.5787  -51.6413 C.2       18 UNK         0.5000 
    103 O         -5.9405  -20.8951  -51.3058 O.2       18 UNK        -0.5000 
    104 N         -3.9240  -21.8194  -50.8354 N.am      19 UNK        -0.5000 
    105 CA        -3.7287  -21.3048  -49.4779 C.3       19 UNK         0.1400 
    106 CB        -4.7226  -21.9769  -48.5016 C.3       19 UNK        -0.1800 
    107 C         -3.7519  -19.7608  -49.4459 C.2       19 UNK         0.5000 
    108 O         -2.9949  -19.1341  -50.1838 O.2       19 UNK        -0.5000 
    109 N         -4.6206  -19.1718  -48.6144 N.am      20 UNK        -0.5000 
    110 CA        -4.7619  -17.7270  -48.4218 C.3       20 UNK         0.1400 
    111 CB        -5.6770  -17.4914  -47.2125 C.3       20 UNK        -0.1800 
    112 C         -5.3023  -16.9615  -49.6475 C.2       20 UNK         0.5000 
    113 O         -5.1570  -15.7388  -49.7028 O.2       20 UNK        -0.5000 
    114 N         -5.9259  -17.6734  -50.5998 N.am      21 UNK        -0.5000 
    115 CA        -6.6152  -17.1056  -51.7631 C.3       21 UNK         0.1400 
    116 CB        -7.3804  -18.2169  -52.4951 C.3       21 UNK        -0.1800 
    117 C         -5.7119  -16.3348  -52.7462 C.2       21 UNK         0.5000 
    118 O         -6.2360  -15.5620  -53.5502 O.2       21 UNK        -0.5000 
    119 N         -4.3884  -16.5277  -52.6639 N.am      22 UNK        -0.5000 
    120 CA        -3.3970  -15.7103  -53.3793 C.3       22 UNK         0.1400 
    121 C         -3.2604  -14.2463  -52.8571 C.2       22 UNK         0.5000 
    122 N         -3.7924  -13.8980  -51.6899 N.am      22 UNK        -0.7600 
    123 O         -2.6789  -13.4055  -53.5376 O.2       22 UNK        -0.5000 
    124 C124       -2.0262  -16.4233  -53.4908 C.3       23 UNK        -0.0398 
    125 S125       -1.1767  -16.6666  -51.8931 S.3       23 UNK        -0.2404 
    126 C126       -0.3575  -18.2618  -52.1896 C.3       23 UNK        -0.0205 
    127 H127        6.5424  -13.1975  -52.3531 H         1 UNK         0.0600 
    128 H128        5.1983  -12.6228  -53.3457 H         1 UNK         0.0600 
    129 H129        5.2588  -14.3112  -52.8320 H         1 UNK         0.0600 
    130 H130        3.8067  -14.7247  -51.1952 H         1 UNK         0.3000 
    131 H131        3.6453  -13.1512  -48.7848 H         1 UNK         0.0600 
    132 H132        1.8107  -14.7743  -48.1842 H         1 UNK         0.0800 
    133 H133        1.8997  -15.4703  -49.7658 H         1 UNK         0.0800 
    134 H134        4.2021  -16.8850  -50.5834 H         1 UNK         0.0800 
    135 H135        4.7303  -18.0311  -49.3843 H         1 UNK         0.0800 
    136 H136        1.9910  -17.0698  -51.5581 H         1 UNK         0.1150 
    137 H137       -0.5797  -20.2695  -50.3553 H         1 UNK         0.1150 
    138 H138        3.0106  -19.4492  -48.1474 H         1 UNK         0.1150 
    139 H139        0.2713  -20.8572  -47.4108 H         1 UNK         0.0800 
    140 H140        0.2094  -21.8981  -48.8098 H         1 UNK         0.0800 
    141 H141        1.2500  -23.9915  -48.7244 H         1 UNK         0.0800 
    142 H142        2.7436  -24.4160  -47.9662 H         1 UNK         0.0800 
    143 H143        1.2151  -25.5319  -46.6336 H         1 UNK         0.0600 
    144 H144        2.3449  -23.2571  -45.3629 H         1 UNK         0.3000 
    145 H145        1.3896  -23.9033  -42.0662 H         1 UNK         0.0600 
    146 H146        3.7920  -24.2175  -41.5531 H         1 UNK         0.0600 
    147 H147        3.1423  -25.6789  -42.2771 H         1 UNK         0.0600 
    148 H148        4.1356  -24.5938  -43.2425 H         1 UNK         0.0600 
    149 H149        3.4171  -22.2049  -42.9511 H         1 UNK         0.3000 
    150 H150        3.0387  -19.9901  -42.8441 H         1 UNK         0.0600 
    151 H151        3.2921  -20.4156  -45.2968 H         1 UNK         0.0600 
    152 H152        3.0041  -18.7137  -44.9804 H         1 UNK         0.0600 
    153 H153        1.6982  -19.7258  -45.5907 H         1 UNK         0.0600 
    154 H154        0.8973  -18.3526  -43.6849 H         1 UNK         0.3000 
    155 H155       -0.9162  -18.1503  -40.6474 H         1 UNK         0.0600 
    156 H156        1.0504  -16.7036  -40.1612 H         1 UNK         0.0600 
    157 H157       -0.2938  -15.7525  -40.7741 H         1 UNK         0.0600 
    158 H158        1.0680  -16.1357  -41.8257 H         1 UNK         0.0600 
    159 H159       -0.9850  -16.6573  -43.1052 H         1 UNK         0.3000 
    160 H160       -3.4082  -18.7304  -44.7226 H         1 UNK         0.0600 
    161 H161       -3.6583  -16.0147  -43.3156 H         1 UNK         0.0600 
    162 H162       -4.7527  -17.3793  -43.1454 H         1 UNK         0.0600 
    163 H163       -4.6394  -16.5296  -44.6777 H         1 UNK         0.0600 
    164 H164       -2.2373  -16.2102  -45.4070 H         1 UNK         0.3000 
    165 H165        0.6396  -17.5321  -47.0895 H         1 UNK         0.0600 
    166 H166       -0.2491  -16.1891  -48.9425 H         1 UNK         0.0600 
    167 H167       -1.2524  -17.6139  -48.7511 H         1 UNK         0.0600 
    168 H168       -1.8187  -16.0532  -48.1638 H         1 UNK         0.0600 
    169 H169       -0.2611  -14.8627  -46.7333 H         1 UNK         0.3000 
    170 H170        1.2149  -14.2500  -43.5384 H         1 UNK         0.0600 
    171 H171        3.0163  -13.9471  -45.2494 H         1 UNK         0.0600 
    172 H172        1.8539  -13.2285  -46.3539 H         1 UNK         0.0600 
    173 H173        2.2431  -12.4236  -44.8367 H         1 UNK         0.0600 
    174 H174       -0.3692  -12.7333  -45.4401 H         1 UNK         0.3000 
    175 H175       -3.5096  -13.3764  -43.8820 H         1 UNK         0.0600 
    176 H176       -1.7606  -10.8573  -43.8567 H         1 UNK         0.0600 
    177 H177       -3.5122  -10.9091  -43.6551 H         1 UNK         0.0600 
    178 H178       -2.4663  -11.6246  -42.4391 H         1 UNK         0.0600 
    179 H179       -2.6879  -11.6368  -46.0145 H         1 UNK         0.3000 
    180 H180       -3.1309  -13.9894  -48.6584 H         1 UNK         0.0600 
    181 H181       -4.7881  -11.5604  -47.7900 H         1 UNK         0.0600 
    182 H182       -5.4190  -13.1737  -48.1041 H         1 UNK         0.0600 
    183 H183       -4.7219  -12.2403  -49.4153 H         1 UNK         0.0600 
    184 H184       -2.4880  -11.2901  -48.8852 H         1 UNK         0.3000 
    185 H185       -0.2184  -10.9781  -49.8230 H         1 UNK         0.0600 
    186 H186       -0.8378   -9.6449  -47.8007 H         1 UNK         0.0600 
    187 H187        0.4298  -10.4265  -46.8632 H         1 UNK         0.0600 
    188 H188        0.8461   -9.3656  -48.2080 H         1 UNK         0.0600 
    189 H189        1.9851  -11.8648  -48.0675 H         1 UNK         0.3000 
    190 H190       -0.3891  -22.8567  -45.1012 H         1 UNK         0.3000 
    191 H191       -2.8095  -22.8820  -46.6003 H         1 UNK         0.0600 
    192 H192       -2.3405  -22.1610  -43.6574 H         1 UNK         0.0600 
    193 H193       -3.7329  -21.6939  -44.6269 H         1 UNK         0.0600 
    194 H194       -2.1437  -21.0608  -45.0133 H         1 UNK         0.0600 
    195 H195       -1.5180  -25.2388  -44.4088 H         1 UNK         0.3000 
    196 H196       -4.0284  -26.4628  -43.6134 H         1 UNK         0.0600 
    197 H197       -2.5355  -28.2570  -42.7726 H         1 UNK         0.0600 
    198 H198       -1.9244  -26.6856  -42.2787 H         1 UNK         0.0600 
    199 H199       -1.1617  -27.5500  -43.6132 H         1 UNK         0.0600 
    200 H200       -2.3285  -26.3600  -46.5850 H         1 UNK         0.3000 
    201 H201       -3.6320  -28.8352  -47.6290 H         1 UNK         0.0600 
    202 H202       -1.1126  -29.0059  -47.5369 H         1 UNK         0.0600 
    203 H203       -0.9797  -27.5229  -48.4763 H         1 UNK         0.0600 
    204 H204       -1.6914  -28.9668  -49.1907 H         1 UNK         0.0600 
    205 H205       -3.7511  -28.5535  -50.1291 H         1 UNK         0.3000 
    206 H206       -5.2223  -26.1080  -50.7954 H         1 UNK         0.0600 
    207 H207       -6.0300  -28.3566  -51.5173 H         1 UNK         0.0600 
    208 H208       -5.6837  -27.3371  -52.9028 H         1 UNK         0.0600 
    209 H209       -4.5506  -28.6031  -52.4461 H         1 UNK         0.0600 
    210 H210       -2.0154  -26.6845  -50.5930 H         1 UNK         0.3000 
    211 H211       -0.7285  -26.0752  -52.9558 H         1 UNK         0.0600 
    212 H212        1.1440  -25.3423  -51.4074 H         1 UNK         0.0600 
    213 H213        0.4410  -26.8928  -50.9702 H         1 UNK         0.0600 
    214 H214        0.0175  -25.4471  -50.0573 H         1 UNK         0.0600 
    215 H215       -0.8966  -24.4238  -54.2670 H         1 UNK         0.3000 
    216 H216       -1.2149  -22.4668  -55.2223 H         1 UNK         0.0600 
    217 H217       -0.1041  -20.4827  -54.2573 H         1 UNK         0.0600 
    218 H218        0.9038  -21.9000  -54.0318 H         1 UNK         0.0600 
    219 H219       -0.0193  -21.2564  -52.6778 H         1 UNK         0.0600 
    220 H220       -3.3952  -23.5598  -53.5132 H         1 UNK         0.3000 
    221 H221       -5.4601  -23.1916  -52.9180 H         1 UNK         0.0600 
    222 H222       -6.7821  -21.3248  -53.8116 H         1 UNK         0.0600 
    223 H223       -5.7219  -21.9428  -55.0657 H         1 UNK         0.0600 
    224 H224       -5.3283  -20.4354  -54.2420 H         1 UNK         0.0600 
    225 H225       -3.1444  -22.3544  -51.2047 H         1 UNK         0.3000 
    226 H226       -2.7210  -21.5985  -49.1794 H         1 UNK         0.0600 
    227 H227       -4.5923  -23.0595  -48.5030 H         1 UNK         0.0600 
    228 H228       -4.5678  -21.6394  -47.4765 H         1 UNK         0.0600 
    229 H229       -5.7614  -21.7725  -48.7621 H         1 UNK         0.0600 
    230 H230       -5.2344  -19.7589  -48.0694 H         1 UNK         0.3000 
    231 H231       -3.7771  -17.3223  -48.1876 H         1 UNK         0.0600 
    232 H232       -5.7134  -16.4321  -46.9536 H         1 UNK         0.0600 
    233 H233       -5.3191  -18.0311  -46.3366 H         1 UNK         0.0600 
    234 H234       -6.6986  -17.8180  -47.4109 H         1 UNK         0.0600 
    235 H235       -5.9589  -18.6811  -50.5074 H         1 UNK         0.3000 
    236 H236       -7.3477  -16.3915  -51.3817 H         1 UNK         0.0600 
    237 H237       -8.0382  -18.7626  -51.8185 H         1 UNK         0.0600 
    238 H238       -8.0012  -17.8054  -53.2919 H         1 UNK         0.0600 
    239 H239       -6.6972  -18.9312  -52.9515 H         1 UNK         0.0600 
    240 H240       -4.0258  -17.1708  -51.9729 H         1 UNK         0.3000 
    241 H241       -3.7634  -15.6093  -54.4027 H         1 UNK         0.0600 
    242 H242       -3.7058  -12.9448  -51.3812 H         1 UNK         0.3800 
    243 H243       -4.2690  -14.5787  -51.1078 H         1 UNK         0.3800 
    244 H244       -2.1675  -17.3929  -53.9710 H         1 UNK         0.0800 
    245 H245       -1.3602  -15.8625  -54.1486 H         1 UNK         0.0800 
    246 H246       -1.1235  -19.0297  -52.3013 H         1 UNK         0.0800 
    247 H247        0.1944  -18.2226  -53.1295 H         1 UNK         0.0800 
@<TRIPOS>BOND
     1    1    2 1    
     2    1  127 1    
     3    1  128 1    
     4    1  129 1    
     5    2    3 2    
     6    2    4 am   BACKBONE|DICT|INTERRES
     7    4    5 1    
     8    4  130 1    
     9    5    6 1    
    10    5   65 1    
    11    5  131 1    
    12    6    7 1    
    13    6  132 1    
    14    6  133 1    
    15    7    8 1    
    16    8    9 1    
    17    8  134 1    
    18    8  135 1    
    19    9   10 ar   
    20    9   14 ar   
    21   10   11 ar   
    22   10  136 1    
    23   11   12 ar   
    24   11  126 1    
    25   12   13 ar   
    26   12  137 1    
    27   13   14 ar   
    28   13   15 1    
    29   14  138 1    
    30   15   16 1    
    31   15  139 1    
    32   15  140 1    
    33   16   17 1    
    34   17   18 1    
    35   17  141 1    
    36   17  142 1    
    37   18   19 1    
    38   18   67 1    
    39   18  143 1    
    40   19   20 am   BACKBONE|DICT|INTERRES
    41   19  144 1    
    42   20   21 2    
    43   20   22 1    
    44   22   23 1    
    45   22   24 1    
    46   22  145 1    
    47   23  146 1    
    48   23  147 1    
    49   23  148 1    
    50   24   25 am   BACKBONE|DICT|INTERRES
    51   24  149 1    
    52   25   26 2    
    53   25   27 1    
    54   27   28 1    
    55   27   29 1    
    56   27  150 1    
    57   28  151 1    
    58   28  152 1    
    59   28  153 1    
    60   29   30 am   BACKBONE|DICT|INTERRES
    61   29  154 1    
    62   30   31 2    
    63   30   32 1    
    64   32   33 1    
    65   32   34 1    
    66   32  155 1    
    67   33  156 1    
    68   33  157 1    
    69   33  158 1    
    70   34   35 am   BACKBONE|DICT|INTERRES
    71   34  159 1    
    72   35   36 2    
    73   35   37 1    
    74   37   38 1    
    75   37   39 1    
    76   37  160 1    
    77   38  161 1    
    78   38  162 1    
    79   38  163 1    
    80   39   40 am   BACKBONE|DICT|INTERRES
    81   39  164 1    
    82   40   41 2    
    83   40   42 1    
    84   42   43 1    
    85   42   44 1    
    86   42  165 1    
    87   43  166 1    
    88   43  167 1    
    89   43  168 1    
    90   44   45 am   BACKBONE|DICT|INTERRES
    91   44  169 1    
    92   45   46 2    
    93   45   47 1    
    94   47   48 1    
    95   47   49 1    
    96   47  170 1    
    97   48  171 1    
    98   48  172 1    
    99   48  173 1    
   100   49   50 am   BACKBONE|DICT|INTERRES
   101   49  174 1    
   102   50   51 2    
   103   50   52 1    
   104   52   53 1    
   105   52   54 1    
   106   52  175 1    
   107   53  176 1    
   108   53  177 1    
   109   53  178 1    
   110   54   55 am   BACKBONE|DICT|INTERRES
   111   54  179 1    
   112   55   56 2    
   113   55   57 1    
   114   57   58 1    
   115   57   59 1    
   116   57  180 1    
   117   58  181 1    
   118   58  182 1    
   119   58  183 1    
   120   59   60 am   BACKBONE|DICT|INTERRES
   121   59  184 1    
   122   60   61 2    
   123   60   62 1    
   124   62   63 1    
   125   62   64 1    
   126   62  185 1    
   127   63  186 1    
   128   63  187 1    
   129   63  188 1    
   130   64   65 am   BACKBONE|DICT|INTERRES
   131   64  189 1    
   132   65   66 2    
   133   67   68 2    
   134   67   69 am   BACKBONE|DICT|INTERRES
   135   69   70 1    
   136   69  190 1    
   137   70   71 1    
   138   70   72 1    
   139   70  191 1    
   140   71  192 1    
   141   71  193 1    
   142   71  194 1    
   143   72   73 2    
   144   72   74 am   BACKBONE|DICT|INTERRES
   145   74   75 1    
   146   74  195 1    
   147   75   76 1    
   148   75   77 1    
   149   75  196 1    
   150   76  197 1    
   151   76  198 1    
   152   76  199 1    
   153   77   78 2    
   154   77   79 am   BACKBONE|DICT|INTERRES
   155   79   80 1    
   156   79  200 1    
   157   80   81 1    
   158   80   82 1    
   159   80  201 1    
   160   81  202 1    
   161   81  203 1    
   162   81  204 1    
   163   82   83 2    
   164   82   84 am   BACKBONE|DICT|INTERRES
   165   84   85 1    
   166   84  205 1    
   167   85   86 1    
   168   85   87 1    
   169   85  206 1    
   170   86  207 1    
   171   86  208 1    
   172   86  209 1    
   173   87   88 2    
   174   87   89 am   BACKBONE|DICT|INTERRES
   175   89   90 1    
   176   89  210 1    
   177   90   91 1    
   178   90   92 1    
   179   90  211 1    
   180   91  212 1    
   181   91  213 1    
   182   91  214 1    
   183   92   93 2    
   184   92   94 am   BACKBONE|DICT|INTERRES
   185   94   95 1    
   186   94  215 1    
   187   95   96 1    
   188   95   97 1    
   189   95  216 1    
   190   96  217 1    
   191   96  218 1    
   192   96  219 1    
   193   97   98 2    
   194   97   99 am   BACKBONE|DICT|INTERRES
   195   99  100 1    
   196   99  220 1    
   197  100  101 1    
   198  100  102 1    
   199  100  221 1    
   200  101  222 1    
   201  101  223 1    
   202  101  224 1    
   203  102  103 2    
   204  102  104 am   BACKBONE|DICT|INTERRES
   205  104  105 1    
   206  104  225 1    
   207  105  106 1    
   208  105  107 1    
   209  105  226 1    
   210  106  227 1    
   211  106  228 1    
   212  106  229 1    
   213  107  108 2    
   214  107  109 am   BACKBONE|DICT|INTERRES
   215  109  110 1    
   216  109  230 1    
   217  110  111 1    
   218  110  112 1    
   219  110  231 1    
   220  111  232 1    
   221  111  233 1    
   222  111  234 1    
   223  112  113 2    
   224  112  114 am   BACKBONE|DICT|INTERRES
   225  114  115 1    
   226  114  235 1    
   227  115  116 1    
   228  115  117 1    
   229  115  236 1    
   230  116  237 1    
   231  116  238 1    
   232  116  239 1    
   233  117  118 2    
   234  117  119 am   BACKBONE|DICT|INTERRES
   235  119  120 1    
   236  119  240 1    
   237  120  121 1    
   238  120  124 1    
   239  120  241 1    
   240  121  122 am   BACKBONE|DICT|INTERRES
   241  121  123 2    
   242  122  242 1    
   243  122  243 1    
   244  124  125 1    
   245  124  244 1    
   246  124  245 1    
   247  125  126 1    
   248  126  246 1    
   249  126  247 1    
@<TRIPOS>SUBSTRUCTURE
     1 UNK         1 GROUP             0       ****    0 ROOT    
