@<TRIPOS>MOLECULE
3R540
247   249    1
SMALL
USER_CHARGES


@<TRIPOS>ATOM
      1 CA          0.7536  -11.6012  -45.6422 C.3       0 UNK        -0.1800 
      2 C           1.9570  -11.8586  -46.5378 C.2       0 UNK         0.5000 
      3 O           2.9685  -11.1685  -46.4157 O.2       0 UNK        -0.5000 
      4 N           1.8619  -12.8603  -47.4244 N.am      1 UNK        -0.5000 
      5 CA          2.9218  -13.2855  -48.3528 C.3       1 UNK         0.1400 
      6 C6          2.3973  -14.3757  -49.3201 C.3       23 UNK        -0.0398 
      7 S7          3.5172  -14.7224  -50.7208 S.3       23 UNK        -0.2404 
      8 C8          2.3659  -15.4010  -51.9581 C.3       23 UNK        -0.0205 
      9 C9          1.5673  -16.5832  -51.4259 C.ar      23 UNK        -0.0193 
     10 C10         0.1814  -16.4795  -51.2730 C.ar      23 UNK        -0.1150 
     11 C11        -0.5630  -17.5610  -50.7961 C.ar      23 UNK        -0.0193 
     12 C12         0.0904  -18.7487  -50.4607 C.ar      23 UNK        -0.1150 
     13 C13         1.4755  -18.8645  -50.6004 C.ar      23 UNK        -0.0193 
     14 C14         2.2086  -17.7806  -51.0919 C.ar      23 UNK        -0.1150 
     15 C15         2.1715  -20.1700  -50.2457 C.3       23 UNK        -0.0205 
     16 S16         3.0289  -20.1103  -48.6369 S.3       23 UNK        -0.2404 
     17 C17         1.6890  -19.7951  -47.4365 C.3       23 UNK        -0.0398 
     18 CA          0.9444  -21.0816  -46.9851 C.3       11 UNK         0.1400 
     19 N           0.6178  -21.0733  -45.5560 N.am      11 UNK        -0.5000 
     20 C           0.0953  -22.1071  -44.8796 C.2       10 UNK         0.5000 
     21 O          -0.0900  -23.2212  -45.3696 O.2       10 UNK        -0.5000 
     22 CA         -0.3548  -21.8340  -43.4314 C.3       10 UNK         0.1400 
     23 CB          0.8202  -21.9605  -42.4508 C.3       10 UNK        -0.1800 
     24 N          -0.9929  -20.5234  -43.2848 N.am      10 UNK        -0.5000 
     25 C          -2.1491  -20.1839  -43.8737 C.2       9 UNK         0.5000 
     26 O          -2.8311  -20.9693  -44.5307 O.2       9 UNK        -0.5000 
     27 CA         -2.5962  -18.7154  -43.7579 C.3       9 UNK         0.1400 
     28 CB         -3.3321  -18.4713  -42.4325 C.3       9 UNK        -0.1800 
     29 N          -1.4846  -17.7725  -43.8925 N.am      9 UNK        -0.5000 
     30 C          -0.7482  -17.6158  -45.0021 C.2       8 UNK         0.5000 
     31 O          -0.9671  -18.2127  -46.0555 O.2       8 UNK        -0.5000 
     32 CA          0.4776  -16.6883  -44.9032 C.3       8 UNK         0.1400 
     33 CB          0.0786  -15.2159  -45.0710 C.3       8 UNK        -0.1800 
     34 N           1.2064  -16.8606  -43.6464 N.am      8 UNK        -0.5000 
     35 C           1.8265  -17.9928  -43.2835 C.2       7 UNK         0.5000 
     36 O           1.8977  -18.9885  -44.0017 O.2       7 UNK        -0.5000 
     37 CA          2.4207  -18.0393  -41.8662 C.3       7 UNK         0.1400 
     38 CB          3.8095  -17.3874  -41.8200 C.3       7 UNK        -0.1800 
     39 N           1.5398  -17.3995  -40.8910 N.am      7 UNK        -0.5000 
     40 C           0.3699  -17.9149  -40.4880 C.2       6 UNK         0.5000 
     41 O          -0.0648  -19.0017  -40.8687 O.2       6 UNK        -0.5000 
     42 CA         -0.4710  -17.0494  -39.5322 C.3       6 UNK         0.1400 
     43 CB         -0.0108  -17.2424  -38.0797 C.3       6 UNK        -0.1800 
     44 N          -0.4196  -15.6265  -39.8733 N.am      6 UNK        -0.5000 
     45 C          -0.9378  -15.0983  -40.9913 C.2       5 UNK         0.5000 
     46 O          -1.5412  -15.7530  -41.8394 O.2       5 UNK        -0.5000 
     47 CA         -0.6975  -13.5961  -41.2244 C.3       5 UNK         0.1400 
     48 CB         -1.7804  -12.7593  -40.5278 C.3       5 UNK        -0.1800 
     49 N           0.6256  -13.1509  -40.7799 N.am      5 UNK        -0.5000 
     50 C           1.7810  -13.5694  -41.3111 C.2       4 UNK         0.5000 
     51 O           1.8569  -14.4060  -42.2148 O.2       4 UNK        -0.5000 
     52 CA          3.0661  -12.9909  -40.7001 C.3       4 UNK         0.1400 
     53 CB          3.6993  -13.9901  -39.7205 C.3       4 UNK        -0.1800 
     54 N           4.0252  -12.6750  -41.7530 N.am      4 UNK        -0.5000 
     55 C           3.9827  -11.5751  -42.5116 C.2       3 UNK         0.5000 
     56 O           3.1768  -10.6597  -42.3393 O.2       3 UNK        -0.5000 
     57 CA          4.9971  -11.4819  -43.6650 C.3       3 UNK         0.1400 
     58 CB          6.4270  -11.2228  -43.1516 C.3       3 UNK        -0.1800 
     59 N           4.9410  -12.6197  -44.5902 N.am      3 UNK        -0.5000 
     60 C           5.2955  -13.8991  -44.3938 C.2       2 UNK         0.5000 
     61 O           5.7569  -14.3212  -43.3321 O.2       2 UNK        -0.5000 
     62 CA          5.0813  -14.8712  -45.5752 C.3       2 UNK         0.1400 
     63 CB          4.7338  -16.2924  -45.1070 C.3       2 UNK        -0.1800 
     64 N           4.0188  -14.4132  -46.4708 N.am      2 UNK        -0.5000 
     65 C           4.2030  -13.7430  -47.6151 C.2       1 UNK         0.5000 
     66 O           5.3114  -13.4415  -48.0592 O.2       1 UNK        -0.5000 
     67 C          -0.3130  -21.3345  -47.8415 C.2       11 UNK         0.5000 
     68 O          -0.2874  -22.2033  -48.7104 O.2       11 UNK        -0.5000 
     69 N          -1.4006  -20.6011  -47.5584 N.am      12 UNK        -0.5000 
     70 CA         -2.7022  -20.7442  -48.2149 C.3       12 UNK         0.1400 
     71 CB         -3.6673  -19.6637  -47.7028 C.3       12 UNK        -0.1800 
     72 C          -3.3111  -22.1452  -48.0352 C.2       12 UNK         0.5000 
     73 O          -3.8164  -22.7092  -49.0040 O.2       12 UNK        -0.5000 
     74 N          -3.2147  -22.6928  -46.8149 N.am      13 UNK        -0.5000 
     75 CA         -3.6188  -24.0567  -46.4752 C.3       13 UNK         0.1400 
     76 CB         -3.4851  -24.2826  -44.9617 C.3       13 UNK        -0.1800 
     77 C          -2.8327  -25.1149  -47.2695 C.2       13 UNK         0.5000 
     78 O          -3.4470  -25.9984  -47.8698 O.2       13 UNK        -0.5000 
     79 N          -1.4985  -24.9752  -47.2943 N.am      14 UNK        -0.5000 
     80 CA         -0.5800  -25.8303  -48.0494 C.3       14 UNK         0.1400 
     81 CB          0.8699  -25.4641  -47.6984 C.3       14 UNK        -0.1800 
     82 C          -0.8078  -25.7649  -49.5712 C.2       14 UNK         0.5000 
     83 O          -0.7669  -26.8001  -50.2378 O.2       14 UNK        -0.5000 
     84 N          -1.0994  -24.5649  -50.0885 N.am      15 UNK        -0.5000 
     85 CA         -1.4571  -24.2824  -51.4795 C.3       15 UNK         0.1400 
     86 CB         -1.1910  -22.7937  -51.7634 C.3       15 UNK        -0.1800 
     87 C          -2.9081  -24.6969  -51.8134 C.2       15 UNK         0.5000 
     88 O          -3.6824  -23.8845  -52.3232 O.2       15 UNK        -0.5000 
     89 N          -3.2479  -25.9586  -51.5104 N.am      16 UNK        -0.5000 
     90 CA         -4.5186  -26.6433  -51.7761 C.3       16 UNK         0.1400 
     91 CB         -4.6497  -26.9355  -53.2855 C.3       16 UNK        -0.1800 
     92 C          -5.7519  -25.9089  -51.2089 C.2       16 UNK         0.5000 
     93 O          -6.7909  -25.8557  -51.8680 O.2       16 UNK        -0.5000 
     94 N          -5.6028  -25.3118  -50.0164 N.am      17 UNK        -0.5000 
     95 CA         -6.5921  -24.4665  -49.3321 C.3       17 UNK         0.1400 
     96 CB         -7.7800  -25.3178  -48.8382 C.3       17 UNK        -0.1800 
     97 C          -7.0386  -23.2355  -50.1560 C.2       17 UNK         0.5000 
     98 O          -8.1548  -22.7467  -49.9729 O.2       17 UNK        -0.5000 
     99 N          -6.1613  -22.7729  -51.0595 N.am      18 UNK        -0.5000 
    100 CA        -6.3557  -21.7018  -52.0366 C.3       18 UNK         0.1400 
    101 CB        -6.5228  -20.3377  -51.3355 C.3       18 UNK        -0.1800 
    102 C         -7.4702  -21.9946  -53.0652 C.2       18 UNK         0.5000 
    103 O         -8.0545  -21.0555  -53.6107 O.2       18 UNK        -0.5000 
    104 N         -7.7411  -23.2808  -53.3389 N.am      19 UNK        -0.5000 
    105 CA        -8.6634  -23.7290  -54.3832 C.3       19 UNK         0.1400 
    106 CB        -8.8674  -25.2479  -54.2779 C.3       19 UNK        -0.1800 
    107 C         -8.1345  -23.3333  -55.7739 C.2       19 UNK         0.5000 
    108 O         -7.0363  -23.7525  -56.1441 O.2       19 UNK        -0.5000 
    109 N         -8.9104  -22.5024  -56.4854 N.am      20 UNK        -0.5000 
    110 CA        -8.5528  -21.8208  -57.7379 C.3       20 UNK         0.1400 
    111 CB        -8.3378  -22.8302  -58.8861 C.3       20 UNK        -0.1800 
    112 C         -7.3779  -20.8283  -57.5652 C.2       20 UNK         0.5000 
    113 O         -6.5903  -20.6413  -58.4944 O.2       20 UNK        -0.5000 
    114 N         -7.3143  -20.2063  -56.3767 N.am      21 UNK        -0.5000 
    115 CA        -6.2880  -19.3032  -55.8461 C.3       21 UNK         0.1400 
    116 CB        -5.9865  -18.1302  -56.8003 C.3       21 UNK        -0.1800 
    117 C         -5.0034  -20.0413  -55.4231 C.2       21 UNK         0.5000 
    118 O         -4.6560  -21.0852  -55.9773 O.2       21 UNK        -0.5000 
    119 N         -4.3159  -19.4704  -54.4285 N.am      22 UNK        -0.5000 
    120 CA        -3.0459  -19.9749  -53.8797 C.3       22 UNK         0.1400 
    121 C         -1.7909  -19.7112  -54.7659 C.2       22 UNK         0.5000 
    122 N         -1.8749  -18.9130  -55.8236 N.am      22 UNK        -0.7600 
    123 O         -0.7246  -20.2573  -54.4988 O.2       22 UNK        -0.5000 
    124 C124       -2.8337  -19.5025  -52.4177 C.3       23 UNK        -0.0398 
    125 S125       -2.9544  -17.6901  -52.2037 S.3       23 UNK        -0.2404 
    126 C126       -2.0700  -17.4391  -50.6336 C.3       23 UNK        -0.0205 
    127 H127        1.0090  -11.8139  -44.6036 H         1 UNK         0.0600 
    128 H128       -0.0992  -12.2216  -45.9183 H         1 UNK         0.0600 
    129 H129        0.4499  -10.5568  -45.7124 H         1 UNK         0.0600 
    130 H130        0.9938  -13.3718  -47.4887 H         1 UNK         0.3000 
    131 H131        3.1879  -12.4080  -48.9463 H         1 UNK         0.0600 
    132 H132        2.2012  -15.3087  -48.7881 H         1 UNK         0.0800 
    133 H133        1.4396  -14.0575  -49.7348 H         1 UNK         0.0800 
    134 H134        2.9341  -15.7194  -52.8331 H         1 UNK         0.0800 
    135 H135        1.7019  -14.6047  -52.2984 H         1 UNK         0.0800 
    136 H136       -0.3233  -15.5593  -51.5320 H         1 UNK         0.1150 
    137 H137       -0.4815  -19.5882  -50.0966 H         1 UNK         0.1150 
    138 H138        3.2803  -17.8652  -51.2069 H         1 UNK         0.1150 
    139 H139        1.4648  -20.9995  -50.2549 H         1 UNK         0.0800 
    140 H140        2.9053  -20.4016  -51.0190 H         1 UNK         0.0800 
    141 H141        1.0125  -19.0251  -47.8100 H         1 UNK         0.0800 
    142 H142        2.1814  -19.3362  -46.5793 H         1 UNK         0.0800 
    143 H143        1.6098  -21.9354  -47.1306 H         1 UNK         0.0600 
    144 H144        0.7996  -20.2110  -45.0514 H         1 UNK         0.3000 
    145 H145       -1.0936  -22.5931  -43.1665 H         1 UNK         0.0600 
    146 H146        0.4924  -21.8114  -41.4219 H         1 UNK         0.0600 
    147 H147        1.2691  -22.9527  -42.5093 H         1 UNK         0.0600 
    148 H148        1.6050  -21.2345  -42.6597 H         1 UNK         0.0600 
    149 H149       -0.5153  -19.8409  -42.7064 H         1 UNK         0.3000 
    150 H150       -3.2964  -18.5189  -44.5723 H         1 UNK         0.0600 
    151 H151       -4.1765  -19.1529  -42.3235 H         1 UNK         0.0600 
    152 H152       -3.7254  -17.4559  -42.3820 H         1 UNK         0.0600 
    153 H153       -2.6774  -18.6192  -41.5738 H         1 UNK         0.0600 
    154 H154       -1.2839  -17.1899  -43.0844 H         1 UNK         0.3000 
    155 H155        1.1566  -16.9484  -45.7180 H         1 UNK         0.0600 
    156 H156       -0.6268  -14.8994  -44.3029 H         1 UNK         0.0600 
    157 H157       -0.3936  -15.0480  -46.0395 H         1 UNK         0.0600 
    158 H158        0.9499  -14.5645  -45.0096 H         1 UNK         0.0600 
    159 H159        1.2418  -16.0603  -43.0214 H         1 UNK         0.3000 
    160 H160        2.5343  -19.0888  -41.5863 H         1 UNK         0.0600 
    161 H161        3.7775  -16.3391  -42.1173 H         1 UNK         0.0600 
    162 H162        4.4986  -17.8984  -42.4931 H         1 UNK         0.0600 
    163 H163        4.2377  -17.4404  -40.8191 H         1 UNK         0.0600 
    164 H164        1.8037  -16.4806  -40.5702 H         1 UNK         0.3000 
    165 H165       -1.5088  -17.3806  -39.6088 H         1 UNK         0.0600 
    166 H166       -0.6489  -16.6923  -37.3878 H         1 UNK         0.0600 
    167 H167       -0.0543  -18.2942  -37.7937 H         1 UNK         0.0600 
    168 H168        1.0156  -16.9041  -37.9320 H         1 UNK         0.0600 
    169 H169        0.0590  -15.0162  -39.2277 H         1 UNK         0.3000 
    170 H170       -0.7669  -13.4139  -42.2989 H         1 UNK         0.0600 
    171 H171       -2.7765  -13.0590  -40.8568 H         1 UNK         0.0600 
    172 H172       -1.7445  -12.8734  -39.4437 H         1 UNK         0.0600 
    173 H173       -1.6691  -11.6997  -40.7584 H         1 UNK         0.0600 
    174 H174        0.6444  -12.4661  -40.0378 H         1 UNK         0.3000 
    175 H175        2.8242  -12.0785  -40.1508 H         1 UNK         0.0600 
    176 H176        4.0051  -14.9091  -40.2195 H         1 UNK         0.0600 
    177 H177        4.5815  -13.5636  -39.2430 H         1 UNK         0.0600 
    178 H178        3.0006  -14.2610  -38.9280 H         1 UNK         0.0600 
    179 H179        4.6738  -13.4075  -42.0269 H         1 UNK         0.3000 
    180 H180        4.7104  -10.6134  -44.2601 H         1 UNK         0.0600 
    181 H181        6.7931  -12.0327  -42.5204 H         1 UNK         0.0600 
    182 H182        6.4639  -10.3090  -42.5574 H         1 UNK         0.0600 
    183 H183        7.1258  -11.1005  -43.9791 H         1 UNK         0.0600 
    184 H184        4.5238  -12.3918  -45.4847 H         1 UNK         0.3000 
    185 H185        6.0293  -14.9239  -46.1141 H         1 UNK         0.0600 
    186 H186        5.5184  -16.7056  -44.4723 H         1 UNK         0.0600 
    187 H187        3.8060  -16.2973  -44.5392 H         1 UNK         0.0600 
    188 H188        4.6117  -16.9696  -45.9525 H         1 UNK         0.0600 
    189 H189        3.0731  -14.5716  -46.1567 H         1 UNK         0.3000 
    190 H190       -1.3236  -19.8690  -46.8562 H         1 UNK         0.3000 
    191 H191       -2.5494  -20.5855  -49.2836 H         1 UNK         0.0600 
    192 H192       -3.9405  -19.8259  -46.6606 H         1 UNK         0.0600 
    193 H193       -4.5898  -19.6621  -48.2843 H         1 UNK         0.0600 
    194 H194       -3.2318  -18.6676  -47.7754 H         1 UNK         0.0600 
    195 H195       -2.8394  -22.1272  -46.0582 H         1 UNK         0.3000 
    196 H196       -4.6735  -24.1628  -46.7275 H         1 UNK         0.0600 
    197 H197       -3.8203  -25.2833  -44.6866 H         1 UNK         0.0600 
    198 H198       -4.0926  -23.5708  -44.4024 H         1 UNK         0.0600 
    199 H199       -2.4548  -24.1786  -44.6236 H         1 UNK         0.0600 
    200 H200       -1.0756  -24.2255  -46.7543 H         1 UNK         0.3000 
    201 H201       -0.7554  -26.8609  -47.7343 H         1 UNK         0.0600 
    202 H202        1.0593  -25.5855  -46.6317 H         1 UNK         0.0600 
    203 H203        1.1005  -24.4317  -47.9622 H         1 UNK         0.0600 
    204 H204        1.5748  -26.1048  -48.2296 H         1 UNK         0.0600 
    205 H205       -1.0664  -23.7584  -49.4698 H         1 UNK         0.3000 
    206 H206       -0.8015  -24.8648  -52.1298 H         1 UNK         0.0600 
    207 H207       -0.1534  -22.5305  -51.5585 H         1 UNK         0.0600 
    208 H208       -1.3842  -22.5522  -52.8089 H         1 UNK         0.0600 
    209 H209       -1.8259  -22.1542  -51.1499 H         1 UNK         0.0600 
    210 H210       -2.5298  -26.5225  -51.0654 H         1 UNK         0.3000 
    211 H211       -4.4682  -27.5998  -51.2543 H         1 UNK         0.0600 
    212 H212       -4.7507  -26.0174  -53.8659 H         1 UNK         0.0600 
    213 H213       -5.5257  -27.5515  -53.4924 H         1 UNK         0.0600 
    214 H214       -3.7801  -27.4753  -53.6602 H         1 UNK         0.0600 
    215 H215       -4.7078  -25.3995  -49.5477 H         1 UNK         0.3000 
    216 H216       -6.0952  -24.0625  -48.4527 H         1 UNK         0.0600 
    217 H217       -8.4455  -24.7321  -48.2032 H         1 UNK         0.0600 
    218 H218       -7.4367  -26.1674  -48.2480 H         1 UNK         0.0600 
    219 H219       -8.3745  -25.7026  -49.6673 H         1 UNK         0.0600 
    220 H220       -5.2684  -23.2515  -51.1316 H         1 UNK         0.3000 
    221 H221       -5.4299  -21.6616  -52.6111 H         1 UNK         0.0600 
    222 H222       -7.4811  -20.2625  -50.8211 H         1 UNK         0.0600 
    223 H223       -5.7352  -20.1715  -50.6007 H         1 UNK         0.0600 
    224 H224       -6.4730  -19.5197  -52.0549 H         1 UNK         0.0600 
    225 H225       -7.2313  -24.0073  -52.8486 H         1 UNK         0.3000 
    226 H226       -9.6276  -23.2460  -54.2115 H         1 UNK         0.0600 
    227 H227       -9.2695  -25.5250  -53.3032 H         1 UNK         0.0600 
    228 H228       -9.5700  -25.6006  -55.0337 H         1 UNK         0.0600 
    229 H229       -7.9317  -25.7907  -54.4196 H         1 UNK         0.0600 
    230 H230       -9.7941  -22.2204  -56.0834 H         1 UNK         0.3000 
    231 H231       -9.4173  -21.2110  -58.0040 H         1 UNK         0.0600 
    232 H232       -9.1806  -23.5160  -58.9720 H         1 UNK         0.0600 
    233 H233       -7.4344  -23.4236  -58.7437 H         1 UNK         0.0600 
    234 H234       -8.2404  -22.3164  -59.8430 H         1 UNK         0.0600 
    235 H235       -7.9840  -20.5013  -55.6753 H         1 UNK         0.3000 
    236 H236       -6.7286  -18.8820  -54.9408 H         1 UNK         0.0600 
    237 H237       -5.3753  -17.3751  -56.3050 H         1 UNK         0.0600 
    238 H238       -5.4407  -18.4528  -57.6872 H         1 UNK         0.0600 
    239 H239       -6.9035  -17.6402  -57.1277 H         1 UNK         0.0600 
    240 H240       -4.6387  -18.5988  -54.0326 H         1 UNK         0.3000 
    241 H241       -3.1310  -21.0628  -53.8379 H         1 UNK         0.0600 
    242 H242       -1.0572  -18.7574  -56.3918 H         1 UNK         0.3800 
    243 H243       -2.7424  -18.4592  -56.0573 H         1 UNK         0.3800 
    244 H244       -3.5801  -19.9665  -51.7731 H         1 UNK         0.0800 
    245 H245       -1.8715  -19.8539  -52.0469 H         1 UNK         0.0800 
    246 H246       -2.4353  -18.1507  -49.8950 H         1 UNK         0.0800 
    247 H247       -2.3133  -16.4485  -50.2467 H         1 UNK         0.0800 
@<TRIPOS>BOND
     1    1    2 1    
     2    1  127 1    
     3    1  128 1    
     4    1  129 1    
     5    2    3 2    
     6    2    4 am   BACKBONE|DICT|INTERRES
     7    4    5 1    
     8    4  130 1    
     9    5    6 1    
    10    5   65 1    
    11    5  131 1    
    12    6    7 1    
    13    6  132 1    
    14    6  133 1    
    15    7    8 1    
    16    8    9 1    
    17    8  134 1    
    18    8  135 1    
    19    9   10 ar   
    20    9   14 ar   
    21   10   11 ar   
    22   10  136 1    
    23   11   12 ar   
    24   11  126 1    
    25   12   13 ar   
    26   12  137 1    
    27   13   14 ar   
    28   13   15 1    
    29   14  138 1    
    30   15   16 1    
    31   15  139 1    
    32   15  140 1    
    33   16   17 1    
    34   17   18 1    
    35   17  141 1    
    36   17  142 1    
    37   18   19 1    
    38   18   67 1    
    39   18  143 1    
    40   19   20 am   BACKBONE|DICT|INTERRES
    41   19  144 1    
    42   20   21 2    
    43   20   22 1    
    44   22   23 1    
    45   22   24 1    
    46   22  145 1    
    47   23  146 1    
    48   23  147 1    
    49   23  148 1    
    50   24   25 am   BACKBONE|DICT|INTERRES
    51   24  149 1    
    52   25   26 2    
    53   25   27 1    
    54   27   28 1    
    55   27   29 1    
    56   27  150 1    
    57   28  151 1    
    58   28  152 1    
    59   28  153 1    
    60   29   30 am   BACKBONE|DICT|INTERRES
    61   29  154 1    
    62   30   31 2    
    63   30   32 1    
    64   32   33 1    
    65   32   34 1    
    66   32  155 1    
    67   33  156 1    
    68   33  157 1    
    69   33  158 1    
    70   34   35 am   BACKBONE|DICT|INTERRES
    71   34  159 1    
    72   35   36 2    
    73   35   37 1    
    74   37   38 1    
    75   37   39 1    
    76   37  160 1    
    77   38  161 1    
    78   38  162 1    
    79   38  163 1    
    80   39   40 am   BACKBONE|DICT|INTERRES
    81   39  164 1    
    82   40   41 2    
    83   40   42 1    
    84   42   43 1    
    85   42   44 1    
    86   42  165 1    
    87   43  166 1    
    88   43  167 1    
    89   43  168 1    
    90   44   45 am   BACKBONE|DICT|INTERRES
    91   44  169 1    
    92   45   46 2    
    93   45   47 1    
    94   47   48 1    
    95   47   49 1    
    96   47  170 1    
    97   48  171 1    
    98   48  172 1    
    99   48  173 1    
   100   49   50 am   BACKBONE|DICT|INTERRES
   101   49  174 1    
   102   50   51 2    
   103   50   52 1    
   104   52   53 1    
   105   52   54 1    
   106   52  175 1    
   107   53  176 1    
   108   53  177 1    
   109   53  178 1    
   110   54   55 am   BACKBONE|DICT|INTERRES
   111   54  179 1    
   112   55   56 2    
   113   55   57 1    
   114   57   58 1    
   115   57   59 1    
   116   57  180 1    
   117   58  181 1    
   118   58  182 1    
   119   58  183 1    
   120   59   60 am   BACKBONE|DICT|INTERRES
   121   59  184 1    
   122   60   61 2    
   123   60   62 1    
   124   62   63 1    
   125   62   64 1    
   126   62  185 1    
   127   63  186 1    
   128   63  187 1    
   129   63  188 1    
   130   64   65 am   BACKBONE|DICT|INTERRES
   131   64  189 1    
   132   65   66 2    
   133   67   68 2    
   134   67   69 am   BACKBONE|DICT|INTERRES
   135   69   70 1    
   136   69  190 1    
   137   70   71 1    
   138   70   72 1    
   139   70  191 1    
   140   71  192 1    
   141   71  193 1    
   142   71  194 1    
   143   72   73 2    
   144   72   74 am   BACKBONE|DICT|INTERRES
   145   74   75 1    
   146   74  195 1    
   147   75   76 1    
   148   75   77 1    
   149   75  196 1    
   150   76  197 1    
   151   76  198 1    
   152   76  199 1    
   153   77   78 2    
   154   77   79 am   BACKBONE|DICT|INTERRES
   155   79   80 1    
   156   79  200 1    
   157   80   81 1    
   158   80   82 1    
   159   80  201 1    
   160   81  202 1    
   161   81  203 1    
   162   81  204 1    
   163   82   83 2    
   164   82   84 am   BACKBONE|DICT|INTERRES
   165   84   85 1    
   166   84  205 1    
   167   85   86 1    
   168   85   87 1    
   169   85  206 1    
   170   86  207 1    
   171   86  208 1    
   172   86  209 1    
   173   87   88 2    
   174   87   89 am   BACKBONE|DICT|INTERRES
   175   89   90 1    
   176   89  210 1    
   177   90   91 1    
   178   90   92 1    
   179   90  211 1    
   180   91  212 1    
   181   91  213 1    
   182   91  214 1    
   183   92   93 2    
   184   92   94 am   BACKBONE|DICT|INTERRES
   185   94   95 1    
   186   94  215 1    
   187   95   96 1    
   188   95   97 1    
   189   95  216 1    
   190   96  217 1    
   191   96  218 1    
   192   96  219 1    
   193   97   98 2    
   194   97   99 am   BACKBONE|DICT|INTERRES
   195   99  100 1    
   196   99  220 1    
   197  100  101 1    
   198  100  102 1    
   199  100  221 1    
   200  101  222 1    
   201  101  223 1    
   202  101  224 1    
   203  102  103 2    
   204  102  104 am   BACKBONE|DICT|INTERRES
   205  104  105 1    
   206  104  225 1    
   207  105  106 1    
   208  105  107 1    
   209  105  226 1    
   210  106  227 1    
   211  106  228 1    
   212  106  229 1    
   213  107  108 2    
   214  107  109 am   BACKBONE|DICT|INTERRES
   215  109  110 1    
   216  109  230 1    
   217  110  111 1    
   218  110  112 1    
   219  110  231 1    
   220  111  232 1    
   221  111  233 1    
   222  111  234 1    
   223  112  113 2    
   224  112  114 am   BACKBONE|DICT|INTERRES
   225  114  115 1    
   226  114  235 1    
   227  115  116 1    
   228  115  117 1    
   229  115  236 1    
   230  116  237 1    
   231  116  238 1    
   232  116  239 1    
   233  117  118 2    
   234  117  119 am   BACKBONE|DICT|INTERRES
   235  119  120 1    
   236  119  240 1    
   237  120  121 1    
   238  120  124 1    
   239  120  241 1    
   240  121  122 am   BACKBONE|DICT|INTERRES
   241  121  123 2    
   242  122  242 1    
   243  122  243 1    
   244  124  125 1    
   245  124  244 1    
   246  124  245 1    
   247  125  126 1    
   248  126  246 1    
   249  126  247 1    
@<TRIPOS>SUBSTRUCTURE
     1 UNK         1 GROUP             0       ****    0 ROOT    
