@<TRIPOS>MOLECULE
3R540
247   249    1
SMALL
USER_CHARGES


@<TRIPOS>ATOM
      1 CA          3.7263  -10.9423  -51.5810 C.3       0 UNK        -0.1800 
      2 C           3.4806  -11.9427  -50.4604 C.2       0 UNK         0.5000 
      3 O           4.3617  -12.7455  -50.1512 O.2       0 UNK        -0.5000 
      4 N           2.2882  -11.9004  -49.8529 N.am      1 UNK        -0.5000 
      5 CA          1.8878  -12.7415  -48.7230 C.3       1 UNK         0.1400 
      6 C6          0.3452  -12.9168  -48.6706 C.3       23 UNK        -0.0398 
      7 S7         -0.1319  -14.5345  -47.9793 S.3       23 UNK        -0.2404 
      8 C8         -0.4335  -15.4601  -49.5135 C.3       23 UNK        -0.0205 
      9 C9         -0.6278  -16.9455  -49.2586 C.ar      23 UNK        -0.0193 
     10 C10        -1.8309  -17.4157  -48.7271 C.ar      23 UNK        -0.1150 
     11 C11        -2.0542  -18.7872  -48.5801 C.ar      23 UNK        -0.0193 
     12 C12        -1.0499  -19.6897  -48.9458 C.ar      23 UNK        -0.1150 
     13 C13         0.1708  -19.2297  -49.4505 C.ar      23 UNK        -0.0193 
     14 C14         0.3752  -17.8557  -49.6024 C.ar      23 UNK        -0.1150 
     15 C15         1.2568  -20.2097  -49.8725 C.3       23 UNK        -0.0205 
     16 S16         2.3499  -20.6662  -48.4892 S.3       23 UNK        -0.2404 
     17 C17         1.2701  -21.8019  -47.5610 C.3       23 UNK        -0.0398 
     18 CA          2.0447  -22.6957  -46.5608 C.3       11 UNK         0.1400 
     19 N           2.5797  -21.9118  -45.4424 N.am      11 UNK        -0.5000 
     20 C           3.5264  -22.3200  -44.5877 C.2       10 UNK         0.5000 
     21 O           4.1401  -23.3812  -44.7028 O.2       10 UNK        -0.5000 
     22 CA          3.7845  -21.4179  -43.3640 C.3       10 UNK         0.1400 
     23 CB          4.8043  -20.3185  -43.6957 C.3       10 UNK        -0.1800 
     24 N           2.5560  -20.8155  -42.8333 N.am      10 UNK        -0.5000 
     25 C           1.5436  -21.5107  -42.2931 C.2       9 UNK         0.5000 
     26 O           1.5614  -22.7320  -42.1452 O.2       9 UNK        -0.5000 
     27 CA          0.2781  -20.7317  -41.8950 C.3       9 UNK         0.1400 
     28 CB          0.4447  -20.0968  -40.5066 C.3       9 UNK        -0.1800 
     29 N          -0.0863  -19.7073  -42.8730 N.am      9 UNK        -0.5000 
     30 C          -0.5069  -19.9570  -44.1217 C.2       8 UNK         0.5000 
     31 O          -0.6940  -21.0902  -44.5672 O.2       8 UNK        -0.5000 
     32 CA         -0.7040  -18.7401  -45.0467 C.3       8 UNK         0.1400 
     33 CB         -2.0727  -18.0874  -44.8129 C.3       8 UNK        -0.1800 
     34 N           0.3548  -17.7391  -44.9051 N.am      8 UNK        -0.5000 
     35 C           1.6492  -17.9823  -45.1548 C.2       7 UNK         0.5000 
     36 O           2.0750  -19.0661  -45.5489 O.2       7 UNK        -0.5000 
     37 CA          2.6462  -16.8555  -44.8436 C.3       7 UNK         0.1400 
     38 CB          2.7072  -15.8320  -45.9856 C.3       7 UNK        -0.1800 
     39 N           2.3421  -16.1861  -43.5795 N.am      7 UNK        -0.5000 
     40 C           2.4478  -16.7663  -42.3760 C.2       6 UNK         0.5000 
     41 O           2.8636  -17.9125  -42.2048 O.2       6 UNK        -0.5000 
     42 CA          1.9620  -15.9466  -41.1661 C.3       6 UNK         0.1400 
     43 CB          2.9974  -14.8852  -40.7760 C.3       6 UNK        -0.1800 
     44 N           0.6691  -15.3049  -41.4096 N.am      6 UNK        -0.5000 
     45 C          -0.4775  -15.9776  -41.5873 C.2       5 UNK         0.5000 
     46 O          -0.5650  -17.2022  -41.5228 O.2       5 UNK        -0.5000 
     47 CA         -1.7358  -15.1594  -41.9301 C.3       5 UNK         0.1400 
     48 CB         -2.4917  -14.7764  -40.6494 C.3       5 UNK        -0.1800 
     49 N          -1.4652  -13.9503  -42.7051 N.am      5 UNK        -0.5000 
     50 C          -0.8361  -13.8957  -43.8869 C.2       4 UNK         0.5000 
     51 O          -0.4039  -14.8857  -44.4781 O.2       4 UNK        -0.5000 
     52 CA         -0.6426  -12.4941  -44.4967 C.3       4 UNK         0.1400 
     53 CB         -1.7850  -11.5173  -44.1464 C.3       4 UNK        -0.1800 
     54 N           0.6490  -11.8840  -44.1687 N.am      4 UNK        -0.5000 
     55 C           1.2244  -11.7194  -42.9653 C.2       3 UNK         0.5000 
     56 O           0.7679  -12.1669  -41.9114 O.2       3 UNK        -0.5000 
     57 CA          2.5245  -10.8818  -42.9477 C.3       3 UNK         0.1400 
     58 CB          3.3803  -11.0734  -41.6783 C.3       3 UNK        -0.1800 
     59 N           3.3385  -11.0378  -44.1575 N.am      3 UNK        -0.5000 
     60 C           3.8562  -12.1765  -44.6386 C.2       2 UNK         0.5000 
     61 O           3.7644  -13.2703  -44.0807 O.2       2 UNK        -0.5000 
     62 CA          4.5553  -12.0671  -46.0074 C.3       2 UNK         0.1400 
     63 CB          5.8905  -12.8296  -46.0161 C.3       2 UNK        -0.1800 
     64 N           3.7268  -12.5501  -47.1156 N.am      2 UNK        -0.5000 
     65 C           2.4841  -12.1537  -47.4263 C.2       1 UNK         0.5000 
     66 O           1.8487  -11.3132  -46.7856 O.2       1 UNK        -0.5000 
     67 C           1.1309  -23.8554  -46.1000 C.2       11 UNK         0.5000 
     68 O           0.7732  -24.6895  -46.9321 O.2       11 UNK        -0.5000 
     69 N           0.7180  -23.8693  -44.8223 N.am      12 UNK        -0.5000 
     70 CA         -0.2638  -24.7758  -44.2131 C.3       12 UNK         0.1400 
     71 CB          0.3040  -26.2066  -44.1158 C.3       12 UNK        -0.1800 
     72 C          -1.6362  -24.7112  -44.9192 C.2       12 UNK         0.5000 
     73 O          -2.2782  -25.7412  -45.1281 O.2       12 UNK        -0.5000 
     74 N          -2.0258  -23.4894  -45.3147 N.am      13 UNK        -0.5000 
     75 CA         -3.1903  -23.1250  -46.1295 C.3       13 UNK         0.1400 
     76 CB         -4.5095  -23.5151  -45.4326 C.3       13 UNK        -0.1800 
     77 C          -3.1304  -23.6203  -47.5925 C.2       13 UNK         0.5000 
     78 O          -4.1322  -23.5075  -48.3014 O.2       13 UNK        -0.5000 
     79 N          -1.9696  -24.1373  -48.0315 N.am      14 UNK        -0.5000 
     80 CA         -1.6900  -24.7033  -49.3541 C.3       14 UNK         0.1400 
     81 CB         -1.5945  -23.5721  -50.4042 C.3       14 UNK        -0.1800 
     82 C          -2.7019  -25.8153  -49.7045 C.2       14 UNK         0.5000 
     83 O          -2.6787  -26.8761  -49.0784 O.2       14 UNK        -0.5000 
     84 N          -3.5980  -25.5274  -50.6516 N.am      15 UNK        -0.5000 
     85 CA         -4.8162  -26.2842  -50.9269 C.3       15 UNK         0.1400 
     86 CB         -4.5864  -27.2447  -52.1086 C.3       15 UNK        -0.1800 
     87 C          -5.9801  -25.3029  -51.1627 C.2       15 UNK         0.5000 
     88 O          -6.8783  -25.5955  -51.9532 O.2       15 UNK        -0.5000 
     89 N          -5.9274  -24.1339  -50.5019 N.am      16 UNK        -0.5000 
     90 CA         -6.8657  -23.0150  -50.6118 C.3       16 UNK         0.1400 
     91 CB         -8.1714  -23.3489  -49.8567 C.3       16 UNK        -0.1800 
     92 C          -7.0712  -22.5751  -52.0786 C.2       16 UNK         0.5000 
     93 O          -6.0901  -22.2880  -52.7690 O.2       16 UNK        -0.5000 
     94 N          -8.3264  -22.5667  -52.5437 N.am      17 UNK        -0.5000 
     95 CA         -8.7278  -22.2037  -53.9029 C.3       17 UNK         0.1400 
     96 CB        -10.2586  -22.0839  -53.9506 C.3       17 UNK        -0.1800 
     97 C          -8.2295  -23.1694  -54.9973 C.2       17 UNK         0.5000 
     98 O          -8.1509  -22.7569  -56.1545 O.2       17 UNK        -0.5000 
     99 N          -7.8935  -24.4184  -54.6357 N.am      18 UNK        -0.5000 
    100 CA        -7.3274  -25.4009  -55.5654 C.3       18 UNK         0.1400 
    101 CB        -7.5079  -26.8216  -55.0099 C.3       18 UNK        -0.1800 
    102 C         -5.8471  -25.1141  -55.8779 C.2       18 UNK         0.5000 
    103 O         -5.4022  -25.3864  -56.9936 O.2       18 UNK        -0.5000 
    104 N         -5.1218  -24.5442  -54.9045 N.am      19 UNK        -0.5000 
    105 CA        -3.7740  -24.0078  -55.0991 C.3       19 UNK         0.1400 
    106 CB        -3.0298  -23.9678  -53.7557 C.3       19 UNK        -0.1800 
    107 C         -3.8219  -22.6038  -55.7242 C.2       19 UNK         0.5000 
    108 O         -2.9844  -22.2844  -56.5676 O.2       19 UNK        -0.5000 
    109 N         -4.8002  -21.7988  -55.2812 N.am      20 UNK        -0.5000 
    110 CA        -5.0825  -20.4147  -55.6778 C.3       20 UNK         0.1400 
    111 CB        -5.3914  -20.3125  -57.1857 C.3       20 UNK        -0.1800 
    112 C         -4.0127  -19.4028  -55.2141 C.2       20 UNK         0.5000 
    113 O         -4.0043  -18.2648  -55.6860 O.2       20 UNK        -0.5000 
    114 N         -3.1472  -19.8188  -54.2783 N.am      21 UNK        -0.5000 
    115 CA        -2.1647  -18.9640  -53.6115 C.3       21 UNK         0.1400 
    116 CB        -1.1105  -19.8484  -52.9255 C.3       21 UNK        -0.1800 
    117 C         -2.8314  -18.0279  -52.5878 C.2       21 UNK         0.5000 
    118 O         -2.4073  -16.8815  -52.4380 O.2       21 UNK        -0.5000 
    119 N         -3.8668  -18.5432  -51.9151 N.am      22 UNK        -0.5000 
    120 CA        -4.6601  -17.8297  -50.9111 C.3       22 UNK         0.1400 
    121 C         -5.6551  -16.8276  -51.5559 C.2       22 UNK         0.5000 
    122 N         -5.8712  -15.6726  -50.9409 N.am      22 UNK        -0.7600 
    123 O         -6.2689  -17.1062  -52.5837 O.2       22 UNK        -0.5000 
    124 C124       -5.4028  -18.8058  -49.9620 C.3       23 UNK        -0.0398 
    125 S125       -4.3666  -20.1509  -49.2820 S.3       23 UNK        -0.2404 
    126 C126       -3.3720  -19.2987  -48.0175 C.3       23 UNK        -0.0205 
    127 H127        2.8626  -10.2980  -51.7467 H         1 UNK         0.0600 
    128 H128        3.9424  -11.4672  -52.5115 H         1 UNK         0.0600 
    129 H129        4.5806  -10.3102  -51.3386 H         1 UNK         0.0600 
    130 H130        1.6210  -11.1943  -50.1302 H         1 UNK         0.3000 
    131 H131        2.3288  -13.7294  -48.8773 H         1 UNK         0.0600 
    132 H132       -0.1483  -12.1246  -48.1056 H         1 UNK         0.0800 
    133 H133       -0.0762  -12.8473  -49.6745 H         1 UNK         0.0800 
    134 H134        0.4006  -15.3033  -50.1994 H         1 UNK         0.0800 
    135 H135       -1.3189  -15.0610  -50.0110 H         1 UNK         0.0800 
    136 H136       -2.5995  -16.7093  -48.4481 H         1 UNK         0.1150 
    137 H137       -1.2251  -20.7507  -48.8406 H         1 UNK         0.1150 
    138 H138        1.3094  -17.4963  -50.0103 H         1 UNK         0.1150 
    139 H139        0.8127  -21.1030  -50.3122 H         1 UNK         0.0800 
    140 H140        1.8661  -19.7646  -50.6604 H         1 UNK         0.0800 
    141 H141        0.5101  -21.2170  -47.0413 H         1 UNK         0.0800 
    142 H142        0.7409  -22.4132  -48.2937 H         1 UNK         0.0800 
    143 H143        2.8843  -23.1533  -47.0880 H         1 UNK         0.0600 
    144 H144        2.1991  -20.9752  -45.3297 H         1 UNK         0.3000 
    145 H145        4.2104  -22.0442  -42.5775 H         1 UNK         0.0600 
    146 H146        5.0242  -19.7067  -42.8206 H         1 UNK         0.0600 
    147 H147        4.4455  -19.6580  -44.4844 H         1 UNK         0.0600 
    148 H148        5.7459  -20.7513  -44.0356 H         1 UNK         0.0600 
    149 H149        2.4873  -19.8039  -42.8792 H         1 UNK         0.3000 
    150 H150       -0.5454  -21.4468  -41.8404 H         1 UNK         0.0600 
    151 H151        0.7178  -20.8467  -39.7632 H         1 UNK         0.0600 
    152 H152       -0.4834  -19.6326  -40.1730 H         1 UNK         0.0600 
    153 H153        1.2213  -19.3316  -40.5031 H         1 UNK         0.0600 
    154 H154       -0.0187  -18.7430  -42.5603 H         1 UNK         0.3000 
    155 H155       -0.6707  -19.1021  -46.0753 H         1 UNK         0.0600 
    156 H156       -2.8791  -18.8018  -44.9807 H         1 UNK         0.0600 
    157 H157       -2.2309  -17.2482  -45.4909 H         1 UNK         0.0600 
    158 H158       -2.1710  -17.7207  -43.7923 H         1 UNK         0.0600 
    159 H159        0.0808  -16.8037  -44.6184 H         1 UNK         0.3000 
    160 H160        3.6340  -17.3123  -44.7560 H         1 UNK         0.0600 
    161 H161        1.8484  -15.1628  -45.9695 H         1 UNK         0.0600 
    162 H162        2.7307  -16.3208  -46.9607 H         1 UNK         0.0600 
    163 H163        3.6055  -15.2217  -45.9094 H         1 UNK         0.0600 
    164 H164        1.9767  -15.2462  -43.6420 H         1 UNK         0.3000 
    165 H165        1.8440  -16.6311  -40.3233 H         1 UNK         0.0600 
    166 H166        2.6708  -14.3068  -39.9116 H         1 UNK         0.0600 
    167 H167        3.9529  -15.3458  -40.5224 H         1 UNK         0.0600 
    168 H168        3.1748  -14.1939  -41.5978 H         1 UNK         0.0600 
    169 H169        0.6603  -14.2948  -41.5006 H         1 UNK         0.3000 
    170 H170       -2.3889  -15.7916  -42.5327 H         1 UNK         0.0600 
    171 H171       -2.7303  -15.6611  -40.0573 H         1 UNK         0.0600 
    172 H172       -1.9021  -14.1086  -40.0198 H         1 UNK         0.0600 
    173 H173       -3.4333  -14.2779  -40.8800 H         1 UNK         0.0600 
    174 H174       -1.7284  -13.0760  -42.2745 H         1 UNK         0.3000 
    175 H175       -0.6508  -12.6307  -45.5786 H         1 UNK         0.0600 
    176 H176       -1.7765  -11.2298  -43.0945 H         1 UNK         0.0600 
    177 H177       -1.7056  -10.6035  -44.7353 H         1 UNK         0.0600 
    178 H178       -2.7595  -11.9561  -44.3651 H         1 UNK         0.0600 
    179 H179        1.1552  -11.5274  -44.9749 H         1 UNK         0.3000 
    180 H180        2.1880   -9.8442  -42.9469 H         1 UNK         0.0600 
    181 H181        4.1886  -10.3431  -41.6431 H         1 UNK         0.0600 
    182 H182        3.8324  -12.0619  -41.6325 H         1 UNK         0.0600 
    183 H183        2.7876  -10.9382  -40.7729 H         1 UNK         0.0600 
    184 H184        3.4310  -10.2043  -44.7217 H         1 UNK         0.3000 
    185 H185        4.7746  -11.0151  -46.2000 H         1 UNK         0.0600 
    186 H186        5.7444  -13.9034  -45.8933 H         1 UNK         0.0600 
    187 H187        6.4304  -12.6697  -46.9496 H         1 UNK         0.0600 
    188 H188        6.5375  -12.4924  -45.2052 H         1 UNK         0.0600 
    189 H189        4.1787  -13.1982  -47.7459 H         1 UNK         0.3000 
    190 H190        1.0675  -23.1465  -44.2057 H         1 UNK         0.3000 
    191 H191       -0.4276  -24.4148  -43.1970 H         1 UNK         0.0600 
    192 H192       -0.3666  -26.8554  -43.5513 H         1 UNK         0.0600 
    193 H193        1.2667  -26.2125  -43.6045 H         1 UNK         0.0600 
    194 H194        0.4433  -26.6565  -45.0991 H         1 UNK         0.0600 
    195 H195       -1.4265  -22.7036  -45.0648 H         1 UNK         0.3000 
    196 H196       -3.1683  -22.0377  -46.1860 H         1 UNK         0.0600 
    197 H197       -4.6542  -24.5953  -45.4108 H         1 UNK         0.0600 
    198 H198       -5.3667  -23.0844  -45.9515 H         1 UNK         0.0600 
    199 H199       -4.5369  -23.1499  -44.4060 H         1 UNK         0.0600 
    200 H200       -1.2162  -24.2477  -47.3633 H         1 UNK         0.3000 
    201 H201       -0.7123  -25.1831  -49.2914 H         1 UNK         0.0600 
    202 H202       -2.5201  -23.0018  -50.4940 H         1 UNK         0.0600 
    203 H203       -1.3436  -23.9709  -51.3872 H         1 UNK         0.0600 
    204 H204       -0.8066  -22.8686  -50.1411 H         1 UNK         0.0600 
    205 H205       -3.5434  -24.6197  -51.0903 H         1 UNK         0.3000 
    206 H206       -5.0887  -26.8745  -50.0496 H         1 UNK         0.0600 
    207 H207       -3.7275  -27.8916  -51.9302 H         1 UNK         0.0600 
    208 H208       -5.4516  -27.8914  -52.2575 H         1 UNK         0.0600 
    209 H209       -4.4148  -26.7082  -53.0413 H         1 UNK         0.0600 
    210 H210       -5.1768  -23.9883  -49.8298 H         1 UNK         0.3000 
    211 H211       -6.3985  -22.1706  -50.1053 H         1 UNK         0.0600 
    212 H212       -8.6976  -24.1958  -50.2989 H         1 UNK         0.0600 
    213 H213       -8.8519  -22.4967  -49.8422 H         1 UNK         0.0600 
    214 H214       -7.9605  -23.6020  -48.8175 H         1 UNK         0.0600 
    215 H215       -9.0677  -22.8477  -51.9186 H         1 UNK         0.3000 
    216 H216       -8.3027  -21.2221  -54.1227 H         1 UNK         0.0600 
    217 H217      -10.7433  -23.0321  -53.7145 H         1 UNK         0.0600 
    218 H218      -10.6189  -21.3361  -53.2438 H         1 UNK         0.0600 
    219 H219      -10.5972  -21.7803  -54.9422 H         1 UNK         0.0600 
    220 H220       -7.9481  -24.6909  -53.6610 H         1 UNK         0.3000 
    221 H221       -7.8812  -25.3436  -56.5051 H         1 UNK         0.0600 
    222 H222       -7.1999  -27.5651  -55.7458 H         1 UNK         0.0600 
    223 H223       -6.9109  -26.9888  -54.1148 H         1 UNK         0.0600 
    224 H224       -8.5505  -27.0213  -54.7622 H         1 UNK         0.0600 
    225 H225       -5.5792  -24.3361  -54.0281 H         1 UNK         0.3000 
    226 H226       -3.2163  -24.6594  -55.7752 H         1 UNK         0.0600 
    227 H227       -2.8567  -24.9734  -53.3755 H         1 UNK         0.0600 
    228 H228       -2.0517  -23.4971  -53.8655 H         1 UNK         0.0600 
    229 H229       -3.5812  -23.4060  -53.0013 H         1 UNK         0.0600 
    230 H230       -5.3776  -22.1411  -54.5178 H         1 UNK         0.3000 
    231 H231       -5.9933  -20.1411  -55.1433 H         1 UNK         0.0600 
    232 H232       -5.7745  -19.3237  -57.4398 H         1 UNK         0.0600 
    233 H233       -6.1493  -21.0382  -57.4817 H         1 UNK         0.0600 
    234 H234       -4.5045  -20.4834  -57.7961 H         1 UNK         0.0600 
    235 H235       -3.2175  -20.7727  -53.9591 H         1 UNK         0.3000 
    236 H236       -1.6645  -18.3492  -54.3627 H         1 UNK         0.0600 
    237 H237       -0.6116  -20.4995  -53.6434 H         1 UNK         0.0600 
    238 H238       -0.3417  -19.2361  -52.4529 H         1 UNK         0.0600 
    239 H239       -1.5501  -20.4768  -52.1493 H         1 UNK         0.0600 
    240 H240       -4.1577  -19.4867  -52.1176 H         1 UNK         0.3000 
    241 H241       -3.9674  -17.2459  -50.3079 H         1 UNK         0.0600 
    242 H242       -5.3879  -15.4219  -50.0924 H         1 UNK         0.3800 
    243 H243       -6.5284  -15.0222  -51.3432 H         1 UNK         0.3800 
    244 H244       -6.2303  -19.2826  -50.4908 H         1 UNK         0.0800 
    245 H245       -5.8543  -18.2592  -49.1325 H         1 UNK         0.0800 
    246 H246       -3.9500  -18.4906  -47.5670 H         1 UNK         0.0800 
    247 H247       -3.1552  -19.9990  -47.2126 H         1 UNK         0.0800 
@<TRIPOS>BOND
     1    1    2 1    
     2    1  127 1    
     3    1  128 1    
     4    1  129 1    
     5    2    3 2    
     6    2    4 am   BACKBONE|DICT|INTERRES
     7    4    5 1    
     8    4  130 1    
     9    5    6 1    
    10    5   65 1    
    11    5  131 1    
    12    6    7 1    
    13    6  132 1    
    14    6  133 1    
    15    7    8 1    
    16    8    9 1    
    17    8  134 1    
    18    8  135 1    
    19    9   10 ar   
    20    9   14 ar   
    21   10   11 ar   
    22   10  136 1    
    23   11   12 ar   
    24   11  126 1    
    25   12   13 ar   
    26   12  137 1    
    27   13   14 ar   
    28   13   15 1    
    29   14  138 1    
    30   15   16 1    
    31   15  139 1    
    32   15  140 1    
    33   16   17 1    
    34   17   18 1    
    35   17  141 1    
    36   17  142 1    
    37   18   19 1    
    38   18   67 1    
    39   18  143 1    
    40   19   20 am   BACKBONE|DICT|INTERRES
    41   19  144 1    
    42   20   21 2    
    43   20   22 1    
    44   22   23 1    
    45   22   24 1    
    46   22  145 1    
    47   23  146 1    
    48   23  147 1    
    49   23  148 1    
    50   24   25 am   BACKBONE|DICT|INTERRES
    51   24  149 1    
    52   25   26 2    
    53   25   27 1    
    54   27   28 1    
    55   27   29 1    
    56   27  150 1    
    57   28  151 1    
    58   28  152 1    
    59   28  153 1    
    60   29   30 am   BACKBONE|DICT|INTERRES
    61   29  154 1    
    62   30   31 2    
    63   30   32 1    
    64   32   33 1    
    65   32   34 1    
    66   32  155 1    
    67   33  156 1    
    68   33  157 1    
    69   33  158 1    
    70   34   35 am   BACKBONE|DICT|INTERRES
    71   34  159 1    
    72   35   36 2    
    73   35   37 1    
    74   37   38 1    
    75   37   39 1    
    76   37  160 1    
    77   38  161 1    
    78   38  162 1    
    79   38  163 1    
    80   39   40 am   BACKBONE|DICT|INTERRES
    81   39  164 1    
    82   40   41 2    
    83   40   42 1    
    84   42   43 1    
    85   42   44 1    
    86   42  165 1    
    87   43  166 1    
    88   43  167 1    
    89   43  168 1    
    90   44   45 am   BACKBONE|DICT|INTERRES
    91   44  169 1    
    92   45   46 2    
    93   45   47 1    
    94   47   48 1    
    95   47   49 1    
    96   47  170 1    
    97   48  171 1    
    98   48  172 1    
    99   48  173 1    
   100   49   50 am   BACKBONE|DICT|INTERRES
   101   49  174 1    
   102   50   51 2    
   103   50   52 1    
   104   52   53 1    
   105   52   54 1    
   106   52  175 1    
   107   53  176 1    
   108   53  177 1    
   109   53  178 1    
   110   54   55 am   BACKBONE|DICT|INTERRES
   111   54  179 1    
   112   55   56 2    
   113   55   57 1    
   114   57   58 1    
   115   57   59 1    
   116   57  180 1    
   117   58  181 1    
   118   58  182 1    
   119   58  183 1    
   120   59   60 am   BACKBONE|DICT|INTERRES
   121   59  184 1    
   122   60   61 2    
   123   60   62 1    
   124   62   63 1    
   125   62   64 1    
   126   62  185 1    
   127   63  186 1    
   128   63  187 1    
   129   63  188 1    
   130   64   65 am   BACKBONE|DICT|INTERRES
   131   64  189 1    
   132   65   66 2    
   133   67   68 2    
   134   67   69 am   BACKBONE|DICT|INTERRES
   135   69   70 1    
   136   69  190 1    
   137   70   71 1    
   138   70   72 1    
   139   70  191 1    
   140   71  192 1    
   141   71  193 1    
   142   71  194 1    
   143   72   73 2    
   144   72   74 am   BACKBONE|DICT|INTERRES
   145   74   75 1    
   146   74  195 1    
   147   75   76 1    
   148   75   77 1    
   149   75  196 1    
   150   76  197 1    
   151   76  198 1    
   152   76  199 1    
   153   77   78 2    
   154   77   79 am   BACKBONE|DICT|INTERRES
   155   79   80 1    
   156   79  200 1    
   157   80   81 1    
   158   80   82 1    
   159   80  201 1    
   160   81  202 1    
   161   81  203 1    
   162   81  204 1    
   163   82   83 2    
   164   82   84 am   BACKBONE|DICT|INTERRES
   165   84   85 1    
   166   84  205 1    
   167   85   86 1    
   168   85   87 1    
   169   85  206 1    
   170   86  207 1    
   171   86  208 1    
   172   86  209 1    
   173   87   88 2    
   174   87   89 am   BACKBONE|DICT|INTERRES
   175   89   90 1    
   176   89  210 1    
   177   90   91 1    
   178   90   92 1    
   179   90  211 1    
   180   91  212 1    
   181   91  213 1    
   182   91  214 1    
   183   92   93 2    
   184   92   94 am   BACKBONE|DICT|INTERRES
   185   94   95 1    
   186   94  215 1    
   187   95   96 1    
   188   95   97 1    
   189   95  216 1    
   190   96  217 1    
   191   96  218 1    
   192   96  219 1    
   193   97   98 2    
   194   97   99 am   BACKBONE|DICT|INTERRES
   195   99  100 1    
   196   99  220 1    
   197  100  101 1    
   198  100  102 1    
   199  100  221 1    
   200  101  222 1    
   201  101  223 1    
   202  101  224 1    
   203  102  103 2    
   204  102  104 am   BACKBONE|DICT|INTERRES
   205  104  105 1    
   206  104  225 1    
   207  105  106 1    
   208  105  107 1    
   209  105  226 1    
   210  106  227 1    
   211  106  228 1    
   212  106  229 1    
   213  107  108 2    
   214  107  109 am   BACKBONE|DICT|INTERRES
   215  109  110 1    
   216  109  230 1    
   217  110  111 1    
   218  110  112 1    
   219  110  231 1    
   220  111  232 1    
   221  111  233 1    
   222  111  234 1    
   223  112  113 2    
   224  112  114 am   BACKBONE|DICT|INTERRES
   225  114  115 1    
   226  114  235 1    
   227  115  116 1    
   228  115  117 1    
   229  115  236 1    
   230  116  237 1    
   231  116  238 1    
   232  116  239 1    
   233  117  118 2    
   234  117  119 am   BACKBONE|DICT|INTERRES
   235  119  120 1    
   236  119  240 1    
   237  120  121 1    
   238  120  124 1    
   239  120  241 1    
   240  121  122 am   BACKBONE|DICT|INTERRES
   241  121  123 2    
   242  122  242 1    
   243  122  243 1    
   244  124  125 1    
   245  124  244 1    
   246  124  245 1    
   247  125  126 1    
   248  126  246 1    
   249  126  247 1    
@<TRIPOS>SUBSTRUCTURE
     1 UNK         1 GROUP             0       ****    0 ROOT    
