@<TRIPOS>MOLECULE
3R540
247   249    1
SMALL
USER_CHARGES


@<TRIPOS>ATOM
      1 CA          1.6182  -20.2584  -52.4869 C.3       0 UNK        -0.1800 
      2 C           2.1653  -19.0629  -51.7230 C.2       0 UNK         0.5000 
      3 O           2.8906  -19.2339  -50.7439 O.2       0 UNK        -0.5000 
      4 N           1.8350  -17.8445  -52.1693 N.am      1 UNK        -0.5000 
      5 CA          2.1836  -16.5692  -51.5225 C.3       1 UNK         0.1400 
      6 C6          1.4240  -15.3812  -52.1603 C.3       23 UNK        -0.0398 
      7 S7         -0.3377  -15.4167  -51.6894 S.3       23 UNK        -0.2404 
      8 C8         -0.2899  -14.2679  -50.2811 C.3       23 UNK        -0.0205 
      9 C9         -1.4696  -14.4643  -49.3456 C.ar      23 UNK        -0.0193 
     10 C10        -2.5955  -13.6422  -49.4372 C.ar      23 UNK        -0.1150 
     11 C11        -3.6521  -13.7819  -48.5312 C.ar      23 UNK        -0.0193 
     12 C12        -3.5707  -14.7508  -47.5255 C.ar      23 UNK        -0.1150 
     13 C13        -2.4598  -15.5937  -47.4420 C.ar      23 UNK        -0.0193 
     14 C14        -1.4135  -15.4466  -48.3547 C.ar      23 UNK        -0.1150 
     15 C15        -2.3760  -16.6465  -46.3530 C.3       23 UNK        -0.0205 
     16 S16        -3.2326  -18.1759  -46.8298 S.3       23 UNK        -0.2404 
     17 C17        -2.8366  -19.2077  -45.3822 C.3       23 UNK        -0.0398 
     18 CA         -1.6435  -20.1637  -45.6389 C.3       11 UNK         0.1400 
     19 N          -0.8426  -20.3502  -44.4263 N.am      11 UNK        -0.5000 
     20 C           0.3004  -21.0438  -44.3419 C.2       10 UNK         0.5000 
     21 O           0.8563  -21.5766  -45.3006 O.2       10 UNK        -0.5000 
     22 CA          0.8929  -21.2107  -42.9338 C.3       10 UNK         0.1400 
     23 CB          1.7031  -19.9697  -42.5326 C.3       10 UNK        -0.1800 
     24 N          -0.1463  -21.4724  -41.9364 N.am      10 UNK        -0.5000 
     25 C          -0.8523  -22.6105  -41.8662 C.2       9 UNK         0.5000 
     26 O          -0.6748  -23.5712  -42.6132 O.2       9 UNK        -0.5000 
     27 CA         -1.9793  -22.6673  -40.8197 C.3       9 UNK         0.1400 
     28 CB         -1.4142  -22.9918  -39.4289 C.3       9 UNK        -0.1800 
     29 N          -2.7490  -21.4251  -40.7551 N.am      9 UNK        -0.5000 
     30 C          -3.5000  -20.9424  -41.7552 C.2       8 UNK         0.5000 
     31 O          -3.6563  -21.5141  -42.8337 O.2       8 UNK        -0.5000 
     32 CA         -4.1373  -19.5584  -41.5312 C.3       8 UNK         0.1400 
     33 CB         -5.5012  -19.6978  -40.8394 C.3       8 UNK        -0.1800 
     34 N          -3.2913  -18.6393  -40.7617 N.am      8 UNK        -0.5000 
     35 C          -2.0693  -18.2387  -41.1365 C.2       7 UNK         0.5000 
     36 O          -1.4954  -18.6559  -42.1442 O.2       7 UNK        -0.5000 
     37 CA         -1.3457  -17.2481  -40.2077 C.3       7 UNK         0.1400 
     38 CB         -0.2786  -17.9794  -39.3784 C.3       7 UNK        -0.1800 
     39 N          -0.7055  -16.1788  -40.9714 N.am      7 UNK        -0.5000 
     40 C          -1.3625  -15.2313  -41.6545 C.2       6 UNK         0.5000 
     41 O          -2.5861  -15.0920  -41.6179 O.2       6 UNK        -0.5000 
     42 CA         -0.5224  -14.2668  -42.5192 C.3       6 UNK         0.1400 
     43 CB         -0.3643  -12.9124  -41.8103 C.3       6 UNK        -0.1800 
     44 N           0.8084  -14.7632  -42.8901 N.am      6 UNK        -0.5000 
     45 C           1.0380  -15.8283  -43.6680 C.2       5 UNK         0.5000 
     46 O           0.1465  -16.5603  -44.1029 O.2       5 UNK        -0.5000 
     47 CA          2.5057  -16.1251  -44.0162 C.3       5 UNK         0.1400 
     48 CB          3.3151  -16.5307  -42.7722 C.3       5 UNK        -0.1800 
     49 N           2.5199  -17.2181  -44.9809 N.am      5 UNK        -0.5000 
     50 C           3.2308  -17.2664  -46.1092 C.2       4 UNK         0.5000 
     51 O           4.0804  -16.4313  -46.4292 O.2       4 UNK        -0.5000 
     52 CA          2.8610  -18.4241  -47.0565 C.3       4 UNK         0.1400 
     53 CB          1.5323  -18.1135  -47.7639 C.3       4 UNK        -0.1800 
     54 N           3.8781  -18.7112  -48.0698 N.am      4 UNK        -0.5000 
     55 C           5.1070  -19.1827  -47.8182 C.2       3 UNK         0.5000 
     56 O           5.5266  -19.4190  -46.6842 O.2       3 UNK        -0.5000 
     57 CA          6.0219  -19.4678  -49.0237 C.3       3 UNK         0.1400 
     58 CB          5.9432  -20.9537  -49.4112 C.3       3 UNK        -0.1800 
     59 N           5.6840  -18.6616  -50.1996 N.am      3 UNK        -0.5000 
     60 C           6.4803  -17.7328  -50.7495 C.2       2 UNK         0.5000 
     61 O           7.5830  -17.4231  -50.2961 O.2       2 UNK        -0.5000 
     62 CA          5.9826  -17.0363  -52.0353 C.3       2 UNK         0.1400 
     63 CB          6.5877  -17.7105  -53.2763 C.3       2 UNK        -0.1800 
     64 N           4.5256  -17.0339  -52.1643 N.am      2 UNK        -0.5000 
     65 C           3.7001  -16.2857  -51.4208 C.2       1 UNK         0.5000 
     66 O           4.0949  -15.4172  -50.6424 O.2       1 UNK        -0.5000 
     67 C          -2.1111  -21.5061  -46.2434 C.2       11 UNK         0.5000 
     68 O          -2.0488  -21.6869  -47.4612 O.2       11 UNK        -0.5000 
     69 N          -2.5440  -22.4301  -45.3747 N.am      12 UNK        -0.5000 
     70 CA         -2.9224  -23.7948  -45.7285 C.3       12 UNK         0.1400 
     71 CB         -3.7009  -24.4295  -44.5667 C.3       12 UNK        -0.1800 
     72 C          -1.7109  -24.6584  -46.1193 C.2       12 UNK         0.5000 
     73 O          -1.7628  -25.3269  -47.1509 O.2       12 UNK        -0.5000 
     74 N          -0.6397  -24.6191  -45.3122 N.am      13 UNK        -0.5000 
     75 CA          0.5864  -25.4000  -45.5124 C.3       13 UNK         0.1400 
     76 CB          1.5085  -25.2410  -44.2945 C.3       13 UNK        -0.1800 
     77 C           1.3403  -25.0434  -46.8059 C.2       13 UNK         0.5000 
     78 O           1.8387  -25.9406  -47.4865 O.2       13 UNK        -0.5000 
     79 N           1.3819  -23.7469  -47.1380 N.am      14 UNK        -0.5000 
     80 CA          1.9473  -23.2252  -48.3835 C.3       14 UNK         0.1400 
     81 CB          2.2431  -21.7341  -48.1938 C.3       14 UNK        -0.1800 
     82 C           1.0294  -23.4293  -49.6047 C.2       14 UNK         0.5000 
     83 O           1.4784  -23.2212  -50.7311 O.2       14 UNK        -0.5000 
     84 N          -0.2325  -23.8113  -49.3588 N.am      15 UNK        -0.5000 
     85 CA         -1.3157  -24.0228  -50.3213 C.3       15 UNK         0.1400 
     86 CB         -0.9514  -25.1070  -51.3576 C.3       15 UNK        -0.1800 
     87 C          -1.8352  -22.7259  -50.9730 C.2       15 UNK         0.5000 
     88 O          -2.5497  -22.8023  -51.9711 O.2       15 UNK        -0.5000 
     89 N          -1.5379  -21.5623  -50.3766 N.am      16 UNK        -0.5000 
     90 CA         -2.0606  -20.2575  -50.7907 C.3       16 UNK         0.1400 
     91 CB         -1.3401  -19.1418  -50.0193 C.3       16 UNK        -0.1800 
     92 C          -3.5820  -20.1586  -50.5899 C.2       16 UNK         0.5000 
     93 O          -4.2814  -19.6353  -51.4590 O.2       16 UNK        -0.5000 
     94 N          -4.0670  -20.7134  -49.4705 N.am      17 UNK        -0.5000 
     95 CA         -5.4911  -20.8257  -49.1591 C.3       17 UNK         0.1400 
     96 CB         -5.6624  -21.2119  -47.6820 C.3       17 UNK        -0.1800 
     97 C          -6.2083  -21.8405  -50.0685 C.2       17 UNK         0.5000 
     98 O          -7.3423  -21.5938  -50.4777 O.2       17 UNK        -0.5000 
     99 N          -5.5266  -22.9525  -50.3791 N.am      18 UNK        -0.5000 
    100 CA        -6.0355  -24.0379  -51.2201 C.3       18 UNK         0.1400 
    101 CB        -5.1486  -25.2795  -51.0428 C.3       18 UNK        -0.1800 
    102 C         -6.1338  -23.6402  -52.7036 C.2       18 UNK         0.5000 
    103 O         -7.1308  -23.9558  -53.3536 O.2       18 UNK        -0.5000 
    104 N         -5.1128  -22.9304  -53.2029 N.am      19 UNK        -0.5000 
    105 CA        -5.0598  -22.3794  -54.5588 C.3       19 UNK         0.1400 
    106 CB        -3.6019  -22.0235  -54.8920 C.3       19 UNK        -0.1800 
    107 C         -5.9600  -21.1431  -54.7500 C.2       19 UNK         0.5000 
    108 O         -6.2073  -20.7564  -55.8929 O.2       19 UNK        -0.5000 
    109 N         -6.4084  -20.5414  -53.6373 N.am      20 UNK        -0.5000 
    110 CA        -7.1658  -19.2913  -53.5415 C.3       20 UNK         0.1400 
    111 CB        -8.5653  -19.4344  -54.1751 C.3       20 UNK        -0.1800 
    112 C         -6.3580  -18.0972  -54.0888 C.2       20 UNK         0.5000 
    113 O         -6.8699  -17.2975  -54.8744 O.2       20 UNK        -0.5000 
    114 N         -5.0901  -18.0142  -53.6621 N.am      21 UNK        -0.5000 
    115 CA        -4.1571  -16.9414  -54.0112 C.3       21 UNK         0.1400 
    116 CB        -2.7291  -17.3987  -53.6765 C.3       21 UNK        -0.1800 
    117 C         -4.4916  -15.6164  -53.2974 C.2       21 UNK         0.5000 
    118 O         -4.1538  -14.5468  -53.8057 O.2       21 UNK        -0.5000 
    119 N         -5.1611  -15.7180  -52.1428 N.am      22 UNK        -0.5000 
    120 CA        -5.7192  -14.6022  -51.3742 C.3       22 UNK         0.1400 
    121 C         -6.9091  -13.9342  -52.1187 C.2       22 UNK         0.5000 
    122 N         -6.8652  -12.6276  -52.3422 N.am      22 UNK        -0.7600 
    123 O         -7.8867  -14.5916  -52.4683 O.2       22 UNK        -0.5000 
    124 C124       -6.1237  -15.0946  -49.9616 C.3       23 UNK        -0.0398 
    125 S125       -6.4569  -13.7714  -48.7451 S.3       23 UNK        -0.2404 
    126 C126       -4.8702  -12.8723  -48.6370 C.3       23 UNK        -0.0205 
    127 H127        0.9037  -20.7993  -51.8675 H         1 UNK         0.0600 
    128 H128        2.4271  -20.9411  -52.7468 H         1 UNK         0.0600 
    129 H129        1.1142  -19.9582  -53.4055 H         1 UNK         0.0600 
    130 H130        1.2392  -17.7654  -52.9809 H         1 UNK         0.3000 
    131 H131        1.8524  -16.6519  -50.4871 H         1 UNK         0.0600 
    132 H132        1.8451  -14.4206  -51.8567 H         1 UNK         0.0800 
    133 H133        1.5045  -15.4095  -53.2480 H         1 UNK         0.0800 
    134 H134        0.6336  -14.4124  -49.7177 H         1 UNK         0.0800 
    135 H135       -0.2630  -13.2430  -50.6543 H         1 UNK         0.0800 
    136 H136       -2.6406  -12.8854  -50.2077 H         1 UNK         0.1150 
    137 H137       -4.3804  -14.8598  -46.8177 H         1 UNK         0.1150 
    138 H138       -0.5481  -16.0890  -48.2869 H         1 UNK         0.1150 
    139 H139       -1.3320  -16.8800  -46.1469 H         1 UNK         0.0800 
    140 H140       -2.7971  -16.2575  -45.4245 H         1 UNK         0.0800 
    141 H141       -3.7331  -19.7490  -45.0741 H         1 UNK         0.0800 
    142 H142       -2.6139  -18.5377  -44.5508 H         1 UNK         0.0800 
    143 H143       -0.9733  -19.7026  -46.3668 H         1 UNK         0.0600 
    144 H144       -1.1843  -19.8947  -43.5839 H         1 UNK         0.3000 
    145 H145        1.5714  -22.0658  -42.9527 H         1 UNK         0.0600 
    146 H146        2.1461  -20.0894  -41.5439 H         1 UNK         0.0600 
    147 H147        2.5195  -19.7964  -43.2350 H         1 UNK         0.0600 
    148 H148        1.0874  -19.0703  -42.5181 H         1 UNK         0.0600 
    149 H149       -0.4010  -20.7036  -41.3343 H         1 UNK         0.3000 
    150 H150       -2.6602  -23.4710  -41.1082 H         1 UNK         0.0600 
    151 H151       -0.7475  -22.2069  -39.0696 H         1 UNK         0.0600 
    152 H152       -0.8459  -23.9228  -39.4468 H         1 UNK         0.0600 
    153 H153       -2.2133  -23.1145  -38.6977 H         1 UNK         0.0600 
    154 H154       -2.6763  -20.8849  -39.9059 H         1 UNK         0.3000 
    155 H155       -4.2992  -19.1112  -42.5141 H         1 UNK         0.0600 
    156 H156       -5.4035  -20.1076  -39.8334 H         1 UNK         0.0600 
    157 H157       -6.1583  -20.3622  -41.4024 H         1 UNK         0.0600 
    158 H158       -6.0052  -18.7341  -40.7627 H         1 UNK         0.0600 
    159 H159       -3.6932  -18.2614  -39.9158 H         1 UNK         0.3000 
    160 H160       -2.0707  -16.7984  -39.5261 H         1 UNK         0.0600 
    161 H161        0.4874  -18.4288  -40.0117 H         1 UNK         0.0600 
    162 H162       -0.7238  -18.7783  -38.7840 H         1 UNK         0.0600 
    163 H163        0.2170  -17.2986  -38.6861 H         1 UNK         0.0600 
    164 H164        0.2941  -16.2397  -41.0877 H         1 UNK         0.3000 
    165 H165       -1.0805  -14.1027  -43.4435 H         1 UNK         0.0600 
    166 H166        0.1379  -12.1870  -42.4507 H         1 UNK         0.0600 
    167 H167       -1.3358  -12.4917  -41.5473 H         1 UNK         0.0600 
    168 H168        0.2127  -13.0062  -40.8895 H         1 UNK         0.0600 
    169 H169        1.5932  -14.2176  -42.5643 H         1 UNK         0.3000 
    170 H170        2.9363  -15.2232  -44.4560 H         1 UNK         0.0600 
    171 H171        2.8600  -17.3692  -42.2459 H         1 UNK         0.0600 
    172 H172        4.3312  -16.8188  -43.0425 H         1 UNK         0.0600 
    173 H173        3.3926  -15.7042  -42.0654 H         1 UNK         0.0600 
    174 H174        1.7564  -17.8696  -44.8550 H         1 UNK         0.3000 
    175 H175        2.7315  -19.3256  -46.4540 H         1 UNK         0.0600 
    176 H176        1.5829  -17.1661  -48.2985 H         1 UNK         0.0600 
    177 H177        1.2687  -18.8898  -48.4798 H         1 UNK         0.0600 
    178 H178        0.7125  -18.0407  -47.0490 H         1 UNK         0.0600 
    179 H179        3.5866  -18.6170  -49.0357 H         1 UNK         0.3000 
    180 H180        7.0435  -19.2621  -48.6982 H         1 UNK         0.0600 
    181 H181        4.9561  -21.2193  -49.7903 H         1 UNK         0.0600 
    182 H182        6.1523  -21.5965  -48.5551 H         1 UNK         0.0600 
    183 H183        6.6723  -21.1953  -50.1847 H         1 UNK         0.0600 
    184 H184        4.7753  -18.8416  -50.6153 H         1 UNK         0.3000 
    185 H185        6.3299  -16.0013  -52.0066 H         1 UNK         0.0600 
    186 H186        7.6776  -17.7057  -53.2313 H         1 UNK         0.0600 
    187 H187        6.2677  -18.7494  -53.3664 H         1 UNK         0.0600 
    188 H188        6.2994  -17.1889  -54.1892 H         1 UNK         0.0600 
    189 H189        4.1202  -17.7253  -52.7781 H         1 UNK         0.3000 
    190 H190       -2.6323  -22.1759  -44.3957 H         1 UNK         0.3000 
    191 H191       -3.5878  -23.7505  -46.5928 H         1 UNK         0.0600 
    192 H192       -4.6053  -23.8625  -44.3448 H         1 UNK         0.0600 
    193 H193       -4.0060  -25.4480  -44.8100 H         1 UNK         0.0600 
    194 H194       -3.1040  -24.4728  -43.6552 H         1 UNK         0.0600 
    195 H195       -0.6865  -24.0712  -44.4570 H         1 UNK         0.3000 
    196 H196        0.2981  -26.4509  -45.5813 H         1 UNK         0.0600 
    197 H197        2.4250  -25.8192  -44.4182 H         1 UNK         0.0600 
    198 H198        1.0238  -25.5938  -43.3841 H         1 UNK         0.0600 
    199 H199        1.7942  -24.2000  -44.1419 H         1 UNK         0.0600 
    200 H200        1.0017  -23.0588  -46.4919 H         1 UNK         0.3000 
    201 H201        2.8889  -23.7385  -48.5886 H         1 UNK         0.0600 
    202 H202        2.6654  -21.2983  -49.0985 H         1 UNK         0.0600 
    203 H203        2.9606  -21.5767  -47.3888 H         1 UNK         0.0600 
    204 H204        1.3364  -21.1784  -47.9539 H         1 UNK         0.0600 
    205 H205       -0.4883  -23.9770  -48.3936 H         1 UNK         0.3000 
    206 H206       -2.1517  -24.4071  -49.7361 H         1 UNK         0.0600 
    207 H207       -0.5949  -26.0140  -50.8694 H         1 UNK         0.0600 
    208 H208       -1.8167  -25.3839  -51.9599 H         1 UNK         0.0600 
    209 H209       -0.1778  -24.7686  -52.0470 H         1 UNK         0.0600 
    210 H210       -1.0337  -21.5952  -49.5009 H         1 UNK         0.3000 
    211 H211       -1.8560  -20.1280  -51.8555 H         1 UNK         0.0600 
    212 H212       -1.4279  -19.2744  -48.9413 H         1 UNK         0.0600 
    213 H213       -1.7501  -18.1608  -50.2641 H         1 UNK         0.0600 
    214 H214       -0.2811  -19.1175  -50.2640 H         1 UNK         0.0600 
    215 H215       -3.4102  -21.1014  -48.8004 H         1 UNK         0.3000 
    216 H216       -5.9541  -19.8486  -49.3133 H         1 UNK         0.0600 
    217 H217       -6.7179  -21.2958  -47.4202 H         1 UNK         0.0600 
    218 H218       -5.2263  -20.4611  -47.0245 H         1 UNK         0.0600 
    219 H219       -5.1912  -22.1686  -47.4571 H         1 UNK         0.0600 
    220 H220       -4.5906  -23.0547  -50.0200 H         1 UNK         0.3000 
    221 H221       -7.0408  -24.2899  -50.8756 H         1 UNK         0.0600 
    222 H222       -4.1279  -25.0964  -51.3766 H         1 UNK         0.0600 
    223 H223       -5.1106  -25.5938  -49.9996 H         1 UNK         0.0600 
    224 H224       -5.5355  -26.1193  -51.6213 H         1 UNK         0.0600 
    225 H225       -4.2899  -22.7707  -52.6257 H         1 UNK         0.3000 
    226 H226       -5.3957  -23.1460  -55.2600 H         1 UNK         0.0600 
    227 H227       -3.5114  -21.6505  -55.9129 H         1 UNK         0.0600 
    228 H228       -3.2158  -21.2515  -54.2246 H         1 UNK         0.0600 
    229 H229       -2.9531  -22.8954  -54.8062 H         1 UNK         0.0600 
    230 H230       -6.1197  -20.9392  -52.7544 H         1 UNK         0.3000 
    231 H231       -7.3069  -19.1028  -52.4761 H         1 UNK         0.0600 
    232 H232       -8.5137  -19.5719  -55.2553 H         1 UNK         0.0600 
    233 H233       -9.1680  -18.5448  -53.9887 H         1 UNK         0.0600 
    234 H234       -9.1021  -20.2844  -53.7536 H         1 UNK         0.0600 
    235 H235       -4.7589  -18.7022  -52.9885 H         1 UNK         0.3000 
    236 H236       -4.2184  -16.7672  -55.0875 H         1 UNK         0.0600 
    237 H237       -2.4825  -18.3324  -54.1821 H         1 UNK         0.0600 
    238 H238       -1.9991  -16.6535  -53.9943 H         1 UNK         0.0600 
    239 H239       -2.5973  -17.5518  -52.6049 H         1 UNK         0.0600 
    240 H240       -5.4050  -16.6443  -51.8272 H         1 UNK         0.3000 
    241 H241       -4.9190  -13.8688  -51.2703 H         1 UNK         0.0600 
    242 H242       -6.0717  -12.0700  -52.0677 H         1 UNK         0.3800 
    243 H243       -7.6390  -12.1859  -52.8140 H         1 UNK         0.3800 
    244 H244       -5.3385  -15.7302  -49.5498 H         1 UNK         0.0800 
    245 H245       -7.0073  -15.7328  -50.0188 H         1 UNK         0.0800 
    246 H246       -4.8975  -12.2215  -47.7622 H         1 UNK         0.0800 
    247 H247       -4.7852  -12.2115  -49.5007 H         1 UNK         0.0800 
@<TRIPOS>BOND
     1    1    2 1    
     2    1  127 1    
     3    1  128 1    
     4    1  129 1    
     5    2    3 2    
     6    2    4 am   BACKBONE|DICT|INTERRES
     7    4    5 1    
     8    4  130 1    
     9    5    6 1    
    10    5   65 1    
    11    5  131 1    
    12    6    7 1    
    13    6  132 1    
    14    6  133 1    
    15    7    8 1    
    16    8    9 1    
    17    8  134 1    
    18    8  135 1    
    19    9   10 ar   
    20    9   14 ar   
    21   10   11 ar   
    22   10  136 1    
    23   11   12 ar   
    24   11  126 1    
    25   12   13 ar   
    26   12  137 1    
    27   13   14 ar   
    28   13   15 1    
    29   14  138 1    
    30   15   16 1    
    31   15  139 1    
    32   15  140 1    
    33   16   17 1    
    34   17   18 1    
    35   17  141 1    
    36   17  142 1    
    37   18   19 1    
    38   18   67 1    
    39   18  143 1    
    40   19   20 am   BACKBONE|DICT|INTERRES
    41   19  144 1    
    42   20   21 2    
    43   20   22 1    
    44   22   23 1    
    45   22   24 1    
    46   22  145 1    
    47   23  146 1    
    48   23  147 1    
    49   23  148 1    
    50   24   25 am   BACKBONE|DICT|INTERRES
    51   24  149 1    
    52   25   26 2    
    53   25   27 1    
    54   27   28 1    
    55   27   29 1    
    56   27  150 1    
    57   28  151 1    
    58   28  152 1    
    59   28  153 1    
    60   29   30 am   BACKBONE|DICT|INTERRES
    61   29  154 1    
    62   30   31 2    
    63   30   32 1    
    64   32   33 1    
    65   32   34 1    
    66   32  155 1    
    67   33  156 1    
    68   33  157 1    
    69   33  158 1    
    70   34   35 am   BACKBONE|DICT|INTERRES
    71   34  159 1    
    72   35   36 2    
    73   35   37 1    
    74   37   38 1    
    75   37   39 1    
    76   37  160 1    
    77   38  161 1    
    78   38  162 1    
    79   38  163 1    
    80   39   40 am   BACKBONE|DICT|INTERRES
    81   39  164 1    
    82   40   41 2    
    83   40   42 1    
    84   42   43 1    
    85   42   44 1    
    86   42  165 1    
    87   43  166 1    
    88   43  167 1    
    89   43  168 1    
    90   44   45 am   BACKBONE|DICT|INTERRES
    91   44  169 1    
    92   45   46 2    
    93   45   47 1    
    94   47   48 1    
    95   47   49 1    
    96   47  170 1    
    97   48  171 1    
    98   48  172 1    
    99   48  173 1    
   100   49   50 am   BACKBONE|DICT|INTERRES
   101   49  174 1    
   102   50   51 2    
   103   50   52 1    
   104   52   53 1    
   105   52   54 1    
   106   52  175 1    
   107   53  176 1    
   108   53  177 1    
   109   53  178 1    
   110   54   55 am   BACKBONE|DICT|INTERRES
   111   54  179 1    
   112   55   56 2    
   113   55   57 1    
   114   57   58 1    
   115   57   59 1    
   116   57  180 1    
   117   58  181 1    
   118   58  182 1    
   119   58  183 1    
   120   59   60 am   BACKBONE|DICT|INTERRES
   121   59  184 1    
   122   60   61 2    
   123   60   62 1    
   124   62   63 1    
   125   62   64 1    
   126   62  185 1    
   127   63  186 1    
   128   63  187 1    
   129   63  188 1    
   130   64   65 am   BACKBONE|DICT|INTERRES
   131   64  189 1    
   132   65   66 2    
   133   67   68 2    
   134   67   69 am   BACKBONE|DICT|INTERRES
   135   69   70 1    
   136   69  190 1    
   137   70   71 1    
   138   70   72 1    
   139   70  191 1    
   140   71  192 1    
   141   71  193 1    
   142   71  194 1    
   143   72   73 2    
   144   72   74 am   BACKBONE|DICT|INTERRES
   145   74   75 1    
   146   74  195 1    
   147   75   76 1    
   148   75   77 1    
   149   75  196 1    
   150   76  197 1    
   151   76  198 1    
   152   76  199 1    
   153   77   78 2    
   154   77   79 am   BACKBONE|DICT|INTERRES
   155   79   80 1    
   156   79  200 1    
   157   80   81 1    
   158   80   82 1    
   159   80  201 1    
   160   81  202 1    
   161   81  203 1    
   162   81  204 1    
   163   82   83 2    
   164   82   84 am   BACKBONE|DICT|INTERRES
   165   84   85 1    
   166   84  205 1    
   167   85   86 1    
   168   85   87 1    
   169   85  206 1    
   170   86  207 1    
   171   86  208 1    
   172   86  209 1    
   173   87   88 2    
   174   87   89 am   BACKBONE|DICT|INTERRES
   175   89   90 1    
   176   89  210 1    
   177   90   91 1    
   178   90   92 1    
   179   90  211 1    
   180   91  212 1    
   181   91  213 1    
   182   91  214 1    
   183   92   93 2    
   184   92   94 am   BACKBONE|DICT|INTERRES
   185   94   95 1    
   186   94  215 1    
   187   95   96 1    
   188   95   97 1    
   189   95  216 1    
   190   96  217 1    
   191   96  218 1    
   192   96  219 1    
   193   97   98 2    
   194   97   99 am   BACKBONE|DICT|INTERRES
   195   99  100 1    
   196   99  220 1    
   197  100  101 1    
   198  100  102 1    
   199  100  221 1    
   200  101  222 1    
   201  101  223 1    
   202  101  224 1    
   203  102  103 2    
   204  102  104 am   BACKBONE|DICT|INTERRES
   205  104  105 1    
   206  104  225 1    
   207  105  106 1    
   208  105  107 1    
   209  105  226 1    
   210  106  227 1    
   211  106  228 1    
   212  106  229 1    
   213  107  108 2    
   214  107  109 am   BACKBONE|DICT|INTERRES
   215  109  110 1    
   216  109  230 1    
   217  110  111 1    
   218  110  112 1    
   219  110  231 1    
   220  111  232 1    
   221  111  233 1    
   222  111  234 1    
   223  112  113 2    
   224  112  114 am   BACKBONE|DICT|INTERRES
   225  114  115 1    
   226  114  235 1    
   227  115  116 1    
   228  115  117 1    
   229  115  236 1    
   230  116  237 1    
   231  116  238 1    
   232  116  239 1    
   233  117  118 2    
   234  117  119 am   BACKBONE|DICT|INTERRES
   235  119  120 1    
   236  119  240 1    
   237  120  121 1    
   238  120  124 1    
   239  120  241 1    
   240  121  122 am   BACKBONE|DICT|INTERRES
   241  121  123 2    
   242  122  242 1    
   243  122  243 1    
   244  124  125 1    
   245  124  244 1    
   246  124  245 1    
   247  125  126 1    
   248  126  246 1    
   249  126  247 1    
@<TRIPOS>SUBSTRUCTURE
     1 UNK         1 GROUP             0       ****    0 ROOT    
