@<TRIPOS>MOLECULE
3R540
247   249    1
SMALL
USER_CHARGES


@<TRIPOS>ATOM
      1 CA          1.1109  -11.0971  -44.9009 C.3       0 UNK        -0.1800 
      2 C           2.1864  -11.3016  -45.9582 C.2       0 UNK         0.5000 
      3 O           3.3432  -10.9486  -45.7318 O.2       0 UNK        -0.5000 
      4 N           1.8166  -11.8915  -47.1040 N.am      1 UNK        -0.5000 
      5 CA          2.6978  -12.1857  -48.2466 C.3       1 UNK         0.1400 
      6 C6          1.8708  -12.7164  -49.4444 C.3       23 UNK        -0.0398 
      7 S7          2.7150  -12.6029  -51.0629 S.3       23 UNK        -0.2404 
      8 C8          3.3195  -14.3037  -51.3372 C.3       23 UNK        -0.0205 
      9 C9          2.1878  -15.3121  -51.4741 C.ar      23 UNK        -0.0193 
     10 C10         1.5055  -15.4548  -52.6866 C.ar      23 UNK        -0.1150 
     11 C11         0.4538  -16.3696  -52.8033 C.ar      23 UNK        -0.0193 
     12 C12         0.0829  -17.1400  -51.6969 C.ar      23 UNK        -0.1150 
     13 C13         0.7623  -17.0082  -50.4841 C.ar      23 UNK        -0.0193 
     14 C14         1.8224  -16.1049  -50.3828 C.ar      23 UNK        -0.1150 
     15 C15         0.3367  -17.8100  -49.2686 C.3       23 UNK        -0.0205 
     16 S16         1.3315  -19.3234  -49.0824 S.3       23 UNK        -0.2404 
     17 C17         0.9994  -19.7105  -47.3278 C.3       23 UNK        -0.0398 
     18 CA         -0.0443  -20.8155  -47.0112 C.3       11 UNK         0.1400 
     19 N          -0.4175  -20.7587  -45.5960 N.am      11 UNK        -0.5000 
     20 C          -1.1885  -21.6365  -44.9430 C.2       10 UNK         0.5000 
     21 O          -1.6496  -22.6562  -45.4525 O.2       10 UNK        -0.5000 
     22 CA         -1.5524  -21.2778  -43.4907 C.3       10 UNK         0.1400 
     23 CB         -0.3915  -21.5964  -42.5370 C.3       10 UNK        -0.1800 
     24 N          -1.9411  -19.8728  -43.3459 N.am      10 UNK        -0.5000 
     25 C          -3.0184  -19.3261  -43.9290 C.2       9 UNK         0.5000 
     26 O          -3.8224  -19.9636  -44.6095 O.2       9 UNK        -0.5000 
     27 CA         -3.2089  -17.8076  -43.7614 C.3       9 UNK         0.1400 
     28 CB         -3.8097  -17.4805  -42.3863 C.3       9 UNK        -0.1800 
     29 N          -1.9674  -17.0557  -43.9485 N.am      9 UNK        -0.5000 
     30 C          -1.2737  -17.0026  -45.0943 C.2       8 UNK         0.5000 
     31 O          -1.6262  -17.5527  -46.1359 O.2       8 UNK        -0.5000 
     32 CA          0.0742  -16.2632  -45.0596 C.3       8 UNK         0.1400 
     33 CB         -0.1167  -14.7442  -45.1773 C.3       8 UNK        -0.1800 
     34 N           0.8498  -16.5772  -43.8613 N.am      8 UNK        -0.5000 
     35 C           1.3148  -17.7968  -43.5520 C.2       7 UNK         0.5000 
     36 O           1.1582  -18.7911  -44.2584 O.2       7 UNK        -0.5000 
     37 CA          2.0372  -17.9388  -42.2041 C.3       7 UNK         0.1400 
     38 CB          3.4910  -17.4540  -42.3071 C.3       7 UNK        -0.1800 
     39 N           1.3421  -17.2151  -41.1412 N.am      7 UNK        -0.5000 
     40 C           0.1315  -17.5481  -40.6701 C.2       6 UNK         0.5000 
     41 O          -0.5067  -18.5311  -41.0484 O.2       6 UNK        -0.5000 
     42 CA         -0.4861  -16.5887  -39.6378 C.3       6 UNK         0.1400 
     43 CB          0.0534  -16.8827  -38.2302 C.3       6 UNK        -0.1800 
     44 N          -0.2416  -15.1838  -39.9708 N.am      6 UNK        -0.5000 
     45 C          -0.7629  -14.5603  -41.0369 C.2       5 UNK         0.5000 
     46 O          -1.5262  -15.0980  -41.8382 O.2       5 UNK        -0.5000 
     47 CA         -0.3188  -13.1058  -41.2706 C.3       5 UNK         0.1400 
     48 CB         -1.1712  -12.1369  -40.4381 C.3       5 UNK        -0.1800 
     49 N           1.1002  -12.8848  -40.9781 N.am      5 UNK        -0.5000 
     50 C           2.1046  -13.4315  -41.6733 C.2       4 UNK         0.5000 
     51 O           1.9430  -14.2184  -42.6099 O.2       4 UNK        -0.5000 
     52 CA          3.5264  -13.0462  -41.2551 C.3       4 UNK         0.1400 
     53 CB          4.1114  -14.0665  -40.2635 C.3       4 UNK        -0.1800 
     54 N           4.3344  -12.9813  -42.4655 N.am      4 UNK        -0.5000 
     55 C           5.4718  -12.2963  -42.6182 C.2       3 UNK         0.5000 
     56 O           6.0328  -11.7047  -41.6943 O.2       3 UNK        -0.5000 
     57 CA          6.0571  -12.2024  -44.0430 C.3       3 UNK         0.1400 
     58 CB          7.5868  -12.4054  -44.0741 C.3       3 UNK        -0.1800 
     59 N           5.3665  -13.0345  -45.0384 N.am      3 UNK        -0.5000 
     60 C           5.4421  -14.3624  -45.2206 C.2       2 UNK         0.5000 
     61 O           6.1379  -15.1047  -44.5278 O.2       2 UNK        -0.5000 
     62 CA          4.5814  -14.9786  -46.3497 C.3       2 UNK         0.1400 
     63 CB          3.8221  -16.2186  -45.8549 C.3       2 UNK        -0.1800 
     64 N           3.6061  -14.0428  -46.9151 N.am      2 UNK        -0.5000 
     65 C           3.8558  -13.1452  -47.8785 C.2       1 UNK         0.5000 
     66 O           4.9507  -13.0281  -48.4287 O.2       1 UNK        -0.5000 
     67 C          -1.2908  -20.7936  -47.9252 C.2       11 UNK         0.5000 
     68 O          -1.3993  -21.6321  -48.8192 O.2       11 UNK        -0.5000 
     69 N          -2.2285  -19.8735  -47.6580 N.am      12 UNK        -0.5000 
     70 CA         -3.4901  -19.7380  -48.3873 C.3       12 UNK         0.1400 
     71 CB         -4.2011  -18.4493  -47.9495 C.3       12 UNK        -0.1800 
     72 C          -4.4224  -20.9541  -48.2347 C.2       12 UNK         0.5000 
     73 O          -5.1371  -21.2789  -49.1795 O.2       12 UNK        -0.5000 
     74 N          -4.3923  -21.6157  -47.0700 N.am      13 UNK        -0.5000 
     75 CA         -5.1125  -22.8644  -46.8190 C.3       13 UNK         0.1400 
     76 CB         -5.2256  -23.0947  -45.3046 C.3       13 UNK        -0.1800 
     77 C          -4.4473  -24.0703  -47.5101 C.2       13 UNK         0.5000 
     78 O          -5.1472  -24.9227  -48.0572 O.2       13 UNK        -0.5000 
     79 N          -3.1089  -24.1186  -47.4802 N.am      14 UNK        -0.5000 
     80 CA         -2.2948  -25.1810  -48.0737 C.3       14 UNK         0.1400 
     81 CB         -0.8729  -25.1019  -47.4979 C.3       14 UNK        -0.1800 
     82 C          -2.2476  -25.1510  -49.6133 C.2       14 UNK         0.5000 
     83 O          -1.9362  -26.1790  -50.2159 O.2       14 UNK        -0.5000 
     84 N          -2.5355  -23.9877  -50.2148 N.am      15 UNK        -0.5000 
     85 CA         -2.5183  -23.7002  -51.6507 C.3       15 UNK         0.1400 
     86 CB         -3.1036  -22.3008  -51.8804 C.3       15 UNK        -0.1800 
     87 C          -3.2640  -24.7518  -52.4942 C.2       15 UNK         0.5000 
     88 O          -4.4852  -24.8860  -52.3728 O.2       15 UNK        -0.5000 
     89 N          -2.4935  -25.5126  -53.2857 N.am      16 UNK        -0.5000 
     90 CA         -2.9100  -26.6284  -54.1478 C.3       16 UNK         0.1400 
     91 CB         -3.8127  -26.1132  -55.2870 C.3       16 UNK        -0.1800 
     92 C          -3.5617  -27.8123  -53.3955 C.2       16 UNK         0.5000 
     93 O          -4.2024  -28.6501  -54.0317 O.2       16 UNK        -0.5000 
     94 N          -3.4159  -27.8475  -52.0605 N.am      17 UNK        -0.5000 
     95 CA         -4.0856  -28.7388  -51.1060 C.3       17 UNK         0.1400 
     96 CB         -3.6014  -30.1929  -51.2822 C.3       17 UNK        -0.1800 
     97 C          -5.6277  -28.6146  -51.1228 C.2       17 UNK         0.5000 
     98 O          -6.3183  -29.5479  -50.7093 O.2       17 UNK        -0.5000 
     99 N          -6.1417  -27.4747  -51.6056 N.am      18 UNK        -0.5000 
    100 CA        -7.5653  -27.2309  -51.8473 C.3       18 UNK         0.1400 
    101 CB        -7.8597  -27.4989  -53.3348 C.3       18 UNK        -0.1800 
    102 C         -7.9989  -25.8116  -51.4377 C.2       18 UNK         0.5000 
    103 O         -9.1385  -25.4325  -51.7117 O.2       18 UNK        -0.5000 
    104 N         -7.0917  -25.0512  -50.8074 N.am      19 UNK        -0.5000 
    105 CA        -7.2172  -23.6379  -50.4418 C.3       19 UNK         0.1400 
    106 CB        -8.2541  -23.4455  -49.3158 C.3       19 UNK        -0.1800 
    107 C         -7.4610  -22.7328  -51.6685 C.2       19 UNK         0.5000 
    108 O         -8.3742  -21.9036  -51.6675 O.2       19 UNK        -0.5000 
    109 N         -6.6511  -22.9477  -52.7134 N.am      20 UNK        -0.5000 
    110 CA        -6.6621  -22.1939  -53.9668 C.3       20 UNK         0.1400 
    111 CB        -5.8260  -22.9670  -55.0000 C.3       20 UNK        -0.1800 
    112 C         -6.1498  -20.7462  -53.8080 C.2       20 UNK         0.5000 
    113 O         -5.6481  -20.3671  -52.7480 O.2       20 UNK        -0.5000 
    114 N         -6.2700  -19.9586  -54.8861 N.am      21 UNK        -0.5000 
    115 CA        -5.8232  -18.5626  -54.9543 C.3       21 UNK         0.1400 
    116 CB        -6.2897  -17.9489  -56.2833 C.3       21 UNK        -0.1800 
    117 C         -4.3003  -18.3858  -54.7833 C.2       21 UNK         0.5000 
    118 O         -3.8679  -17.3665  -54.2458 O.2       21 UNK        -0.5000 
    119 N         -3.5252  -19.3830  -55.2228 N.am      22 UNK        -0.5000 
    120 CA        -2.0774  -19.5048  -55.0309 C.3       22 UNK         0.1400 
    121 C         -1.6216  -20.9752  -55.2465 C.2       22 UNK         0.5000 
    122 N         -0.3698  -21.2945  -54.9522 N.am      22 UNK        -0.7600 
    123 O         -2.3903  -21.8329  -55.6775 O.2       22 UNK        -0.5000 
    124 C124       -1.2647  -18.4816  -55.8783 C.3       23 UNK        -0.0398 
    125 S125        0.2762  -17.9718  -55.0425 S.3       23 UNK        -0.2404 
    126 C126       -0.3031  -16.5195  -54.1118 C.3       23 UNK        -0.0205 
    127 H127        0.9943  -10.0353  -44.6849 H         1 UNK         0.0600 
    128 H128        0.1451  -11.4884  -45.2215 H         1 UNK         0.0600 
    129 H129        1.3922  -11.6041  -43.9787 H         1 UNK         0.0600 
    130 H130        0.8461  -12.1427  -47.2272 H         1 UNK         0.3000 
    131 H131        3.1509  -11.2365  -48.5408 H         1 UNK         0.0600 
    132 H132        1.5141  -13.7267  -49.2535 H         1 UNK         0.0800 
    133 H133        0.9668  -12.1145  -49.5478 H         1 UNK         0.0800 
    134 H134        3.9241  -14.3165  -52.2452 H         1 UNK         0.0800 
    135 H135        3.9917  -14.5902  -50.5274 H         1 UNK         0.0800 
    136 H136        1.7885  -14.8477  -53.5352 H         1 UNK         0.1150 
    137 H137       -0.7369  -17.8400  -51.7811 H         1 UNK         0.1150 
    138 H138        2.3506  -16.0061  -49.4445 H         1 UNK         0.1150 
    139 H139        0.4346  -17.1800  -48.3838 H         1 UNK         0.0800 
    140 H140       -0.7194  -18.0742  -49.3381 H         1 UNK         0.0800 
    141 H141        0.7067  -18.7858  -46.8349 H         1 UNK         0.0800 
    142 H142        1.9503  -19.9815  -46.8671 H         1 UNK         0.0800 
    143 H143        0.4421  -21.7792  -47.1748 H         1 UNK         0.0600 
    144 H144       -0.0448  -19.9699  -45.0729 H         1 UNK         0.3000 
    145 H145       -2.4071  -21.8929  -43.2016 H         1 UNK         0.0600 
    146 H146       -0.6738  -21.4143  -41.4999 H         1 UNK         0.0600 
    147 H147       -0.0976  -22.6437  -42.6158 H         1 UNK         0.0600 
    148 H148        0.4885  -20.9904  -42.7535 H         1 UNK         0.0600 
    149 H149       -1.3458  -19.2907  -42.7658 H         1 UNK         0.3000 
    150 H150       -3.9148  -17.4769  -44.5259 H         1 UNK         0.0600 
    151 H151       -4.7437  -18.0212  -42.2289 H         1 UNK         0.0600 
    152 H152       -4.0305  -16.4167  -42.2968 H         1 UNK         0.0600 
    153 H153       -3.1323  -17.7497  -41.5755 H         1 UNK         0.0600 
    154 H154       -1.6308  -16.5278  -43.1483 H         1 UNK         0.3000 
    155 H155        0.6563  -16.5911  -45.9222 H         1 UNK         0.0600 
    156 H156       -0.6970  -14.3448  -44.3458 H         1 UNK         0.0600 
    157 H157       -0.6420  -14.4874  -46.0979 H         1 UNK         0.0600 
    158 H158        0.8422  -14.2275  -45.1917 H         1 UNK         0.0600 
    159 H159        1.0678  -15.7989  -43.2456 H         1 UNK         0.3000 
    160 H160        2.0503  -18.9986  -41.9406 H         1 UNK         0.0600 
    161 H161        4.0190  -17.5840  -41.3625 H         1 UNK         0.0600 
    162 H162        3.5515  -16.4019  -42.5853 H         1 UNK         0.0600 
    163 H163        4.0357  -18.0207  -43.0633 H         1 UNK         0.0600 
    164 H164        1.7780  -16.3714  -40.8024 H         1 UNK         0.3000 
    165 H165       -1.5655  -16.7551  -39.6322 H         1 UNK         0.0600 
    166 H166       -0.4348  -16.2572  -37.4827 H         1 UNK         0.0600 
    167 H167       -0.1292  -17.9217  -37.9523 H         1 UNK         0.0600 
    168 H168        1.1281  -16.7089  -38.1638 H         1 UNK         0.0600 
    169 H169        0.3768  -14.6677  -39.3629 H         1 UNK         0.3000 
    170 H170       -0.4826  -12.8775  -42.3259 H         1 UNK         0.0600 
    171 H171       -2.2329  -12.2700  -40.6508 H         1 UNK         0.0600 
    172 H172       -1.0289  -12.2902  -39.3677 H         1 UNK         0.0600 
    173 H173       -0.9237  -11.0998  -40.6652 H         1 UNK         0.0600 
    174 H174        1.3112  -12.2508  -40.2207 H         1 UNK         0.3000 
    175 H175        3.4990  -12.0586  -40.7899 H         1 UNK         0.0600 
    176 H176        5.1037  -13.7656  -39.9275 H         1 UNK         0.0600 
    177 H177        3.4837  -14.1566  -39.3762 H         1 UNK         0.0600 
    178 H178        4.1995  -15.0572  -40.7080 H         1 UNK         0.0600 
    179 H179        3.9162  -13.4309  -43.2692 H         1 UNK         0.3000 
    180 H180        5.8701  -11.1755  -44.3598 H         1 UNK         0.0600 
    181 H181        7.8795  -13.3709  -43.6617 H         1 UNK         0.0600 
    182 H182        8.0923  -11.6387  -43.4859 H         1 UNK         0.0600 
    183 H183        7.9742  -12.3398  -45.0908 H         1 UNK         0.0600 
    184 H184        4.7297  -12.5146  -45.6321 H         1 UNK         0.3000 
    185 H185        5.2665  -15.2969  -47.1381 H         1 UNK         0.0600 
    186 H186        3.2046  -16.6524  -46.6419 H         1 UNK         0.0600 
    187 H187        4.5080  -16.9961  -45.5168 H         1 UNK         0.0600 
    188 H188        3.1766  -15.9634  -45.0171 H         1 UNK         0.0600 
    189 H189        2.6893  -14.0437  -46.4946 H         1 UNK         0.3000 
    190 H190       -2.0517  -19.1824  -46.9326 H         1 UNK         0.3000 
    191 H191       -3.2484  -19.6459  -49.4484 H         1 UNK         0.0600 
    192 H192       -4.4354  -18.4619  -46.8849 H         1 UNK         0.0600 
    193 H193       -5.1380  -18.3161  -48.4919 H         1 UNK         0.0600 
    194 H194       -3.5840  -17.5726  -48.1468 H         1 UNK         0.0600 
    195 H195       -3.8312  -21.2448  -46.3115 H         1 UNK         0.3000 
    196 H196       -6.1239  -22.7666  -47.2184 H         1 UNK         0.0600 
    197 H197       -4.2464  -23.1902  -44.8348 H         1 UNK         0.0600 
    198 H198       -5.7842  -24.0063  -45.0894 H         1 UNK         0.0600 
    199 H199       -5.7479  -22.2697  -44.8197 H         1 UNK         0.0600 
    200 H200       -2.6067  -23.4077  -46.9553 H         1 UNK         0.3000 
    201 H201       -2.7254  -26.1410  -47.7818 H         1 UNK         0.0600 
    202 H202       -0.3974  -24.1499  -47.7364 H         1 UNK         0.0600 
    203 H203       -0.2412  -25.8955  -47.8990 H         1 UNK         0.0600 
    204 H204       -0.8801  -25.2102  -46.4132 H         1 UNK         0.0600 
    205 H205       -2.6910  -23.1894  -49.6117 H         1 UNK         0.3000 
    206 H206       -1.4725  -23.6786  -51.9624 H         1 UNK         0.0600 
    207 H207       -2.4936  -21.5312  -51.4075 H         1 UNK         0.0600 
    208 H208       -3.1610  -22.0645  -52.9425 H         1 UNK         0.0600 
    209 H209       -4.1120  -22.2221  -51.4753 H         1 UNK         0.0600 
    210 H210       -1.4972  -25.3442  -53.2700 H         1 UNK         0.3000 
    211 H211       -1.9971  -27.0205  -54.5979 H         1 UNK         0.0600 
    212 H212       -4.8004  -25.8370  -54.9186 H         1 UNK         0.0600 
    213 H213       -3.9542  -26.8779  -56.0514 H         1 UNK         0.0600 
    214 H214       -3.3787  -25.2412  -55.7767 H         1 UNK         0.0600 
    215 H215       -2.8463  -27.1253  -51.6266 H         1 UNK         0.3000 
    216 H216       -3.7714  -28.4061  -50.1158 H         1 UNK         0.0600 
    217 H217       -2.5131  -30.2504  -51.2642 H         1 UNK         0.0600 
    218 H218       -3.9711  -30.8293  -50.4775 H         1 UNK         0.0600 
    219 H219       -3.9453  -30.6240  -52.2227 H         1 UNK         0.0600 
    220 H220       -5.5041  -26.7584  -51.9357 H         1 UNK         0.3000 
    221 H221       -8.1695  -27.9133  -51.2464 H         1 UNK         0.0600 
    222 H222       -7.3021  -26.8184  -53.9797 H         1 UNK         0.0600 
    223 H223       -7.5892  -28.5179  -53.6125 H         1 UNK         0.0600 
    224 H224       -8.9196  -27.3738  -53.5590 H         1 UNK         0.0600 
    225 H225       -6.1861  -25.4570  -50.6182 H         1 UNK         0.3000 
    226 H226       -6.2425  -23.3571  -50.0476 H         1 UNK         0.0600 
    227 H227       -8.0304  -24.0863  -48.4630 H         1 UNK         0.0600 
    228 H228       -8.2485  -22.4152  -48.9582 H         1 UNK         0.0600 
    229 H229       -9.2665  -23.6718  -49.6509 H         1 UNK         0.0600 
    230 H230       -5.9197  -23.6462  -52.6140 H         1 UNK         0.3000 
    231 H231       -7.6932  -22.1438  -54.3221 H         1 UNK         0.0600 
    232 H232       -6.2281  -23.9682  -55.1529 H         1 UNK         0.0600 
    233 H233       -4.7870  -23.0664  -54.6839 H         1 UNK         0.0600 
    234 H234       -5.8261  -22.4727  -55.9718 H         1 UNK         0.0600 
    235 H235       -6.6932  -20.3341  -55.7225 H         1 UNK         0.3000 
    236 H236       -6.3074  -18.0196  -54.1400 H         1 UNK         0.0600 
    237 H237       -5.8608  -18.4701  -57.1401 H         1 UNK         0.0600 
    238 H238       -7.3753  -17.9847  -56.3759 H         1 UNK         0.0600 
    239 H239       -5.9935  -16.9014  -56.3547 H         1 UNK         0.0600 
    240 H240       -3.9559  -20.2043  -55.6271 H         1 UNK         0.3000 
    241 H241       -1.9111  -19.3011  -53.9710 H         1 UNK         0.0600 
    242 H242       -0.0561  -22.2409  -55.0970 H         1 UNK         0.3800 
    243 H243        0.2811  -20.5970  -54.6234 H         1 UNK         0.3800 
    244 H244       -1.0201  -18.8908  -56.8599 H         1 UNK         0.0800 
    245 H245       -1.8487  -17.5835  -56.0820 H         1 UNK         0.0800 
    246 H246       -1.3668  -16.6122  -53.8915 H         1 UNK         0.0800 
    247 H247       -0.1946  -15.6267  -54.7295 H         1 UNK         0.0800 
@<TRIPOS>BOND
     1    1    2 1    
     2    1  127 1    
     3    1  128 1    
     4    1  129 1    
     5    2    3 2    
     6    2    4 am   BACKBONE|DICT|INTERRES
     7    4    5 1    
     8    4  130 1    
     9    5    6 1    
    10    5   65 1    
    11    5  131 1    
    12    6    7 1    
    13    6  132 1    
    14    6  133 1    
    15    7    8 1    
    16    8    9 1    
    17    8  134 1    
    18    8  135 1    
    19    9   10 ar   
    20    9   14 ar   
    21   10   11 ar   
    22   10  136 1    
    23   11   12 ar   
    24   11  126 1    
    25   12   13 ar   
    26   12  137 1    
    27   13   14 ar   
    28   13   15 1    
    29   14  138 1    
    30   15   16 1    
    31   15  139 1    
    32   15  140 1    
    33   16   17 1    
    34   17   18 1    
    35   17  141 1    
    36   17  142 1    
    37   18   19 1    
    38   18   67 1    
    39   18  143 1    
    40   19   20 am   BACKBONE|DICT|INTERRES
    41   19  144 1    
    42   20   21 2    
    43   20   22 1    
    44   22   23 1    
    45   22   24 1    
    46   22  145 1    
    47   23  146 1    
    48   23  147 1    
    49   23  148 1    
    50   24   25 am   BACKBONE|DICT|INTERRES
    51   24  149 1    
    52   25   26 2    
    53   25   27 1    
    54   27   28 1    
    55   27   29 1    
    56   27  150 1    
    57   28  151 1    
    58   28  152 1    
    59   28  153 1    
    60   29   30 am   BACKBONE|DICT|INTERRES
    61   29  154 1    
    62   30   31 2    
    63   30   32 1    
    64   32   33 1    
    65   32   34 1    
    66   32  155 1    
    67   33  156 1    
    68   33  157 1    
    69   33  158 1    
    70   34   35 am   BACKBONE|DICT|INTERRES
    71   34  159 1    
    72   35   36 2    
    73   35   37 1    
    74   37   38 1    
    75   37   39 1    
    76   37  160 1    
    77   38  161 1    
    78   38  162 1    
    79   38  163 1    
    80   39   40 am   BACKBONE|DICT|INTERRES
    81   39  164 1    
    82   40   41 2    
    83   40   42 1    
    84   42   43 1    
    85   42   44 1    
    86   42  165 1    
    87   43  166 1    
    88   43  167 1    
    89   43  168 1    
    90   44   45 am   BACKBONE|DICT|INTERRES
    91   44  169 1    
    92   45   46 2    
    93   45   47 1    
    94   47   48 1    
    95   47   49 1    
    96   47  170 1    
    97   48  171 1    
    98   48  172 1    
    99   48  173 1    
   100   49   50 am   BACKBONE|DICT|INTERRES
   101   49  174 1    
   102   50   51 2    
   103   50   52 1    
   104   52   53 1    
   105   52   54 1    
   106   52  175 1    
   107   53  176 1    
   108   53  177 1    
   109   53  178 1    
   110   54   55 am   BACKBONE|DICT|INTERRES
   111   54  179 1    
   112   55   56 2    
   113   55   57 1    
   114   57   58 1    
   115   57   59 1    
   116   57  180 1    
   117   58  181 1    
   118   58  182 1    
   119   58  183 1    
   120   59   60 am   BACKBONE|DICT|INTERRES
   121   59  184 1    
   122   60   61 2    
   123   60   62 1    
   124   62   63 1    
   125   62   64 1    
   126   62  185 1    
   127   63  186 1    
   128   63  187 1    
   129   63  188 1    
   130   64   65 am   BACKBONE|DICT|INTERRES
   131   64  189 1    
   132   65   66 2    
   133   67   68 2    
   134   67   69 am   BACKBONE|DICT|INTERRES
   135   69   70 1    
   136   69  190 1    
   137   70   71 1    
   138   70   72 1    
   139   70  191 1    
   140   71  192 1    
   141   71  193 1    
   142   71  194 1    
   143   72   73 2    
   144   72   74 am   BACKBONE|DICT|INTERRES
   145   74   75 1    
   146   74  195 1    
   147   75   76 1    
   148   75   77 1    
   149   75  196 1    
   150   76  197 1    
   151   76  198 1    
   152   76  199 1    
   153   77   78 2    
   154   77   79 am   BACKBONE|DICT|INTERRES
   155   79   80 1    
   156   79  200 1    
   157   80   81 1    
   158   80   82 1    
   159   80  201 1    
   160   81  202 1    
   161   81  203 1    
   162   81  204 1    
   163   82   83 2    
   164   82   84 am   BACKBONE|DICT|INTERRES
   165   84   85 1    
   166   84  205 1    
   167   85   86 1    
   168   85   87 1    
   169   85  206 1    
   170   86  207 1    
   171   86  208 1    
   172   86  209 1    
   173   87   88 2    
   174   87   89 am   BACKBONE|DICT|INTERRES
   175   89   90 1    
   176   89  210 1    
   177   90   91 1    
   178   90   92 1    
   179   90  211 1    
   180   91  212 1    
   181   91  213 1    
   182   91  214 1    
   183   92   93 2    
   184   92   94 am   BACKBONE|DICT|INTERRES
   185   94   95 1    
   186   94  215 1    
   187   95   96 1    
   188   95   97 1    
   189   95  216 1    
   190   96  217 1    
   191   96  218 1    
   192   96  219 1    
   193   97   98 2    
   194   97   99 am   BACKBONE|DICT|INTERRES
   195   99  100 1    
   196   99  220 1    
   197  100  101 1    
   198  100  102 1    
   199  100  221 1    
   200  101  222 1    
   201  101  223 1    
   202  101  224 1    
   203  102  103 2    
   204  102  104 am   BACKBONE|DICT|INTERRES
   205  104  105 1    
   206  104  225 1    
   207  105  106 1    
   208  105  107 1    
   209  105  226 1    
   210  106  227 1    
   211  106  228 1    
   212  106  229 1    
   213  107  108 2    
   214  107  109 am   BACKBONE|DICT|INTERRES
   215  109  110 1    
   216  109  230 1    
   217  110  111 1    
   218  110  112 1    
   219  110  231 1    
   220  111  232 1    
   221  111  233 1    
   222  111  234 1    
   223  112  113 2    
   224  112  114 am   BACKBONE|DICT|INTERRES
   225  114  115 1    
   226  114  235 1    
   227  115  116 1    
   228  115  117 1    
   229  115  236 1    
   230  116  237 1    
   231  116  238 1    
   232  116  239 1    
   233  117  118 2    
   234  117  119 am   BACKBONE|DICT|INTERRES
   235  119  120 1    
   236  119  240 1    
   237  120  121 1    
   238  120  124 1    
   239  120  241 1    
   240  121  122 am   BACKBONE|DICT|INTERRES
   241  121  123 2    
   242  122  242 1    
   243  122  243 1    
   244  124  125 1    
   245  124  244 1    
   246  124  245 1    
   247  125  126 1    
   248  126  246 1    
   249  126  247 1    
@<TRIPOS>SUBSTRUCTURE
     1 UNK         1 GROUP             0       ****    0 ROOT    
