@<TRIPOS>MOLECULE
3R540
247   249    1
SMALL
USER_CHARGES


@<TRIPOS>ATOM
      1 CA         -2.1238  -14.8270  -48.3381 C.3       0 UNK        -0.1800 
      2 C          -0.7629  -14.2002  -48.5962 C.2       0 UNK         0.5000 
      3 O          -0.4074  -13.2137  -47.9509 O.2       0 UNK        -0.5000 
      4 N           0.0077  -14.7839  -49.5251 N.am      1 UNK        -0.5000 
      5 CA          1.3311  -14.3163  -49.9740 C.3       1 UNK         0.1400 
      6 C6          1.8946  -15.1729  -51.1353 C.3       23 UNK        -0.0398 
      7 S7          0.7798  -15.2720  -52.5769 S.3       23 UNK        -0.2404 
      8 C8          0.3941  -17.0514  -52.6239 C.3       23 UNK        -0.0205 
      9 C9         -0.5925  -17.4492  -51.5370 C.ar      23 UNK        -0.0193 
     10 C10        -1.9531  -17.1920  -51.7091 C.ar      23 UNK        -0.1150 
     11 C11        -2.8757  -17.5506  -50.7248 C.ar      23 UNK        -0.0193 
     12 C12        -2.4267  -18.1825  -49.5605 C.ar      23 UNK        -0.1150 
     13 C13        -1.0639  -18.4368  -49.3639 C.ar      23 UNK        -0.0193 
     14 C14        -0.1528  -18.0651  -50.3616 C.ar      23 UNK        -0.1150 
     15 C15        -0.6042  -19.0302  -48.0321 C.3       23 UNK        -0.0205 
     16 S16         0.9133  -20.0464  -48.1190 S.3       23 UNK        -0.2404 
     17 C17         1.2699  -20.2652  -46.3354 C.3       23 UNK        -0.0398 
     18 CA          1.1195  -21.6964  -45.7546 C.3       11 UNK         0.1400 
     19 N           1.2471  -21.6815  -44.2937 N.am      11 UNK        -0.5000 
     20 C           1.2727  -22.7507  -43.4850 C.2       10 UNK         0.5000 
     21 O           1.2208  -23.9144  -43.8836 O.2       10 UNK        -0.5000 
     22 CA          1.3254  -22.4641  -41.9721 C.3       10 UNK         0.1400 
     23 CB          2.7463  -22.0853  -41.5270 C.3       10 UNK        -0.1800 
     24 N           0.3885  -21.4085  -41.5829 N.am      10 UNK        -0.5000 
     25 C          -0.9443  -21.5553  -41.5699 C.2       9 UNK         0.5000 
     26 O          -1.5145  -22.6226  -41.7966 O.2       9 UNK        -0.5000 
     27 CA         -1.7869  -20.2962  -41.2866 C.3       9 UNK         0.1400 
     28 CB         -1.9662  -20.0891  -39.7754 C.3       9 UNK        -0.1800 
     29 N          -1.2292  -19.0820  -41.8856 N.am      9 UNK        -0.5000 
     30 C          -1.0903  -18.8807  -43.2037 C.2       8 UNK         0.5000 
     31 O          -1.4521  -19.6848  -44.0608 O.2       8 UNK        -0.5000 
     32 CA         -0.3657  -17.5975  -43.6417 C.3       8 UNK         0.1400 
     33 CB         -1.3135  -16.3900  -43.6337 C.3       8 UNK        -0.1800 
     34 N           0.8119  -17.3158  -42.8221 N.am      8 UNK        -0.5000 
     35 C           1.8932  -18.1021  -42.7264 C.2       7 UNK         0.5000 
     36 O           2.0419  -19.1346  -43.3769 O.2       7 UNK        -0.5000 
     37 CA          2.9604  -17.7001  -41.6939 C.3       7 UNK         0.1400 
     38 CB          3.9218  -16.6426  -42.2536 C.3       7 UNK        -0.1800 
     39 N           2.3537  -17.2028  -40.4620 N.am      7 UNK        -0.5000 
     40 C           1.7208  -17.9763  -39.5701 C.2       6 UNK         0.5000 
     41 O           1.6118  -19.1981  -39.6790 O.2       6 UNK        -0.5000 
     42 CA          1.0738  -17.2519  -38.3759 C.3       6 UNK         0.1400 
     43 CB          2.1021  -17.0252  -37.2577 C.3       6 UNK        -0.1800 
     44 N           0.4772  -15.9687  -38.7550 N.am      6 UNK        -0.5000 
     45 C          -0.6076  -15.8485  -39.5321 C.2       5 UNK         0.5000 
     46 O          -1.2220  -16.8075  -39.9993 O.2       5 UNK        -0.5000 
     47 CA         -1.0572  -14.4167  -39.8775 C.3       5 UNK         0.1400 
     48 CB         -1.8890  -13.8203  -38.7321 C.3       5 UNK        -0.1800 
     49 N           0.0428  -13.5036  -40.2088 N.am      5 UNK        -0.5000 
     50 C           0.8997  -13.6804  -41.2230 C.2       4 UNK         0.5000 
     51 O           0.9387  -14.6981  -41.9140 O.2       4 UNK        -0.5000 
     52 CA          1.8984  -12.5472  -41.5056 C.3       4 UNK         0.1400 
     53 CB          3.2640  -12.8600  -40.8761 C.3       4 UNK        -0.1800 
     54 N           2.0656  -12.3554  -42.9464 N.am      4 UNK        -0.5000 
     55 C           1.1535  -11.8021  -43.7539 C.2       3 UNK         0.5000 
     56 O           0.0892  -11.3304  -43.3506 O.2       3 UNK        -0.5000 
     57 CA          1.4756  -11.7455  -45.2605 C.3       3 UNK         0.1400 
     58 CB          2.5479  -10.6818  -45.5652 C.3       3 UNK        -0.1800 
     59 N           1.8093  -13.0334  -45.8818 N.am      3 UNK        -0.5000 
     60 C           2.8766  -13.8236  -45.6832 C.2       2 UNK         0.5000 
     61 O           3.7496  -13.5998  -44.8435 O.2       2 UNK        -0.5000 
     62 CA          3.0062  -15.0764  -46.5789 C.3       2 UNK         0.1400 
     63 CB          2.6325  -16.3419  -45.8001 C.3       2 UNK        -0.1800 
     64 N           2.1785  -15.0329  -47.7824 N.am      2 UNK        -0.5000 
     65 C           2.3812  -14.2399  -48.8426 C.2       1 UNK         0.5000 
     66 O           3.3382  -13.4722  -48.9489 O.2       1 UNK        -0.5000 
     67 C          -0.1742  -22.4007  -46.2112 C.2       11 UNK         0.5000 
     68 O          -0.1193  -23.1983  -47.1462 O.2       11 UNK        -0.5000 
     69 N          -1.2958  -22.1406  -45.5229 N.am      12 UNK        -0.5000 
     70 CA         -2.6364  -22.6731  -45.7968 C.3       12 UNK         0.1400 
     71 CB         -3.6305  -22.0735  -44.7904 C.3       12 UNK        -0.1800 
     72 C          -2.7636  -24.2120  -45.8307 C.2       12 UNK         0.5000 
     73 O          -3.7626  -24.7127  -46.3476 O.2       12 UNK        -0.5000 
     74 N          -1.7578  -24.9398  -45.3234 N.am      13 UNK        -0.5000 
     75 CA         -1.6217  -26.3892  -45.4843 C.3       13 UNK         0.1400 
     76 CB         -0.4706  -26.8871  -44.5981 C.3       13 UNK        -0.1800 
     77 C          -1.3977  -26.8140  -46.9528 C.2       13 UNK         0.5000 
     78 O          -1.8422  -27.8951  -47.3410 O.2       13 UNK        -0.5000 
     79 N          -0.7339  -25.9539  -47.7375 N.am      14 UNK        -0.5000 
     80 CA         -0.5365  -26.1004  -49.1813 C.3       14 UNK         0.1400 
     81 CB          0.9577  -25.9364  -49.5004 C.3       14 UNK        -0.1800 
     82 C          -1.3607  -25.0623  -49.9639 C.2       14 UNK         0.5000 
     83 O          -1.8060  -25.3536  -51.0745 O.2       14 UNK        -0.5000 
     84 N          -1.5301  -23.8653  -49.3802 N.am      15 UNK        -0.5000 
     85 CA         -2.3126  -22.7190  -49.8568 C.3       15 UNK         0.1400 
     86 CB         -3.8137  -23.0731  -49.8473 C.3       15 UNK        -0.1800 
     87 C          -1.8399  -22.1604  -51.2155 C.2       15 UNK         0.5000 
     88 O          -2.6308  -21.5505  -51.9315 O.2       15 UNK        -0.5000 
     89 N          -0.5667  -22.4130  -51.5598 N.am      16 UNK        -0.5000 
     90 CA          0.0665  -22.1394  -52.8558 C.3       16 UNK         0.1400 
     91 CB          0.2273  -20.6221  -53.0732 C.3       16 UNK        -0.1800 
     92 C          -0.6177  -22.8625  -54.0416 C.2       16 UNK         0.5000 
     93 O          -0.5278  -22.4001  -55.1807 O.2       16 UNK        -0.5000 
     94 N          -1.2679  -23.9997  -53.7468 N.am      17 UNK        -0.5000 
     95 CA         -2.0282  -24.8854  -54.6297 C.3       17 UNK         0.1400 
     96 CB         -1.1317  -25.5152  -55.7152 C.3       17 UNK        -0.1800 
     97 C          -3.2887  -24.2294  -55.2228 C.2       17 UNK         0.5000 
     98 O          -4.3999  -24.6061  -54.8479 O.2       17 UNK        -0.5000 
     99 N          -3.1018  -23.2746  -56.1369 N.am      18 UNK        -0.5000 
    100 CA        -4.1578  -22.6144  -56.8974 C.3       18 UNK         0.1400 
    101 CB        -4.5345  -23.4736  -58.1207 C.3       18 UNK        -0.1800 
    102 C         -3.7016  -21.1957  -57.2669 C.2       18 UNK         0.5000 
    103 O         -3.5946  -20.8609  -58.4484 O.2       18 UNK        -0.5000 
    104 N         -3.4119  -20.3906  -56.2395 N.am      19 UNK        -0.5000 
    105 CA        -3.0778  -18.9733  -56.3718 C.3       19 UNK         0.1400 
    106 CB        -2.3278  -18.5105  -55.1158 C.3       19 UNK        -0.1800 
    107 C         -4.3263  -18.1068  -56.6199 C.2       19 UNK         0.5000 
    108 O         -4.2396  -17.1127  -57.3422 O.2       19 UNK        -0.5000 
    109 N         -5.4627  -18.5123  -56.0425 N.am      20 UNK        -0.5000 
    110 CA        -6.7778  -17.9016  -56.2106 C.3       20 UNK         0.1400 
    111 CB        -6.8621  -16.5622  -55.4425 C.3       20 UNK        -0.1800 
    112 C         -7.8183  -18.9493  -55.7824 C.2       20 UNK         0.5000 
    113 O         -7.7682  -20.0777  -56.2761 O.2       20 UNK        -0.5000 
    114 N         -8.7111  -18.5921  -54.8473 N.am      21 UNK        -0.5000 
    115 CA        -9.5731  -19.5372  -54.1277 C.3       21 UNK         0.1400 
    116 CB       -10.6328  -18.7571  -53.3351 C.3       21 UNK        -0.1800 
    117 C         -8.7558  -20.4552  -53.1944 C.2       21 UNK         0.5000 
    118 O         -9.1162  -21.6166  -53.0012 O.2       21 UNK        -0.5000 
    119 N         -7.6482  -19.9150  -52.6717 N.am      22 UNK        -0.5000 
    120 CA        -6.5293  -20.6468  -52.0726 C.3       22 UNK         0.1400 
    121 C         -5.7865  -21.4907  -53.1468 C.2       22 UNK         0.5000 
    122 N         -5.7341  -22.8065  -52.9873 N.am      22 UNK        -0.7600 
    123 O         -5.2695  -20.9554  -54.1247 O.2       22 UNK        -0.5000 
    124 C124       -5.5749  -19.6838  -51.3107 C.3       23 UNK        -0.0398 
    125 S125       -5.1469  -18.1525  -52.2130 S.3       23 UNK        -0.2404 
    126 C126       -4.3423  -17.1836  -50.9009 C.3       23 UNK        -0.0205 
    127 H127       -2.6146  -15.0835  -49.2762 H         1 UNK         0.0600 
    128 H128       -2.7705  -14.1342  -47.7996 H         1 UNK         0.0600 
    129 H129       -2.0176  -15.7315  -47.7394 H         1 UNK         0.0600 
    130 H130       -0.3522  -15.5868  -50.0246 H         1 UNK         0.3000 
    131 H131        1.1947  -13.2977  -50.3430 H         1 UNK         0.0600 
    132 H132        2.8363  -14.7498  -51.4904 H         1 UNK         0.0800 
    133 H133        2.1351  -16.1784  -50.7869 H         1 UNK         0.0800 
    134 H134        1.3138  -17.6335  -52.5481 H         1 UNK         0.0800 
    135 H135       -0.0311  -17.2904  -53.5992 H         1 UNK         0.0800 
    136 H136       -2.2957  -16.6985  -52.6078 H         1 UNK         0.1150 
    137 H137       -3.1370  -18.4421  -48.7882 H         1 UNK         0.1150 
    138 H138        0.9037  -18.2421  -50.2233 H         1 UNK         0.1150 
    139 H139       -0.4381  -18.1999  -47.3447 H         1 UNK         0.0800 
    140 H140       -1.3990  -19.6400  -47.5988 H         1 UNK         0.0800 
    141 H141        0.6325  -19.5854  -45.7751 H         1 UNK         0.0800 
    142 H142        2.2871  -19.9135  -46.1583 H         1 UNK         0.0800 
    143 H143        1.9494  -22.2933  -46.1380 H         1 UNK         0.0600 
    144 H144        1.3565  -20.7622  -43.8708 H         1 UNK         0.3000 
    145 H145        1.0439  -23.3806  -41.4489 H         1 UNK         0.0600 
    146 H146        2.7917  -21.9287  -40.4491 H         1 UNK         0.0600 
    147 H147        3.4546  -22.8777  -41.7716 H         1 UNK         0.0600 
    148 H148        3.0957  -21.1732  -42.0103 H         1 UNK         0.0600 
    149 H149        0.7833  -20.5085  -41.3403 H         1 UNK         0.3000 
    150 H150       -2.7738  -20.4571  -41.7256 H         1 UNK         0.0600 
    151 H151       -2.4011  -20.9736  -39.3083 H         1 UNK         0.0600 
    152 H152       -2.6328  -19.2516  -39.5692 H         1 UNK         0.0600 
    153 H153       -1.0158  -19.8893  -39.2803 H         1 UNK         0.0600 
    154 H154       -0.9559  -18.3421  -41.2461 H         1 UNK         0.3000 
    155 H155       -0.0304  -17.7418  -44.6682 H         1 UNK         0.0600 
    156 H156       -2.1820  -16.5714  -44.2680 H         1 UNK         0.0600 
    157 H157       -0.8155  -15.4965  -44.0113 H         1 UNK         0.0600 
    158 H158       -1.6787  -16.1703  -42.6308 H         1 UNK         0.0600 
    159 H159        0.8020  -16.4373  -42.3066 H         1 UNK         0.3000 
    160 H160        3.5447  -18.5902  -41.4506 H         1 UNK         0.0600 
    161 H161        3.3907  -15.7656  -42.6254 H         1 UNK         0.0600 
    162 H162        4.5071  -17.0520  -43.0771 H         1 UNK         0.0600 
    163 H163        4.6298  -16.3095  -41.4945 H         1 UNK         0.0600 
    164 H164        2.3479  -16.2030  -40.3276 H         1 UNK         0.3000 
    165 H165        0.2823  -17.8956  -37.9861 H         1 UNK         0.0600 
    166 H166        1.6363  -16.5802  -36.3783 H         1 UNK         0.0600 
    167 H167        2.5510  -17.9686  -36.9441 H         1 UNK         0.0600 
    168 H168        2.9107  -16.3675  -37.5791 H         1 UNK         0.0600 
    169 H169        0.9268  -15.1311  -38.4154 H         1 UNK         0.3000 
    170 H170       -1.6991  -14.4835  -40.7583 H         1 UNK         0.0600 
    171 H171       -2.7252  -14.4724  -38.4758 H         1 UNK         0.0600 
    172 H172       -1.2925  -13.6810  -37.8297 H         1 UNK         0.0600 
    173 H173       -2.3077  -12.8531  -39.0108 H         1 UNK         0.0600 
    174 H174        0.0870  -12.6464  -39.6769 H         1 UNK         0.3000 
    175 H175        1.5188  -11.6199  -41.0716 H         1 UNK         0.0600 
    176 H176        3.7070  -13.7618  -41.2986 H         1 UNK         0.0600 
    177 H177        3.9652  -12.0402  -41.0332 H         1 UNK         0.0600 
    178 H178        3.1750  -13.0095  -39.7994 H         1 UNK         0.0600 
    179 H179        2.8758  -12.7851  -43.3845 H         1 UNK         0.3000 
    180 H180        0.5589  -11.4232  -45.7574 H         1 UNK         0.0600 
    181 H181        3.5075  -10.9234  -45.1076 H         1 UNK         0.0600 
    182 H182        2.2444   -9.7049  -45.1867 H         1 UNK         0.0600 
    183 H183        2.7055  -10.5798  -46.6390 H         1 UNK         0.0600 
    184 H184        1.1466  -13.3236  -46.5935 H         1 UNK         0.3000 
    185 H185        4.0507  -15.1564  -46.8870 H         1 UNK         0.0600 
    186 H186        3.3173  -16.4954  -44.9699 H         1 UNK         0.0600 
    187 H187        1.6247  -16.2703  -45.3935 H         1 UNK         0.0600 
    188 H188        2.6840  -17.2323  -46.4273 H         1 UNK         0.0600 
    189 H189        1.3619  -15.6254  -47.7899 H         1 UNK         0.3000 
    190 H190       -1.2502  -21.4296  -44.7972 H         1 UNK         0.3000 
    191 H191       -2.9176  -22.3197  -46.7900 H         1 UNK         0.0600 
    192 H192       -3.3665  -22.3317  -43.7649 H         1 UNK         0.0600 
    193 H193       -4.6430  -22.4371  -44.9703 H         1 UNK         0.0600 
    194 H194       -3.6633  -20.9868  -44.8666 H         1 UNK         0.0600 
    195 H195       -0.9742  -24.4545  -44.9066 H         1 UNK         0.3000 
    196 H196       -2.5466  -26.8562  -45.1394 H         1 UNK         0.0600 
    197 H197       -0.3706  -27.9714  -44.6601 H         1 UNK         0.0600 
    198 H198       -0.6402  -26.6348  -43.5511 H         1 UNK         0.0600 
    199 H199        0.4836  -26.4513  -44.8970 H         1 UNK         0.0600 
    200 H200       -0.4226  -25.0766  -47.3319 H         1 UNK         0.3000 
    201 H201       -0.8512  -27.0911  -49.5152 H         1 UNK         0.0600 
    202 H202        1.5511  -26.7012  -48.9991 H         1 UNK         0.0600 
    203 H203        1.3338  -24.9622  -49.1848 H         1 UNK         0.0600 
    204 H204        1.1425  -26.0314  -50.5712 H         1 UNK         0.0600 
    205 H205       -1.0345  -23.6954  -48.5060 H         1 UNK         0.3000 
    206 H206       -2.1522  -21.9186  -49.1332 H         1 UNK         0.0600 
    207 H207       -4.1129  -23.5032  -48.8917 H         1 UNK         0.0600 
    208 H208       -4.4306  -22.1909  -50.0064 H         1 UNK         0.0600 
    209 H209       -4.0609  -23.7918  -50.6292 H         1 UNK         0.0600 
    210 H210        0.0007  -22.9148  -50.8922 H         1 UNK         0.3000 
    211 H211        1.0691  -22.5647  -52.7976 H         1 UNK         0.0600 
    212 H212       -0.7364  -20.1148  -53.1016 H         1 UNK         0.0600 
    213 H213        0.7447  -20.4036  -54.0078 H         1 UNK         0.0600 
    214 H214        0.8121  -20.1770  -52.2689 H         1 UNK         0.0600 
    215 H215       -1.3124  -24.2659  -52.7685 H         1 UNK         0.3000 
    216 H216       -2.3759  -25.6999  -53.9920 H         1 UNK         0.0600 
    217 H217       -1.6997  -26.2179  -56.3260 H         1 UNK         0.0600 
    218 H218       -0.3062  -26.0685  -55.2676 H         1 UNK         0.0600 
    219 H219       -0.7066  -24.7708  -56.3884 H         1 UNK         0.0600 
    220 H220       -2.1551  -22.9375  -56.2855 H         1 UNK         0.3000 
    221 H221       -5.0474  -22.5062  -56.2739 H         1 UNK         0.0600 
    222 H222       -3.6780  -23.6364  -58.7758 H         1 UNK         0.0600 
    223 H223       -4.9137  -24.4493  -57.8168 H         1 UNK         0.0600 
    224 H224       -5.3163  -22.9928  -58.7099 H         1 UNK         0.0600 
    225 H225       -3.6088  -20.7255  -55.3013 H         1 UNK         0.3000 
    226 H226       -2.4109  -18.8441  -57.2270 H         1 UNK         0.0600 
    227 H227       -2.8842  -18.7384  -54.2058 H         1 UNK         0.0600 
    228 H228       -1.3566  -18.9987  -55.0483 H         1 UNK         0.0600 
    229 H229       -2.1493  -17.4348  -55.1357 H         1 UNK         0.0600 
    230 H230       -5.4471  -19.3629  -55.4856 H         1 UNK         0.3000 
    231 H231       -6.9414  -17.7083  -57.2725 H         1 UNK         0.0600 
    232 H232       -6.6916  -16.6939  -54.3739 H         1 UNK         0.0600 
    233 H233       -6.1201  -15.8510  -55.8048 H         1 UNK         0.0600 
    234 H234       -7.8362  -16.0899  -55.5746 H         1 UNK         0.0600 
    235 H235       -8.7048  -17.6395  -54.5125 H         1 UNK         0.3000 
    236 H236      -10.0832  -20.1681  -54.8587 H         1 UNK         0.0600 
    237 H237      -11.3011  -19.4373  -52.8053 H         1 UNK         0.0600 
    238 H238      -10.1790  -18.0987  -52.5933 H         1 UNK         0.0600 
    239 H239      -11.2487  -18.1463  -53.9954 H         1 UNK         0.0600 
    240 H240       -7.4362  -18.9568  -52.9057 H         1 UNK         0.3000 
    241 H241       -6.9483  -21.3345  -51.3355 H         1 UNK         0.0600 
    242 H242       -5.2625  -23.3734  -53.6848 H         1 UNK         0.3800 
    243 H243       -6.1835  -23.2604  -52.2092 H         1 UNK         0.3800 
    244 H244       -6.0502  -19.3949  -50.3727 H         1 UNK         0.0800 
    245 H245       -4.6490  -20.1832  -51.0295 H         1 UNK         0.0800 
    246 H246       -4.4077  -16.1270  -51.1641 H         1 UNK         0.0800 
    247 H247       -4.8909  -17.2942  -49.9645 H         1 UNK         0.0800 
@<TRIPOS>BOND
     1    1    2 1    
     2    1  127 1    
     3    1  128 1    
     4    1  129 1    
     5    2    3 2    
     6    2    4 am   BACKBONE|DICT|INTERRES
     7    4    5 1    
     8    4  130 1    
     9    5    6 1    
    10    5   65 1    
    11    5  131 1    
    12    6    7 1    
    13    6  132 1    
    14    6  133 1    
    15    7    8 1    
    16    8    9 1    
    17    8  134 1    
    18    8  135 1    
    19    9   10 ar   
    20    9   14 ar   
    21   10   11 ar   
    22   10  136 1    
    23   11   12 ar   
    24   11  126 1    
    25   12   13 ar   
    26   12  137 1    
    27   13   14 ar   
    28   13   15 1    
    29   14  138 1    
    30   15   16 1    
    31   15  139 1    
    32   15  140 1    
    33   16   17 1    
    34   17   18 1    
    35   17  141 1    
    36   17  142 1    
    37   18   19 1    
    38   18   67 1    
    39   18  143 1    
    40   19   20 am   BACKBONE|DICT|INTERRES
    41   19  144 1    
    42   20   21 2    
    43   20   22 1    
    44   22   23 1    
    45   22   24 1    
    46   22  145 1    
    47   23  146 1    
    48   23  147 1    
    49   23  148 1    
    50   24   25 am   BACKBONE|DICT|INTERRES
    51   24  149 1    
    52   25   26 2    
    53   25   27 1    
    54   27   28 1    
    55   27   29 1    
    56   27  150 1    
    57   28  151 1    
    58   28  152 1    
    59   28  153 1    
    60   29   30 am   BACKBONE|DICT|INTERRES
    61   29  154 1    
    62   30   31 2    
    63   30   32 1    
    64   32   33 1    
    65   32   34 1    
    66   32  155 1    
    67   33  156 1    
    68   33  157 1    
    69   33  158 1    
    70   34   35 am   BACKBONE|DICT|INTERRES
    71   34  159 1    
    72   35   36 2    
    73   35   37 1    
    74   37   38 1    
    75   37   39 1    
    76   37  160 1    
    77   38  161 1    
    78   38  162 1    
    79   38  163 1    
    80   39   40 am   BACKBONE|DICT|INTERRES
    81   39  164 1    
    82   40   41 2    
    83   40   42 1    
    84   42   43 1    
    85   42   44 1    
    86   42  165 1    
    87   43  166 1    
    88   43  167 1    
    89   43  168 1    
    90   44   45 am   BACKBONE|DICT|INTERRES
    91   44  169 1    
    92   45   46 2    
    93   45   47 1    
    94   47   48 1    
    95   47   49 1    
    96   47  170 1    
    97   48  171 1    
    98   48  172 1    
    99   48  173 1    
   100   49   50 am   BACKBONE|DICT|INTERRES
   101   49  174 1    
   102   50   51 2    
   103   50   52 1    
   104   52   53 1    
   105   52   54 1    
   106   52  175 1    
   107   53  176 1    
   108   53  177 1    
   109   53  178 1    
   110   54   55 am   BACKBONE|DICT|INTERRES
   111   54  179 1    
   112   55   56 2    
   113   55   57 1    
   114   57   58 1    
   115   57   59 1    
   116   57  180 1    
   117   58  181 1    
   118   58  182 1    
   119   58  183 1    
   120   59   60 am   BACKBONE|DICT|INTERRES
   121   59  184 1    
   122   60   61 2    
   123   60   62 1    
   124   62   63 1    
   125   62   64 1    
   126   62  185 1    
   127   63  186 1    
   128   63  187 1    
   129   63  188 1    
   130   64   65 am   BACKBONE|DICT|INTERRES
   131   64  189 1    
   132   65   66 2    
   133   67   68 2    
   134   67   69 am   BACKBONE|DICT|INTERRES
   135   69   70 1    
   136   69  190 1    
   137   70   71 1    
   138   70   72 1    
   139   70  191 1    
   140   71  192 1    
   141   71  193 1    
   142   71  194 1    
   143   72   73 2    
   144   72   74 am   BACKBONE|DICT|INTERRES
   145   74   75 1    
   146   74  195 1    
   147   75   76 1    
   148   75   77 1    
   149   75  196 1    
   150   76  197 1    
   151   76  198 1    
   152   76  199 1    
   153   77   78 2    
   154   77   79 am   BACKBONE|DICT|INTERRES
   155   79   80 1    
   156   79  200 1    
   157   80   81 1    
   158   80   82 1    
   159   80  201 1    
   160   81  202 1    
   161   81  203 1    
   162   81  204 1    
   163   82   83 2    
   164   82   84 am   BACKBONE|DICT|INTERRES
   165   84   85 1    
   166   84  205 1    
   167   85   86 1    
   168   85   87 1    
   169   85  206 1    
   170   86  207 1    
   171   86  208 1    
   172   86  209 1    
   173   87   88 2    
   174   87   89 am   BACKBONE|DICT|INTERRES
   175   89   90 1    
   176   89  210 1    
   177   90   91 1    
   178   90   92 1    
   179   90  211 1    
   180   91  212 1    
   181   91  213 1    
   182   91  214 1    
   183   92   93 2    
   184   92   94 am   BACKBONE|DICT|INTERRES
   185   94   95 1    
   186   94  215 1    
   187   95   96 1    
   188   95   97 1    
   189   95  216 1    
   190   96  217 1    
   191   96  218 1    
   192   96  219 1    
   193   97   98 2    
   194   97   99 am   BACKBONE|DICT|INTERRES
   195   99  100 1    
   196   99  220 1    
   197  100  101 1    
   198  100  102 1    
   199  100  221 1    
   200  101  222 1    
   201  101  223 1    
   202  101  224 1    
   203  102  103 2    
   204  102  104 am   BACKBONE|DICT|INTERRES
   205  104  105 1    
   206  104  225 1    
   207  105  106 1    
   208  105  107 1    
   209  105  226 1    
   210  106  227 1    
   211  106  228 1    
   212  106  229 1    
   213  107  108 2    
   214  107  109 am   BACKBONE|DICT|INTERRES
   215  109  110 1    
   216  109  230 1    
   217  110  111 1    
   218  110  112 1    
   219  110  231 1    
   220  111  232 1    
   221  111  233 1    
   222  111  234 1    
   223  112  113 2    
   224  112  114 am   BACKBONE|DICT|INTERRES
   225  114  115 1    
   226  114  235 1    
   227  115  116 1    
   228  115  117 1    
   229  115  236 1    
   230  116  237 1    
   231  116  238 1    
   232  116  239 1    
   233  117  118 2    
   234  117  119 am   BACKBONE|DICT|INTERRES
   235  119  120 1    
   236  119  240 1    
   237  120  121 1    
   238  120  124 1    
   239  120  241 1    
   240  121  122 am   BACKBONE|DICT|INTERRES
   241  121  123 2    
   242  122  242 1    
   243  122  243 1    
   244  124  125 1    
   245  124  244 1    
   246  124  245 1    
   247  125  126 1    
   248  126  246 1    
   249  126  247 1    
@<TRIPOS>SUBSTRUCTURE
     1 UNK         1 GROUP             0       ****    0 ROOT    
