@<TRIPOS>MOLECULE
3R540
247   249    1
SMALL
USER_CHARGES


@<TRIPOS>ATOM
      1 CA         -1.4215  -10.2735  -51.5004 C.3       0 UNK        -0.1800 
      2 C          -0.6115  -11.1658  -50.5712 C.2       0 UNK         0.5000 
      3 O          -0.1173  -10.6949  -49.5471 O.2       0 UNK        -0.5000 
      4 N          -0.4876  -12.4561  -50.9152 N.am      1 UNK        -0.5000 
      5 CA          0.2674  -13.4749  -50.1671 C.3       1 UNK         0.1400 
      6 C6          0.3339  -14.8172  -50.9477 C.3       23 UNK        -0.0398 
      7 S7          1.9609  -15.6456  -50.8690 S.3       23 UNK        -0.2404 
      8 C8          1.8877  -16.6494  -49.3483 C.3       23 UNK        -0.0205 
      9 C9          0.8948  -17.7987  -49.4256 C.ar      23 UNK        -0.0193 
     10 C10        -0.4354  -17.6118  -49.0398 C.ar      23 UNK        -0.1150 
     11 C11        -1.3381  -18.6772  -49.0533 C.ar      23 UNK        -0.0193 
     12 C12        -0.8904  -19.9490  -49.4194 C.ar      23 UNK        -0.1150 
     13 C13         0.4397  -20.1524  -49.7953 C.ar      23 UNK        -0.0193 
     14 C14         1.3224  -19.0692  -49.8193 C.ar      23 UNK        -0.1150 
     15 C15         0.9334  -21.5560  -50.1110 C.3       23 UNK        -0.0205 
     16 S16         2.1726  -22.1582  -48.9121 S.3       23 UNK        -0.2404 
     17 C17         1.4537  -21.7164  -47.2884 C.3       23 UNK        -0.0398 
     18 CA          0.7269  -22.8772  -46.5780 C.3       11 UNK         0.1400 
     19 N           0.5548  -22.5963  -45.1506 N.am      11 UNK        -0.5000 
     20 C           0.1192  -23.4746  -44.2374 C.2       10 UNK         0.5000 
     21 O          -0.1984  -24.6340  -44.5013 O.2       10 UNK        -0.5000 
     22 CA         -0.0313  -22.9529  -42.7977 C.3       10 UNK         0.1400 
     23 CB          1.3383  -22.8105  -42.1171 C.3       10 UNK        -0.1800 
     24 N          -0.7431  -21.6758  -42.7518 N.am      10 UNK        -0.5000 
     25 C          -2.0315  -21.5222  -43.0897 C.2       9 UNK         0.5000 
     26 O          -2.7731  -22.4586  -43.3889 O.2       9 UNK        -0.5000 
     27 CA         -2.5738  -20.0810  -43.1384 C.3       9 UNK         0.1400 
     28 CB         -2.9963  -19.6093  -41.7394 C.3       9 UNK        -0.1800 
     29 N          -1.6202  -19.1266  -43.7071 N.am      9 UNK        -0.5000 
     30 C          -1.1488  -19.1704  -44.9608 C.2       8 UNK         0.5000 
     31 O          -1.4843  -20.0151  -45.7878 O.2       8 UNK        -0.5000 
     32 CA         -0.0815  -18.1288  -45.3363 C.3       8 UNK         0.1400 
     33 CB         -0.7195  -16.7650  -45.6469 C.3       8 UNK        -0.1800 
     34 N           0.9342  -17.9867  -44.2927 N.am      8 UNK        -0.5000 
     35 C           1.7962  -18.9533  -43.9446 C.2       7 UNK         0.5000 
     36 O           1.8669  -20.0431  -44.5116 O.2       7 UNK        -0.5000 
     37 CA          2.6862  -18.6824  -42.7194 C.3       7 UNK         0.1400 
     38 CB          3.9527  -17.9106  -43.1123 C.3       7 UNK        -0.1800 
     39 N           1.9687  -17.9569  -41.6712 N.am      7 UNK        -0.5000 
     40 C           1.0032  -18.5059  -40.9198 C.2       6 UNK         0.5000 
     41 O           0.6514  -19.6817  -41.0155 O.2       6 UNK        -0.5000 
     42 CA          0.2764  -17.5790  -39.9279 C.3       6 UNK         0.1400 
     43 CB          1.0223  -17.5327  -38.5864 C.3       6 UNK        -0.1800 
     44 N           0.0971  -16.2150  -40.4290 N.am      6 UNK        -0.5000 
     45 C          -0.5930  -15.8861  -41.5294 C.2       5 UNK         0.5000 
     46 O          -1.1561  -16.7129  -42.2459 O.2       5 UNK        -0.5000 
     47 CA         -0.6637  -14.3947  -41.9083 C.3       5 UNK         0.1400 
     48 CB         -0.3308  -13.4386  -40.7416 C.3       5 UNK        -0.1800 
     49 N           0.1568  -14.0626  -43.0765 N.am      5 UNK        -0.5000 
     50 C           1.4798  -14.2403  -43.2314 C.2       4 UNK         0.5000 
     51 O           2.1753  -14.8866  -42.4460 O.2       4 UNK        -0.5000 
     52 CA          2.1559  -13.5708  -44.4521 C.3       4 UNK         0.1400 
     53 CB          2.7445  -14.6136  -45.4150 C.3       4 UNK        -0.1800 
     54 N           1.2690  -12.6739  -45.1991 N.am      4 UNK        -0.5000 
     55 C           0.8617  -11.4679  -44.7701 C.2       3 UNK         0.5000 
     56 O           1.2783  -10.9422  -43.7374 O.2       3 UNK        -0.5000 
     57 CA         -0.2140  -10.7333  -45.6009 C.3       3 UNK         0.1400 
     58 CB          0.4218   -9.5946  -46.4120 C.3       3 UNK        -0.1800 
     59 N          -0.9687  -11.6007  -46.5095 N.am      3 UNK        -0.5000 
     60 C          -1.7325  -12.6410  -46.1401 C.2       2 UNK         0.5000 
     61 O          -1.9517  -12.9350  -44.9643 O.2       2 UNK        -0.5000 
     62 CA         -2.2954  -13.5443  -47.2594 C.3       2 UNK         0.1400 
     63 CB         -3.7799  -13.2371  -47.5037 C.3       2 UNK        -0.1800 
     64 N          -1.5804  -13.4652  -48.5381 N.am      2 UNK        -0.5000 
     65 C          -0.2695  -13.6805  -48.7306 C.2       1 UNK         0.5000 
     66 O           0.5057  -13.9692  -47.8195 O.2       1 UNK        -0.5000 
     67 C          -0.5995  -23.2528  -47.2740 C.2       11 UNK         0.5000 
     68 O          -0.5962  -24.1494  -48.1182 O.2       11 UNK        -0.5000 
     69 N          -1.7139  -22.6183  -46.8773 N.am      12 UNK        -0.5000 
     70 CA         -3.0717  -22.9241  -47.3401 C.3       12 UNK         0.1400 
     71 CB         -4.0846  -21.9914  -46.6581 C.3       12 UNK        -0.1800 
     72 C          -3.4756  -24.3918  -47.1041 C.2       12 UNK         0.5000 
     73 O          -4.0997  -25.0010  -47.9721 O.2       12 UNK        -0.5000 
     74 N          -3.0912  -24.9334  -45.9413 N.am      13 UNK        -0.5000 
     75 CA         -3.3090  -26.3299  -45.5776 C.3       13 UNK         0.1400 
     76 CB         -3.3010  -26.4594  -44.0463 C.3       13 UNK        -0.1800 
     77 C          -2.2601  -27.2615  -46.2100 C.2       13 UNK         0.5000 
     78 O          -2.6184  -28.3339  -46.6985 O.2       13 UNK        -0.5000 
     79 N          -0.9850  -26.8524  -46.1635 N.am      14 UNK        -0.5000 
     80 CA          0.1581  -27.6738  -46.5597 C.3       14 UNK         0.1400 
     81 CB          1.4424  -27.0748  -45.9665 C.3       14 UNK        -0.1800 
     82 C           0.3126  -27.8627  -48.0790 C.2       14 UNK         0.5000 
     83 O           0.7130  -28.9486  -48.5022 O.2       14 UNK        -0.5000 
     84 N           0.0343  -26.8147  -48.8650 N.am      15 UNK        -0.5000 
     85 CA          0.3061  -26.7814  -50.3044 C.3       15 UNK         0.1400 
     86 CB          1.6236  -26.0259  -50.5481 C.3       15 UNK        -0.1800 
     87 C          -0.8249  -26.1496  -51.1286 C.2       15 UNK         0.5000 
     88 O          -1.0176  -26.5568  -52.2755 O.2       15 UNK        -0.5000 
     89 N          -1.5245  -25.1546  -50.5641 N.am      16 UNK        -0.5000 
     90 CA         -2.5499  -24.2973  -51.1771 C.3       16 UNK         0.1400 
     91 CB         -3.7416  -25.1064  -51.7255 C.3       16 UNK        -0.1800 
     92 C          -1.9770  -23.3270  -52.2279 C.2       16 UNK         0.5000 
     93 O          -2.1320  -22.1149  -52.0800 O.2       16 UNK        -0.5000 
     94 N          -1.2889  -23.8804  -53.2354 N.am      17 UNK        -0.5000 
     95 CA         -0.6129  -23.2046  -54.3445 C.3       17 UNK         0.1400 
     96 CB          0.5874  -22.3873  -53.8155 C.3       17 UNK        -0.1800 
     97 C          -1.5739  -22.3814  -55.2325 C.2       17 UNK         0.5000 
     98 O          -2.7715  -22.6704  -55.2864 O.2       17 UNK        -0.5000 
     99 N          -1.0207  -21.3907  -55.9420 N.am      18 UNK        -0.5000 
    100 CA        -1.7400  -20.4772  -56.8335 C.3       18 UNK         0.1400 
    101 CB        -0.8887  -20.2675  -58.0982 C.3       18 UNK        -0.1800 
    102 C         -2.0673  -19.1294  -56.1563 C.2       18 UNK         0.5000 
    103 O         -2.5323  -18.2120  -56.8353 O.2       18 UNK        -0.5000 
    104 N         -1.7966  -19.0128  -54.8481 N.am      19 UNK        -0.5000 
    105 CA        -2.0460  -17.8210  -54.0382 C.3       19 UNK         0.1400 
    106 CB        -1.3719  -18.0004  -52.6701 C.3       19 UNK        -0.1800 
    107 C         -3.5500  -17.4986  -53.9052 C.2       19 UNK         0.5000 
    108 O         -4.3813  -18.4111  -53.9099 O.2       19 UNK        -0.5000 
    109 N         -3.8541  -16.1961  -53.8168 N.am      20 UNK        -0.5000 
    110 CA        -5.1870  -15.5888  -53.8670 C.3       20 UNK         0.1400 
    111 CB        -5.0420  -14.0699  -53.6685 C.3       20 UNK        -0.1800 
    112 C         -6.1975  -16.1878  -52.8683 C.2       20 UNK         0.5000 
    113 O         -6.1587  -15.8546  -51.6830 O.2       20 UNK        -0.5000 
    114 N         -7.0773  -17.0586  -53.3857 N.am      21 UNK        -0.5000 
    115 CA        -8.1381  -17.7907  -52.6813 C.3       21 UNK         0.1400 
    116 CB        -9.1984  -16.8177  -52.1231 C.3       21 UNK        -0.1800 
    117 C         -7.6234  -18.7854  -51.6160 C.2       21 UNK         0.5000 
    118 O         -8.3811  -19.1640  -50.7206 O.2       21 UNK        -0.5000 
    119 N         -6.3580  -19.2056  -51.7335 N.am      22 UNK        -0.5000 
    120 CA        -5.6886  -20.1191  -50.7928 C.3       22 UNK         0.1400 
    121 C         -5.9422  -21.6284  -51.0717 C.2       22 UNK         0.5000 
    122 N         -6.5903  -22.0078  -52.1667 N.am      22 UNK        -0.7600 
    123 O         -5.5604  -22.4708  -50.2654 O.2       22 UNK        -0.5000 
    124 C124       -4.1749  -19.8187  -50.7020 C.3       23 UNK        -0.0398 
    125 S125       -3.8476  -18.1304  -50.0845 S.3       23 UNK        -0.2404 
    126 C126       -2.7858  -18.4526  -48.6468 C.3       23 UNK        -0.0205 
    127 H127       -2.2656   -9.8414  -50.9629 H         1 UNK         0.0600 
    128 H128       -1.8098  -10.8249  -52.3571 H         1 UNK         0.0600 
    129 H129       -0.8003   -9.4591  -51.8729 H         1 UNK         0.0600 
    130 H130       -0.9216  -12.7716  -51.7708 H         1 UNK         0.3000 
    131 H131        1.2807  -13.0797  -50.0676 H         1 UNK         0.0600 
    132 H132       -0.4702  -15.4977  -50.6737 H         1 UNK         0.0800 
    133 H133        0.1749  -14.6305  -52.0105 H         1 UNK         0.0800 
    134 H134        1.6708  -16.0255  -48.4847 H         1 UNK         0.0800 
    135 H135        2.8857  -17.0493  -49.1635 H         1 UNK         0.0800 
    136 H136       -0.7697  -16.6370  -48.7172 H         1 UNK         0.1150 
    137 H137       -1.5697  -20.7877  -49.3946 H         1 UNK         0.1150 
    138 H138        2.3547  -19.2280  -50.0980 H         1 UNK         0.1150 
    139 H139        0.1022  -22.2614  -50.1470 H         1 UNK         0.0800 
    140 H140        1.3814  -21.5589  -51.1041 H         1 UNK         0.0800 
    141 H141        0.8152  -20.8356  -47.3423 H         1 UNK         0.0800 
    142 H142        2.3043  -21.4081  -46.6802 H         1 UNK         0.0800 
    143 H143        1.3747  -23.7532  -46.6395 H         1 UNK         0.0600 
    144 H144        0.8143  -21.6625  -44.8458 H         1 UNK         0.3000 
    145 H145       -0.6137  -23.6865  -42.2363 H         1 UNK         0.0600 
    146 H146        1.2291  -22.5150  -41.0735 H         1 UNK         0.0600 
    147 H147        1.9611  -22.0641  -42.6107 H         1 UNK         0.0600 
    148 H148        1.8822  -23.7558  -42.1328 H         1 UNK         0.0600 
    149 H149       -0.2136  -20.8652  -42.4492 H         1 UNK         0.3000 
    150 H150       -3.4582  -20.0832  -43.7789 H         1 UNK         0.0600 
    151 H151       -3.7442  -20.2780  -41.3115 H         1 UNK         0.0600 
    152 H152       -3.4329  -18.6110  -41.7747 H         1 UNK         0.0600 
    153 H153       -2.1503  -19.5802  -41.0527 H         1 UNK         0.0600 
    154 H154       -1.3288  -18.3584  -43.1072 H         1 UNK         0.3000 
    155 H155        0.4100  -18.4836  -46.2449 H         1 UNK         0.0600 
    156 H156       -1.6102  -16.8803  -46.2609 H         1 UNK         0.0600 
    157 H157       -0.0356  -16.1267  -46.2020 H         1 UNK         0.0600 
    158 H158       -1.0225  -16.2306  -44.7486 H         1 UNK         0.0600 
    159 H159        0.8956  -17.1509  -43.7286 H         1 UNK         0.3000 
    160 H160        2.9965  -19.6494  -42.3175 H         1 UNK         0.0600 
    161 H161        3.7176  -16.9113  -43.4736 H         1 UNK         0.0600 
    162 H162        4.4977  -18.4283  -43.9027 H         1 UNK         0.0600 
    163 H163        4.6289  -17.8076  -42.2636 H         1 UNK         0.0600 
    164 H164        2.1681  -16.9682  -41.5740 H         1 UNK         0.3000 
    165 H165       -0.7157  -17.9993  -39.7516 H         1 UNK         0.0600 
    166 H166        0.4702  -16.9516  -37.8476 H         1 UNK         0.0600 
    167 H167        1.1527  -18.5357  -38.1777 H         1 UNK         0.0600 
    168 H168        2.0133  -17.0893  -38.6917 H         1 UNK         0.0600 
    169 H169        0.5532  -15.4778  -39.9117 H         1 UNK         0.3000 
    170 H170       -1.6983  -14.2071  -42.1997 H         1 UNK         0.0600 
    171 H171       -0.9564  -13.6438  -39.8719 H         1 UNK         0.0600 
    172 H172        0.7117  -13.5113  -40.4297 H         1 UNK         0.0600 
    173 H173       -0.5129  -12.4027  -41.0287 H         1 UNK         0.0600 
    174 H174       -0.3424  -13.5727  -43.8109 H         1 UNK         0.3000 
    175 H175        2.9851  -12.9743  -44.0667 H         1 UNK         0.0600 
    176 H176        1.9974  -15.3316  -45.7470 H         1 UNK         0.0600 
    177 H177        3.1668  -14.1398  -46.3015 H         1 UNK         0.0600 
    178 H178        3.5494  -15.1718  -44.9389 H         1 UNK         0.0600 
    179 H179        0.9014  -13.0343  -46.0748 H         1 UNK         0.3000 
    180 H180       -0.9248  -10.2969  -44.8965 H         1 UNK         0.0600 
    181 H181       -0.3329   -9.0278  -46.9576 H         1 UNK         0.0600 
    182 H182        1.1440   -9.9743  -47.1359 H         1 UNK         0.0600 
    183 H183        0.9463   -8.8943  -45.7608 H         1 UNK         0.0600 
    184 H184       -0.8191  -11.4425  -47.4986 H         1 UNK         0.3000 
    185 H185       -2.2156  -14.5738  -46.9079 H         1 UNK         0.0600 
    186 H186       -3.9220  -12.2287  -47.8944 H         1 UNK         0.0600 
    187 H187       -4.2169  -13.9390  -48.2144 H         1 UNK         0.0600 
    188 H188       -4.3535  -13.3152  -46.5790 H         1 UNK         0.0600 
    189 H189       -2.1337  -13.1988  -49.3393 H         1 UNK         0.3000 
    190 H190       -1.6228  -21.8322  -46.2379 H         1 UNK         0.3000 
    191 H191       -3.1025  -22.7209  -48.4094 H         1 UNK         0.0600 
    192 H192       -4.1714  -22.1975  -45.5918 H         1 UNK         0.0600 
    193 H193       -5.0761  -22.1149  -47.0956 H         1 UNK         0.0600 
    194 H194       -3.8110  -20.9454  -46.7681 H         1 UNK         0.0600 
    195 H195       -2.5666  -24.3651  -45.2892 H         1 UNK         0.3000 
    196 H196       -4.2936  -26.6407  -45.9340 H         1 UNK         0.0600 
    197 H197       -4.0832  -25.8478  -43.5961 H         1 UNK         0.0600 
    198 H198       -2.3475  -26.1487  -43.6176 H         1 UNK         0.0600 
    199 H199       -3.4781  -27.4914  -43.7410 H         1 UNK         0.0600 
    200 H200       -0.7706  -25.9731  -45.7001 H         1 UNK         0.3000 
    201 H201        0.0236  -28.6648  -46.1206 H         1 UNK         0.0600 
    202 H202        1.3815  -27.0062  -44.8802 H         1 UNK         0.0600 
    203 H203        1.6357  -26.0753  -46.3553 H         1 UNK         0.0600 
    204 H204        2.3091  -27.6926  -46.2050 H         1 UNK         0.0600 
    205 H205       -0.2837  -25.9484  -48.4386 H         1 UNK         0.3000 
    206 H206        0.4239  -27.7973  -50.6871 H         1 UNK         0.0600 
    207 H207        1.5735  -25.0034  -50.1714 H         1 UNK         0.0600 
    208 H208        2.4599  -26.5228  -50.0563 H         1 UNK         0.0600 
    209 H209        1.8566  -25.9735  -51.6125 H         1 UNK         0.0600 
    210 H210       -1.2373  -24.8531  -49.6356 H         1 UNK         0.3000 
    211 H211       -2.9386  -23.6796  -50.3705 H         1 UNK         0.0600 
    212 H212       -3.4641  -25.7463  -52.5627 H         1 UNK         0.0600 
    213 H213       -4.5271  -24.4382  -52.0793 H         1 UNK         0.0600 
    214 H214       -4.1768  -25.7350  -50.9485 H         1 UNK         0.0600 
    215 H215       -1.2235  -24.8943  -53.2300 H         1 UNK         0.3000 
    216 H216       -0.2191  -23.9988  -54.9800 H         1 UNK         0.0600 
    217 H217        1.2439  -22.0675  -54.6250 H         1 UNK         0.0600 
    218 H218        1.1961  -22.9846  -53.1363 H         1 UNK         0.0600 
    219 H219        0.2639  -21.4955  -53.2772 H         1 UNK         0.0600 
    220 H220       -0.0294  -21.2232  -55.8443 H         1 UNK         0.3000 
    221 H221       -2.6901  -20.9209  -57.1377 H         1 UNK         0.0600 
    222 H222        0.0615  -19.7839  -57.8684 H         1 UNK         0.0600 
    223 H223       -0.6722  -21.2167  -58.5888 H         1 UNK         0.0600 
    224 H224       -1.4087  -19.6421  -58.8249 H         1 UNK         0.0600 
    225 H225       -1.4667  -19.8296  -54.3568 H         1 UNK         0.3000 
    226 H226       -1.5661  -16.9782  -54.5402 H         1 UNK         0.0600 
    227 H227       -0.2861  -18.0271  -52.7643 H         1 UNK         0.0600 
    228 H228       -1.6163  -17.1784  -51.9974 H         1 UNK         0.0600 
    229 H229       -1.6807  -18.9254  -52.1843 H         1 UNK         0.0600 
    230 H230       -3.0897  -15.5383  -53.7890 H         1 UNK         0.3000 
    231 H231       -5.5723  -15.7495  -54.8759 H         1 UNK         0.0600 
    232 H232       -6.0150  -13.5775  -53.6979 H         1 UNK         0.0600 
    233 H233       -4.4309  -13.6243  -54.4536 H         1 UNK         0.0600 
    234 H234       -4.5825  -13.8308  -52.7085 H         1 UNK         0.0600 
    235 H235       -6.9820  -17.2903  -54.3649 H         1 UNK         0.3000 
    236 H236       -8.6287  -18.4027  -53.4393 H         1 UNK         0.0600 
    237 H237       -8.8064  -16.2199  -51.2999 H         1 UNK         0.0600 
    238 H238       -9.5532  -16.1349  -52.8951 H         1 UNK         0.0600 
    239 H239      -10.0679  -17.3581  -51.7474 H         1 UNK         0.0600 
    240 H240       -5.7868  -18.8528  -52.4951 H         1 UNK         0.3000 
    241 H241       -6.1039  -19.9418  -49.7987 H         1 UNK         0.0600 
    242 H242       -6.7624  -22.9871  -52.3272 H         1 UNK         0.3800 
    243 H243       -6.9084  -21.3247  -52.8347 H         1 UNK         0.3800 
    244 H244       -3.7083  -19.9351  -51.6804 H         1 UNK         0.0800 
    245 H245       -3.6893  -20.5420  -50.0478 H         1 UNK         0.0800 
    246 H246       -3.1591  -19.3053  -48.0841 H         1 UNK         0.0800 
    247 H247       -2.8613  -17.5955  -47.9792 H         1 UNK         0.0800 
@<TRIPOS>BOND
     1    1    2 1    
     2    1  127 1    
     3    1  128 1    
     4    1  129 1    
     5    2    3 2    
     6    2    4 am   BACKBONE|DICT|INTERRES
     7    4    5 1    
     8    4  130 1    
     9    5    6 1    
    10    5   65 1    
    11    5  131 1    
    12    6    7 1    
    13    6  132 1    
    14    6  133 1    
    15    7    8 1    
    16    8    9 1    
    17    8  134 1    
    18    8  135 1    
    19    9   10 ar   
    20    9   14 ar   
    21   10   11 ar   
    22   10  136 1    
    23   11   12 ar   
    24   11  126 1    
    25   12   13 ar   
    26   12  137 1    
    27   13   14 ar   
    28   13   15 1    
    29   14  138 1    
    30   15   16 1    
    31   15  139 1    
    32   15  140 1    
    33   16   17 1    
    34   17   18 1    
    35   17  141 1    
    36   17  142 1    
    37   18   19 1    
    38   18   67 1    
    39   18  143 1    
    40   19   20 am   BACKBONE|DICT|INTERRES
    41   19  144 1    
    42   20   21 2    
    43   20   22 1    
    44   22   23 1    
    45   22   24 1    
    46   22  145 1    
    47   23  146 1    
    48   23  147 1    
    49   23  148 1    
    50   24   25 am   BACKBONE|DICT|INTERRES
    51   24  149 1    
    52   25   26 2    
    53   25   27 1    
    54   27   28 1    
    55   27   29 1    
    56   27  150 1    
    57   28  151 1    
    58   28  152 1    
    59   28  153 1    
    60   29   30 am   BACKBONE|DICT|INTERRES
    61   29  154 1    
    62   30   31 2    
    63   30   32 1    
    64   32   33 1    
    65   32   34 1    
    66   32  155 1    
    67   33  156 1    
    68   33  157 1    
    69   33  158 1    
    70   34   35 am   BACKBONE|DICT|INTERRES
    71   34  159 1    
    72   35   36 2    
    73   35   37 1    
    74   37   38 1    
    75   37   39 1    
    76   37  160 1    
    77   38  161 1    
    78   38  162 1    
    79   38  163 1    
    80   39   40 am   BACKBONE|DICT|INTERRES
    81   39  164 1    
    82   40   41 2    
    83   40   42 1    
    84   42   43 1    
    85   42   44 1    
    86   42  165 1    
    87   43  166 1    
    88   43  167 1    
    89   43  168 1    
    90   44   45 am   BACKBONE|DICT|INTERRES
    91   44  169 1    
    92   45   46 2    
    93   45   47 1    
    94   47   48 1    
    95   47   49 1    
    96   47  170 1    
    97   48  171 1    
    98   48  172 1    
    99   48  173 1    
   100   49   50 am   BACKBONE|DICT|INTERRES
   101   49  174 1    
   102   50   51 2    
   103   50   52 1    
   104   52   53 1    
   105   52   54 1    
   106   52  175 1    
   107   53  176 1    
   108   53  177 1    
   109   53  178 1    
   110   54   55 am   BACKBONE|DICT|INTERRES
   111   54  179 1    
   112   55   56 2    
   113   55   57 1    
   114   57   58 1    
   115   57   59 1    
   116   57  180 1    
   117   58  181 1    
   118   58  182 1    
   119   58  183 1    
   120   59   60 am   BACKBONE|DICT|INTERRES
   121   59  184 1    
   122   60   61 2    
   123   60   62 1    
   124   62   63 1    
   125   62   64 1    
   126   62  185 1    
   127   63  186 1    
   128   63  187 1    
   129   63  188 1    
   130   64   65 am   BACKBONE|DICT|INTERRES
   131   64  189 1    
   132   65   66 2    
   133   67   68 2    
   134   67   69 am   BACKBONE|DICT|INTERRES
   135   69   70 1    
   136   69  190 1    
   137   70   71 1    
   138   70   72 1    
   139   70  191 1    
   140   71  192 1    
   141   71  193 1    
   142   71  194 1    
   143   72   73 2    
   144   72   74 am   BACKBONE|DICT|INTERRES
   145   74   75 1    
   146   74  195 1    
   147   75   76 1    
   148   75   77 1    
   149   75  196 1    
   150   76  197 1    
   151   76  198 1    
   152   76  199 1    
   153   77   78 2    
   154   77   79 am   BACKBONE|DICT|INTERRES
   155   79   80 1    
   156   79  200 1    
   157   80   81 1    
   158   80   82 1    
   159   80  201 1    
   160   81  202 1    
   161   81  203 1    
   162   81  204 1    
   163   82   83 2    
   164   82   84 am   BACKBONE|DICT|INTERRES
   165   84   85 1    
   166   84  205 1    
   167   85   86 1    
   168   85   87 1    
   169   85  206 1    
   170   86  207 1    
   171   86  208 1    
   172   86  209 1    
   173   87   88 2    
   174   87   89 am   BACKBONE|DICT|INTERRES
   175   89   90 1    
   176   89  210 1    
   177   90   91 1    
   178   90   92 1    
   179   90  211 1    
   180   91  212 1    
   181   91  213 1    
   182   91  214 1    
   183   92   93 2    
   184   92   94 am   BACKBONE|DICT|INTERRES
   185   94   95 1    
   186   94  215 1    
   187   95   96 1    
   188   95   97 1    
   189   95  216 1    
   190   96  217 1    
   191   96  218 1    
   192   96  219 1    
   193   97   98 2    
   194   97   99 am   BACKBONE|DICT|INTERRES
   195   99  100 1    
   196   99  220 1    
   197  100  101 1    
   198  100  102 1    
   199  100  221 1    
   200  101  222 1    
   201  101  223 1    
   202  101  224 1    
   203  102  103 2    
   204  102  104 am   BACKBONE|DICT|INTERRES
   205  104  105 1    
   206  104  225 1    
   207  105  106 1    
   208  105  107 1    
   209  105  226 1    
   210  106  227 1    
   211  106  228 1    
   212  106  229 1    
   213  107  108 2    
   214  107  109 am   BACKBONE|DICT|INTERRES
   215  109  110 1    
   216  109  230 1    
   217  110  111 1    
   218  110  112 1    
   219  110  231 1    
   220  111  232 1    
   221  111  233 1    
   222  111  234 1    
   223  112  113 2    
   224  112  114 am   BACKBONE|DICT|INTERRES
   225  114  115 1    
   226  114  235 1    
   227  115  116 1    
   228  115  117 1    
   229  115  236 1    
   230  116  237 1    
   231  116  238 1    
   232  116  239 1    
   233  117  118 2    
   234  117  119 am   BACKBONE|DICT|INTERRES
   235  119  120 1    
   236  119  240 1    
   237  120  121 1    
   238  120  124 1    
   239  120  241 1    
   240  121  122 am   BACKBONE|DICT|INTERRES
   241  121  123 2    
   242  122  242 1    
   243  122  243 1    
   244  124  125 1    
   245  124  244 1    
   246  124  245 1    
   247  125  126 1    
   248  126  246 1    
   249  126  247 1    
@<TRIPOS>SUBSTRUCTURE
     1 UNK         1 GROUP             0       ****    0 ROOT    
