@<TRIPOS>MOLECULE
3R540
247   249    1
SMALL
USER_CHARGES


@<TRIPOS>ATOM
      1 CA         -1.2761  -11.9942  -46.6116 C.3       0 UNK        -0.1800 
      2 C          -0.1333  -11.5814  -47.5254 C.2       0 UNK         0.5000 
      3 O           0.0576  -10.3885  -47.7648 O.2       0 UNK        -0.5000 
      4 N           0.6262  -12.5598  -48.0305 N.am      1 UNK        -0.5000 
      5 CA          1.7799  -12.3945  -48.9177 C.3       1 UNK         0.1400 
      6 C6          2.2659  -13.7533  -49.4840 C.3       23 UNK        -0.0398 
      7 S7          2.5693  -15.0596  -48.2335 S.3       23 UNK        -0.2404 
      8 C8          3.9280  -16.0061  -48.9939 C.3       23 UNK        -0.0205 
      9 C9          3.4072  -17.0937  -49.9235 C.ar      23 UNK        -0.0193 
     10 C10         2.7850  -16.7569  -51.1276 C.ar      23 UNK        -0.1150 
     11 C11         2.2525  -17.7459  -51.9577 C.ar      23 UNK        -0.0193 
     12 C12         2.3952  -19.0912  -51.6036 C.ar      23 UNK        -0.1150 
     13 C13         3.0633  -19.4467  -50.4272 C.ar      23 UNK        -0.0193 
     14 C14         3.5530  -18.4420  -49.5853 C.ar      23 UNK        -0.1150 
     15 C15         3.3085  -20.9125  -50.0924 C.3       23 UNK        -0.0205 
     16 S16         2.6310  -21.3912  -48.4727 S.3       23 UNK        -0.2404 
     17 C17         0.8518  -21.5443  -48.8379 C.3       23 UNK        -0.0398 
     18 CA          0.1937  -22.6108  -47.9329 C.3       11 UNK         0.1400 
     19 N           0.1610  -22.2090  -46.5248 N.am      11 UNK        -0.5000 
     20 C          -0.1511  -23.0276  -45.5116 C.2       10 UNK         0.5000 
     21 O          -0.4003  -24.2251  -45.6511 O.2       10 UNK        -0.5000 
     22 CA         -0.2606  -22.3895  -44.1162 C.3       10 UNK         0.1400 
     23 CB          1.1277  -22.2052  -43.4861 C.3       10 UNK        -0.1800 
     24 N          -0.9774  -21.1124  -44.1431 N.am      10 UNK        -0.5000 
     25 C          -2.2662  -20.9844  -44.4911 C.2       9 UNK         0.5000 
     26 O          -2.9898  -21.9377  -44.7746 O.2       9 UNK        -0.5000 
     27 CA         -2.8440  -19.5613  -44.5690 C.3       9 UNK         0.1400 
     28 CB         -3.2566  -19.0707  -43.1737 C.3       9 UNK        -0.1800 
     29 N          -1.9244  -18.6032  -45.1805 N.am      9 UNK        -0.5000 
     30 C          -1.5154  -18.6388  -46.4574 C.2       8 UNK         0.5000 
     31 O          -1.9001  -19.4692  -47.2819 O.2       8 UNK        -0.5000 
     32 CA         -0.4595  -17.5970  -46.8715 C.3       8 UNK         0.1400 
     33 CB         -1.1109  -16.2302  -47.1168 C.3       8 UNK        -0.1800 
     34 N           0.6137  -17.4579  -45.8872 N.am      8 UNK        -0.5000 
     35 C           1.4199  -18.4573  -45.5020 C.2       7 UNK         0.5000 
     36 O           1.3598  -19.6014  -45.9495 O.2       7 UNK        -0.5000 
     37 CA          2.4113  -18.1405  -44.3731 C.3       7 UNK         0.1400 
     38 CB          3.6172  -17.3493  -44.9034 C.3       7 UNK        -0.1800 
     39 N           1.7616  -17.4092  -43.2841 N.am      7 UNK        -0.5000 
     40 C           0.8567  -17.9494  -42.4536 C.2       6 UNK         0.5000 
     41 O           0.5052  -19.1274  -42.5004 O.2       6 UNK        -0.5000 
     42 CA          0.2072  -17.0124  -41.4185 C.3       6 UNK         0.1400 
     43 CB          1.0973  -16.8807  -40.1738 C.3       6 UNK        -0.1800 
     44 N          -0.0757  -15.6815  -41.9548 N.am      6 UNK        -0.5000 
     45 C          -0.9554  -15.4281  -42.9338 C.2       5 UNK         0.5000 
     46 O          -1.6564  -16.2881  -43.4640 O.2       5 UNK        -0.5000 
     47 CA         -1.0220  -13.9784  -43.4461 C.3       5 UNK         0.1400 
     48 CB         -2.0356  -13.1575  -42.6367 C.3       5 UNK        -0.1800 
     49 N           0.2747  -13.2966  -43.4345 N.am      5 UNK        -0.5000 
     50 C           1.3627  -13.7010  -44.1022 C.2       4 UNK         0.5000 
     51 O           1.3791  -14.7000  -44.8236 O.2       4 UNK        -0.5000 
     52 CA          2.6246  -12.8363  -43.9186 C.3       4 UNK         0.1400 
     53 CB          3.8960  -13.5222  -44.4483 C.3       4 UNK        -0.1800 
     54 N           2.4525  -11.5312  -44.5612 N.am      4 UNK        -0.5000 
     55 C           1.7997  -10.4957  -44.0092 C.2       3 UNK         0.5000 
     56 O           1.3138  -10.5488  -42.8775 O.2       3 UNK        -0.5000 
     57 CA          1.5901   -9.2127  -44.8430 C.3       3 UNK         0.1400 
     58 CB          1.9256   -7.9334  -44.0484 C.3       3 UNK        -0.1800 
     59 N           2.2342   -9.2248  -46.1596 N.am      3 UNK        -0.5000 
     60 C           3.5373   -9.1122  -46.4606 C.2       2 UNK         0.5000 
     61 O           4.4234   -8.9081  -45.6299 O.2       2 UNK        -0.5000 
     62 CA          3.8949   -9.3018  -47.9554 C.3       2 UNK         0.1400 
     63 CB          5.3897   -9.6096  -48.1844 C.3       2 UNK        -0.1800 
     64 N           3.0484  -10.3090  -48.6144 N.am      2 UNK        -0.5000 
     65 C           2.8988  -11.5855  -48.2283 C.2       1 UNK         0.5000 
     66 O           3.5426  -12.0896  -47.3104 O.2       1 UNK        -0.5000 
     67 C          -1.2050  -23.0069  -48.4454 C.2       11 UNK         0.5000 
     68 O          -1.3198  -24.0129  -49.1444 O.2       11 UNK        -0.5000 
     69 N          -2.2460  -22.2526  -48.0593 N.am      12 UNK        -0.5000 
     70 CA         -3.6447  -22.5683  -48.3604 C.3       12 UNK         0.1400 
     71 CB         -4.5555  -21.4176  -47.9118 C.3       12 UNK        -0.1800 
     72 C          -4.0988  -23.8945  -47.7294 C.2       12 UNK         0.5000 
     73 O          -4.7379  -24.6952  -48.4094 O.2       12 UNK        -0.5000 
     74 N          -3.7318  -24.1219  -46.4608 N.am      13 UNK        -0.5000 
     75 CA         -3.9969  -25.3593  -45.7272 C.3       13 UNK         0.1400 
     76 CB         -3.6048  -25.1856  -44.2524 C.3       13 UNK        -0.1800 
     77 C          -3.2889  -26.5765  -46.3478 C.2       13 UNK         0.5000 
     78 O          -3.9214  -27.6192  -46.5168 O.2       13 UNK        -0.5000 
     79 N          -2.0133  -26.4102  -46.7270 N.am      14 UNK        -0.5000 
     80 CA         -1.2127  -27.4195  -47.4268 C.3       14 UNK         0.1400 
     81 CB          0.2408  -26.9351  -47.5360 C.3       14 UNK        -0.1800 
     82 C          -1.7743  -27.7762  -48.8174 C.2       14 UNK         0.5000 
     83 O          -1.7393  -28.9432  -49.2084 O.2       14 UNK        -0.5000 
     84 N          -2.3179  -26.7726  -49.5174 N.am      15 UNK        -0.5000 
     85 CA         -3.0084  -26.9115  -50.7995 C.3       15 UNK         0.1400 
     86 CB         -2.9627  -25.5589  -51.5273 C.3       15 UNK        -0.1800 
     87 C          -4.4670  -27.3992  -50.6706 C.2       15 UNK         0.5000 
     88 O          -5.1309  -27.5536  -51.6956 O.2       15 UNK        -0.5000 
     89 N          -4.9645  -27.5902  -49.4382 N.am      16 UNK        -0.5000 
     90 CA         -6.3394  -27.9682  -49.0841 C.3       16 UNK         0.1400 
     91 CB         -6.6196  -29.4280  -49.4960 C.3       16 UNK        -0.1800 
     92 C          -7.3974  -26.9770  -49.6213 C.2       16 UNK         0.5000 
     93 O          -8.4910  -27.3867  -50.0138 O.2       16 UNK        -0.5000 
     94 N          -7.0252  -25.6889  -49.6539 N.am      17 UNK        -0.5000 
     95 CA         -7.7592  -24.5346  -50.1807 C.3       17 UNK         0.1400 
     96 CB         -9.0584  -24.2988  -49.3836 C.3       17 UNK        -0.1800 
     97 C          -8.0012  -24.5611  -51.7072 C.2       17 UNK         0.5000 
     98 O          -8.7505  -23.7208  -52.2078 O.2       17 UNK        -0.5000 
     99 N          -7.3597  -25.4880  -52.4348 N.am      18 UNK        -0.5000 
    100 CA        -7.4625  -25.6073  -53.8924 C.3       18 UNK         0.1400 
    101 CB        -7.1690  -27.0594  -54.3003 C.3       18 UNK        -0.1800 
    102 C         -6.5266  -24.6375  -54.6406 C.2       18 UNK         0.5000 
    103 O         -6.7006  -24.4394  -55.8439 O.2       18 UNK        -0.5000 
    104 N         -5.5548  -24.0564  -53.9293 N.am      19 UNK        -0.5000 
    105 CA        -4.5726  -23.1013  -54.4271 C.3       19 UNK         0.1400 
    106 CB        -3.4392  -23.8472  -55.1614 C.3       19 UNK        -0.1800 
    107 C         -4.0484  -22.2649  -53.2475 C.2       19 UNK         0.5000 
    108 O         -4.4816  -22.4671  -52.1090 O.2       19 UNK        -0.5000 
    109 N         -3.1209  -21.3478  -53.5515 N.am      20 UNK        -0.5000 
    110 CA        -2.4858  -20.3947  -52.6387 C.3       20 UNK         0.1400 
    111 CB        -1.6022  -21.1156  -51.5985 C.3       20 UNK        -0.1800 
    112 C         -3.5007  -19.3922  -52.0484 C.2       20 UNK         0.5000 
    113 O         -4.2965  -18.8445  -52.8142 O.2       20 UNK        -0.5000 
    114 N         -3.4223  -19.1260  -50.7331 N.am      21 UNK        -0.5000 
    115 CA        -4.1318  -18.0573  -50.0089 C.3       21 UNK         0.1400 
    116 CB        -5.6563  -18.3009  -49.9990 C.3       21 UNK        -0.1800 
    117 C         -3.7421  -16.6562  -50.5335 C.2       21 UNK         0.5000 
    118 O         -4.5906  -15.7731  -50.6703 O.2       21 UNK        -0.5000 
    119 N         -2.4536  -16.5201  -50.8640 N.am      22 UNK        -0.5000 
    120 CA        -1.8248  -15.3694  -51.5216 C.3       22 UNK         0.1400 
    121 C         -1.8640  -14.0592  -50.6855 C.2       22 UNK         0.5000 
    122 N         -1.8427  -12.9046  -51.3374 N.am      22 UNK        -0.7600 
    123 O         -1.8666  -14.0739  -49.4584 O.2       22 UNK        -0.5000 
    124 C124       -0.3697  -15.7176  -51.9211 C.3       23 UNK        -0.0398 
    125 S125       -0.2621  -17.1911  -52.9993 S.3       23 UNK        -0.2404 
    126 C126        1.5356  -17.3535  -53.2411 C.3       23 UNK        -0.0205 
    127 H127       -2.2014  -11.5126  -46.9270 H         1 UNK         0.0600 
    128 H128       -1.0643  -11.6939  -45.5858 H         1 UNK         0.0600 
    129 H129       -1.4347  -13.0724  -46.6354 H         1 UNK         0.0600 
    130 H130        0.4291  -13.5168  -47.7742 H         1 UNK         0.3000 
    131 H131        1.4330  -11.8090  -49.7718 H         1 UNK         0.0600 
    132 H132        1.5057  -14.1297  -50.1667 H         1 UNK         0.0800 
    133 H133        3.1599  -13.6044  -50.0913 H         1 UNK         0.0800 
    134 H134        4.6044  -15.3430  -49.5342 H         1 UNK         0.0800 
    135 H135        4.5192  -16.4491  -48.1911 H         1 UNK         0.0800 
    136 H136        2.6925  -15.7198  -51.4121 H         1 UNK         0.1150 
    137 H137        2.0030  -19.8591  -52.2556 H         1 UNK         0.1150 
    138 H138        4.0558  -18.7151  -48.6681 H         1 UNK         0.1150 
    139 H139        2.9088  -21.5688  -50.8668 H         1 UNK         0.0800 
    140 H140        4.3856  -21.0838  -50.0783 H         1 UNK         0.0800 
    141 H141        0.7397  -21.8158  -49.8887 H         1 UNK         0.0800 
    142 H142        0.3759  -20.5703  -48.7109 H         1 UNK         0.0800 
    143 H143        0.8046  -23.5144  -47.9923 H         1 UNK         0.0600 
    144 H144        0.4124  -21.2445  -46.3212 H         1 UNK         0.3000 
    145 H145       -0.8278  -23.0755  -43.4837 H         1 UNK         0.0600 
    146 H146        1.0492  -21.8450  -42.4604 H         1 UNK         0.0600 
    147 H147        1.6717  -23.1501  -43.4575 H         1 UNK         0.0600 
    148 H148        1.7350  -21.4936  -44.0454 H         1 UNK         0.0600 
    149 H149       -0.4496  -20.2883  -43.8755 H         1 UNK         0.3000 
    150 H150       -3.7406  -19.6019  -45.1906 H         1 UNK         0.0600 
    151 H151       -3.9474  -19.7700  -42.7011 H         1 UNK         0.0600 
    152 H152       -3.7595  -18.1052  -43.2289 H         1 UNK         0.0600 
    153 H153       -2.3947  -18.9623  -42.5144 H         1 UNK         0.0600 
    154 H154       -1.5966  -17.8503  -44.5815 H         1 UNK         0.3000 
    155 H155       -0.0075  -17.9333  -47.8071 H         1 UNK         0.0600 
    156 H156       -1.9115  -16.3067  -47.8529 H         1 UNK         0.0600 
    157 H157       -0.3863  -15.5121  -47.4991 H         1 UNK         0.0600 
    158 H158       -1.5426  -15.8172  -46.2055 H         1 UNK         0.0600 
    159 H159        0.7540  -16.5380  -45.4815 H         1 UNK         0.3000 
    160 H160        2.7806  -19.0876  -43.9739 H         1 UNK         0.0600 
    161 H161        3.3181  -16.4046  -45.3570 H         1 UNK         0.0600 
    162 H162        4.1463  -17.9196  -45.6678 H         1 UNK         0.0600 
    163 H163        4.3293  -17.1311  -44.1078 H         1 UNK         0.0600 
    164 H164        1.9400  -16.4169  -43.2351 H         1 UNK         0.3000 
    165 H165       -0.7408  -17.4610  -41.1140 H         1 UNK         0.0600 
    166 H166        0.6101  -16.2847  -39.4019 H         1 UNK         0.0600 
    167 H167        1.3095  -17.8594  -39.7414 H         1 UNK         0.0600 
    168 H168        2.0533  -16.4110  -40.4083 H         1 UNK         0.0600 
    169 H169        0.4581  -14.9125  -41.5779 H         1 UNK         0.3000 
    170 H170       -1.3664  -14.0211  -44.4796 H         1 UNK         0.0600 
    171 H171       -3.0176  -13.6325  -42.6441 H         1 UNK         0.0600 
    172 H172       -1.7286  -13.0519  -41.5955 H         1 UNK         0.0600 
    173 H173       -2.1560  -12.1578  -43.0545 H         1 UNK         0.0600 
    174 H174        0.3419  -12.4401  -42.8961 H         1 UNK         0.3000 
    175 H175        2.7693  -12.6873  -42.8465 H         1 UNK         0.0600 
    176 H176        3.7924  -13.8363  -45.4866 H         1 UNK         0.0600 
    177 H177        4.7607  -12.8619  -44.3821 H         1 UNK         0.0600 
    178 H178        4.1224  -14.4149  -43.8648 H         1 UNK         0.0600 
    179 H179        2.8087  -11.4565  -45.5084 H         1 UNK         0.3000 
    180 H180        0.5204   -9.1822  -45.0550 H         1 UNK         0.0600 
    181 H181        2.9580   -7.9283  -43.6989 H         1 UNK         0.0600 
    182 H182        1.2882   -7.8440  -43.1680 H         1 UNK         0.0600 
    183 H183        1.7685   -7.0396  -44.6521 H         1 UNK         0.0600 
    184 H184        1.5993   -9.4408  -46.9234 H         1 UNK         0.3000 
    185 H185        3.6766   -8.3498  -48.4411 H         1 UNK         0.0600 
    186 H186        6.0169   -8.7974  -47.8152 H         1 UNK         0.0600 
    187 H187        5.7004  -10.5203  -47.6716 H         1 UNK         0.0600 
    188 H188        5.6091   -9.7306  -49.2451 H         1 UNK         0.0600 
    189 H189        2.4447   -9.9558  -49.3444 H         1 UNK         0.3000 
    190 H190       -2.0748  -21.4106  -47.5177 H         1 UNK         0.3000 
    191 H191       -3.7396  -22.6700  -49.4427 H         1 UNK         0.0600 
    192 H192       -4.5640  -21.3029  -46.8285 H         1 UNK         0.0600 
    193 H193       -5.5838  -21.5898  -48.2315 H         1 UNK         0.0600 
    194 H194       -4.2339  -20.4716  -48.3413 H         1 UNK         0.0600 
    195 H195       -3.2567  -23.3825  -45.9488 H         1 UNK         0.3000 
    196 H196       -5.0721  -25.5447  -45.7707 H         1 UNK         0.0600 
    197 H197       -3.8143  -26.0918  -43.6830 H         1 UNK         0.0600 
    198 H198       -4.1658  -24.3734  -43.7897 H         1 UNK         0.0600 
    199 H199       -2.5436  -24.9639  -44.1393 H         1 UNK         0.0600 
    200 H200       -1.5493  -25.5319  -46.5103 H         1 UNK         0.3000 
    201 H201       -1.2237  -28.3289  -46.8226 H         1 UNK         0.0600 
    202 H202        0.6693  -26.7486  -46.5511 H         1 UNK         0.0600 
    203 H203        0.3150  -26.0129  -48.1127 H         1 UNK         0.0600 
    204 H204        0.8660  -27.6816  -48.0274 H         1 UNK         0.0600 
    205 H205       -2.2451  -25.8291  -49.1496 H         1 UNK         0.3000 
    206 H206       -2.4759  -27.6435  -51.4099 H         1 UNK         0.0600 
    207 H207       -1.9364  -25.2289  -51.6889 H         1 UNK         0.0600 
    208 H208       -3.4406  -25.6241  -52.5044 H         1 UNK         0.0600 
    209 H209       -3.4772  -24.7824  -50.9605 H         1 UNK         0.0600 
    210 H210       -4.3544  -27.4090  -48.6507 H         1 UNK         0.3000 
    211 H211       -6.3990  -27.9136  -47.9963 H         1 UNK         0.0600 
    212 H212       -6.6315  -29.5477  -50.5798 H         1 UNK         0.0600 
    213 H213       -7.5866  -29.7629  -49.1190 H         1 UNK         0.0600 
    214 H214       -5.8643  -30.1022  -49.0922 H         1 UNK         0.0600 
    215 H215       -6.1051  -25.4611  -49.2767 H         1 UNK         0.3000 
    216 H216       -7.1098  -23.6757  -50.0042 H         1 UNK         0.0600 
    217 H217       -9.5214  -23.3508  -49.6597 H         1 UNK         0.0600 
    218 H218       -8.8617  -24.2609  -48.3122 H         1 UNK         0.0600 
    219 H219       -9.7932  -25.0838  -49.5636 H         1 UNK         0.0600 
    220 H220       -6.7527  -26.1538  -51.9698 H         1 UNK         0.3000 
    221 H221       -8.4862  -25.3768  -54.1951 H         1 UNK         0.0600 
    222 H222       -6.1285  -27.3278  -54.1166 H         1 UNK         0.0600 
    223 H223       -7.7996  -27.7608  -53.7534 H         1 UNK         0.0600 
    224 H224       -7.3599  -27.2103  -55.3634 H         1 UNK         0.0600 
    225 H225       -5.5178  -24.2052  -52.9291 H         1 UNK         0.3000 
    226 H226       -5.0656  -22.4171  -55.1208 H         1 UNK         0.0600 
    227 H227       -3.8293  -24.4760  -55.9617 H         1 UNK         0.0600 
    228 H228       -2.7371  -23.1511  -55.6207 H         1 UNK         0.0600 
    229 H229       -2.8708  -24.4851  -54.4847 H         1 UNK         0.0600 
    230 H230       -2.8621  -21.2416  -54.5219 H         1 UNK         0.3000 
    231 H231       -1.8177  -19.7972  -53.2598 H         1 UNK         0.0600 
    232 H232       -0.8859  -21.7758  -52.0873 H         1 UNK         0.0600 
    233 H233       -2.1944  -21.7235  -50.9176 H         1 UNK         0.0600 
    234 H234       -1.0258  -20.4039  -51.0067 H         1 UNK         0.0600 
    235 H235       -2.7525  -19.6472  -50.1853 H         1 UNK         0.3000 
    236 H236       -3.7850  -18.1019  -48.9755 H         1 UNK         0.0600 
    237 H237       -6.1553  -17.6052  -49.3237 H         1 UNK         0.0600 
    238 H238       -6.0969  -18.1660  -50.9870 H         1 UNK         0.0600 
    239 H239       -5.8976  -19.3088  -49.6632 H         1 UNK         0.0600 
    240 H240       -1.8464  -17.3118  -50.7222 H         1 UNK         0.3000 
    241 H241       -2.3936  -15.1855  -52.4350 H         1 UNK         0.0600 
    242 H242       -1.8593  -12.0486  -50.8063 H         1 UNK         0.3800 
    243 H243       -1.8401  -12.8607  -52.3447 H         1 UNK         0.3800 
    244 H244        0.1035  -14.8802  -52.4370 H         1 UNK         0.0800 
    245 H245        0.2133  -15.9051  -51.0193 H         1 UNK         0.0800 
    246 H246        1.9368  -16.4176  -53.6332 H         1 UNK         0.0800 
    247 H247        1.7200  -18.1067  -54.0085 H         1 UNK         0.0800 
@<TRIPOS>BOND
     1    1    2 1    
     2    1  127 1    
     3    1  128 1    
     4    1  129 1    
     5    2    3 2    
     6    2    4 am   BACKBONE|DICT|INTERRES
     7    4    5 1    
     8    4  130 1    
     9    5    6 1    
    10    5   65 1    
    11    5  131 1    
    12    6    7 1    
    13    6  132 1    
    14    6  133 1    
    15    7    8 1    
    16    8    9 1    
    17    8  134 1    
    18    8  135 1    
    19    9   10 ar   
    20    9   14 ar   
    21   10   11 ar   
    22   10  136 1    
    23   11   12 ar   
    24   11  126 1    
    25   12   13 ar   
    26   12  137 1    
    27   13   14 ar   
    28   13   15 1    
    29   14  138 1    
    30   15   16 1    
    31   15  139 1    
    32   15  140 1    
    33   16   17 1    
    34   17   18 1    
    35   17  141 1    
    36   17  142 1    
    37   18   19 1    
    38   18   67 1    
    39   18  143 1    
    40   19   20 am   BACKBONE|DICT|INTERRES
    41   19  144 1    
    42   20   21 2    
    43   20   22 1    
    44   22   23 1    
    45   22   24 1    
    46   22  145 1    
    47   23  146 1    
    48   23  147 1    
    49   23  148 1    
    50   24   25 am   BACKBONE|DICT|INTERRES
    51   24  149 1    
    52   25   26 2    
    53   25   27 1    
    54   27   28 1    
    55   27   29 1    
    56   27  150 1    
    57   28  151 1    
    58   28  152 1    
    59   28  153 1    
    60   29   30 am   BACKBONE|DICT|INTERRES
    61   29  154 1    
    62   30   31 2    
    63   30   32 1    
    64   32   33 1    
    65   32   34 1    
    66   32  155 1    
    67   33  156 1    
    68   33  157 1    
    69   33  158 1    
    70   34   35 am   BACKBONE|DICT|INTERRES
    71   34  159 1    
    72   35   36 2    
    73   35   37 1    
    74   37   38 1    
    75   37   39 1    
    76   37  160 1    
    77   38  161 1    
    78   38  162 1    
    79   38  163 1    
    80   39   40 am   BACKBONE|DICT|INTERRES
    81   39  164 1    
    82   40   41 2    
    83   40   42 1    
    84   42   43 1    
    85   42   44 1    
    86   42  165 1    
    87   43  166 1    
    88   43  167 1    
    89   43  168 1    
    90   44   45 am   BACKBONE|DICT|INTERRES
    91   44  169 1    
    92   45   46 2    
    93   45   47 1    
    94   47   48 1    
    95   47   49 1    
    96   47  170 1    
    97   48  171 1    
    98   48  172 1    
    99   48  173 1    
   100   49   50 am   BACKBONE|DICT|INTERRES
   101   49  174 1    
   102   50   51 2    
   103   50   52 1    
   104   52   53 1    
   105   52   54 1    
   106   52  175 1    
   107   53  176 1    
   108   53  177 1    
   109   53  178 1    
   110   54   55 am   BACKBONE|DICT|INTERRES
   111   54  179 1    
   112   55   56 2    
   113   55   57 1    
   114   57   58 1    
   115   57   59 1    
   116   57  180 1    
   117   58  181 1    
   118   58  182 1    
   119   58  183 1    
   120   59   60 am   BACKBONE|DICT|INTERRES
   121   59  184 1    
   122   60   61 2    
   123   60   62 1    
   124   62   63 1    
   125   62   64 1    
   126   62  185 1    
   127   63  186 1    
   128   63  187 1    
   129   63  188 1    
   130   64   65 am   BACKBONE|DICT|INTERRES
   131   64  189 1    
   132   65   66 2    
   133   67   68 2    
   134   67   69 am   BACKBONE|DICT|INTERRES
   135   69   70 1    
   136   69  190 1    
   137   70   71 1    
   138   70   72 1    
   139   70  191 1    
   140   71  192 1    
   141   71  193 1    
   142   71  194 1    
   143   72   73 2    
   144   72   74 am   BACKBONE|DICT|INTERRES
   145   74   75 1    
   146   74  195 1    
   147   75   76 1    
   148   75   77 1    
   149   75  196 1    
   150   76  197 1    
   151   76  198 1    
   152   76  199 1    
   153   77   78 2    
   154   77   79 am   BACKBONE|DICT|INTERRES
   155   79   80 1    
   156   79  200 1    
   157   80   81 1    
   158   80   82 1    
   159   80  201 1    
   160   81  202 1    
   161   81  203 1    
   162   81  204 1    
   163   82   83 2    
   164   82   84 am   BACKBONE|DICT|INTERRES
   165   84   85 1    
   166   84  205 1    
   167   85   86 1    
   168   85   87 1    
   169   85  206 1    
   170   86  207 1    
   171   86  208 1    
   172   86  209 1    
   173   87   88 2    
   174   87   89 am   BACKBONE|DICT|INTERRES
   175   89   90 1    
   176   89  210 1    
   177   90   91 1    
   178   90   92 1    
   179   90  211 1    
   180   91  212 1    
   181   91  213 1    
   182   91  214 1    
   183   92   93 2    
   184   92   94 am   BACKBONE|DICT|INTERRES
   185   94   95 1    
   186   94  215 1    
   187   95   96 1    
   188   95   97 1    
   189   95  216 1    
   190   96  217 1    
   191   96  218 1    
   192   96  219 1    
   193   97   98 2    
   194   97   99 am   BACKBONE|DICT|INTERRES
   195   99  100 1    
   196   99  220 1    
   197  100  101 1    
   198  100  102 1    
   199  100  221 1    
   200  101  222 1    
   201  101  223 1    
   202  101  224 1    
   203  102  103 2    
   204  102  104 am   BACKBONE|DICT|INTERRES
   205  104  105 1    
   206  104  225 1    
   207  105  106 1    
   208  105  107 1    
   209  105  226 1    
   210  106  227 1    
   211  106  228 1    
   212  106  229 1    
   213  107  108 2    
   214  107  109 am   BACKBONE|DICT|INTERRES
   215  109  110 1    
   216  109  230 1    
   217  110  111 1    
   218  110  112 1    
   219  110  231 1    
   220  111  232 1    
   221  111  233 1    
   222  111  234 1    
   223  112  113 2    
   224  112  114 am   BACKBONE|DICT|INTERRES
   225  114  115 1    
   226  114  235 1    
   227  115  116 1    
   228  115  117 1    
   229  115  236 1    
   230  116  237 1    
   231  116  238 1    
   232  116  239 1    
   233  117  118 2    
   234  117  119 am   BACKBONE|DICT|INTERRES
   235  119  120 1    
   236  119  240 1    
   237  120  121 1    
   238  120  124 1    
   239  120  241 1    
   240  121  122 am   BACKBONE|DICT|INTERRES
   241  121  123 2    
   242  122  242 1    
   243  122  243 1    
   244  124  125 1    
   245  124  244 1    
   246  124  245 1    
   247  125  126 1    
   248  126  246 1    
   249  126  247 1    
@<TRIPOS>SUBSTRUCTURE
     1 UNK         1 GROUP             0       ****    0 ROOT    
