@<TRIPOS>MOLECULE
3R540
247   249    1
SMALL
USER_CHARGES


@<TRIPOS>ATOM
      1 CA          2.6731  -14.9563  -49.0494 C.3       0 UNK        -0.1800 
      2 C           1.3655  -14.8260  -48.2823 C.2       0 UNK         0.5000 
      3 O           1.3825  -14.6029  -47.0727 O.2       0 UNK        -0.5000 
      4 N           0.2302  -14.9475  -48.9801 N.am      1 UNK        -0.5000 
      5 CA         -1.1347  -14.9266  -48.4319 C.3       1 UNK         0.1400 
      6 C6         -2.1334  -15.6838  -49.3498 C.3       23 UNK        -0.0398 
      7 S7         -1.6500  -17.4196  -49.6301 S.3       23 UNK        -0.2404 
      8 C8         -0.9077  -17.3269  -51.2888 C.3       23 UNK        -0.0205 
      9 C9          0.1676  -18.3856  -51.4696 C.ar      23 UNK        -0.0193 
     10 C10         0.0213  -19.3974  -52.4223 C.ar      23 UNK        -0.1150 
     11 C11         1.0213  -20.3605  -52.5919 C.ar      23 UNK        -0.0193 
     12 C12         2.1737  -20.3046  -51.8027 C.ar      23 UNK        -0.1150 
     13 C13         2.3296  -19.2974  -50.8465 C.ar      23 UNK        -0.0193 
     14 C14         1.3263  -18.3389  -50.6896 C.ar      23 UNK        -0.1150 
     15 C15         3.5887  -19.2324  -49.9963 C.3       23 UNK        -0.0205 
     16 S16         3.6448  -20.5487  -48.7408 S.3       23 UNK        -0.2404 
     17 C17         2.3104  -20.0636  -47.5937 C.3       23 UNK        -0.0398 
     18 CA          1.4143  -21.2741  -47.2060 C.3       11 UNK         0.1400 
     19 N           1.3736  -21.5014  -45.7573 N.am      11 UNK        -0.5000 
     20 C           0.8521  -22.5898  -45.1726 C.2       10 UNK         0.5000 
     21 O           0.3892  -23.5452  -45.7957 O.2       10 UNK        -0.5000 
     22 CA          0.7926  -22.5945  -43.6342 C.3       10 UNK         0.1400 
     23 CB          2.1427  -23.0140  -43.0347 C.3       10 UNK        -0.1800 
     24 N           0.3814  -21.3021  -43.0838 N.am      10 UNK        -0.5000 
     25 C          -0.8210  -20.7439  -43.2867 C.2       9 UNK         0.5000 
     26 O          -1.7291  -21.2927  -43.9087 O.2       9 UNK        -0.5000 
     27 CA         -1.0324  -19.3153  -42.7549 C.3       9 UNK         0.1400 
     28 CB         -1.3700  -19.3304  -41.2570 C.3       9 UNK        -0.1800 
     29 N           0.1222  -18.4501  -42.9887 N.am      9 UNK        -0.5000 
     30 C           0.6077  -18.1236  -44.1946 C.2       8 UNK         0.5000 
     31 O           0.1115  -18.4906  -45.2594 O.2       8 UNK        -0.5000 
     32 CA          1.9068  -17.3022  -44.2072 C.3       8 UNK         0.1400 
     33 CB          1.6272  -15.8174  -43.9349 C.3       8 UNK        -0.1800 
     34 N           2.8800  -17.8046  -43.2366 N.am      8 UNK        -0.5000 
     35 C           3.4923  -18.9942  -43.3185 C.2       7 UNK         0.5000 
     36 O           3.3264  -19.7874  -44.2441 O.2       7 UNK        -0.5000 
     37 CA          4.4118  -19.3776  -42.1452 C.3       7 UNK         0.1400 
     38 CB          5.7889  -18.7136  -42.2934 C.3       7 UNK        -0.1800 
     39 N           3.8371  -19.0232  -40.8467 N.am      7 UNK        -0.5000 
     40 C           2.7424  -19.5944  -40.3248 C.2       6 UNK         0.5000 
     41 O           2.1219  -20.5069  -40.8688 O.2       6 UNK        -0.5000 
     42 CA          2.2265  -19.0143  -38.9945 C.3       6 UNK         0.1400 
     43 CB          2.9491  -19.6642  -37.8052 C.3       6 UNK        -0.1800 
     44 N           2.3504  -17.5558  -38.9030 N.am      6 UNK        -0.5000 
     45 C           1.7613  -16.6896  -39.7379 C.2       5 UNK         0.5000 
     46 O           1.0929  -17.0321  -40.7149 O.2       5 UNK        -0.5000 
     47 CA          2.0098  -15.1945  -39.4657 C.3       5 UNK         0.1400 
     48 CB          3.3164  -14.7472  -40.1405 C.3       5 UNK        -0.1800 
     49 N           0.9227  -14.3439  -39.9523 N.am      5 UNK        -0.5000 
     50 C          -0.3481  -14.3743  -39.5254 C.2       4 UNK         0.5000 
     51 O          -0.7412  -15.1051  -38.6144 O.2       4 UNK        -0.5000 
     52 CA         -1.3456  -13.4092  -40.2012 C.3       4 UNK         0.1400 
     53 CB         -2.0185  -12.5005  -39.1579 C.3       4 UNK        -0.1800 
     54 N          -0.7201  -12.5577  -41.2184 N.am      4 UNK        -0.5000 
     55 C          -0.6551  -12.8391  -42.5245 C.2       3 UNK         0.5000 
     56 O          -1.1127  -13.8631  -43.0373 O.2       3 UNK        -0.5000 
     57 CA          0.0601  -11.7992  -43.3971 C.3       3 UNK         0.1400 
     58 CB          1.5891  -11.9544  -43.3136 C.3       3 UNK        -0.1800 
     59 N          -0.3783  -11.9481  -44.7807 N.am      3 UNK        -0.5000 
     60 C          -0.4356  -10.9598  -45.6809 C.2       2 UNK         0.5000 
     61 O          -0.0792   -9.8053  -45.4382 O.2       2 UNK        -0.5000 
     62 CA         -0.9807  -11.3128  -47.0777 C.3       2 UNK         0.1400 
     63 CB         -0.3597  -10.4508  -48.1944 C.3       2 UNK        -0.1800 
     64 N          -0.7843  -12.7281  -47.3905 N.am      2 UNK        -0.5000 
     65 C          -1.6027  -13.4814  -48.1326 C.2       1 UNK         0.5000 
     66 O          -2.6669  -13.0653  -48.5948 O.2       1 UNK        -0.5000 
     67 C          -0.0044  -21.1684  -47.8045 C.2       11 UNK         0.5000 
     68 O          -0.2835  -21.8038  -48.8204 O.2       11 UNK        -0.5000 
     69 N          -0.8921  -20.4259  -47.1267 N.am      12 UNK        -0.5000 
     70 CA         -2.3075  -20.3080  -47.4737 C.3       12 UNK         0.1400 
     71 CB         -2.9762  -19.2345  -46.6029 C.3       12 UNK        -0.1800 
     72 C          -3.0595  -21.6448  -47.3741 C.2       12 UNK         0.5000 
     73 O          -3.8314  -21.9635  -48.2775 O.2       12 UNK        -0.5000 
     74 N          -2.8042  -22.4191  -46.3105 N.am      13 UNK        -0.5000 
     75 CA         -3.3613  -23.7573  -46.1030 C.3       13 UNK         0.1400 
     76 CB         -2.9949  -24.2661  -44.7014 C.3       13 UNK        -0.1800 
     77 C          -2.9192  -24.7580  -47.1859 C.2       13 UNK         0.5000 
     78 O          -3.7593  -25.4919  -47.7080 O.2       13 UNK        -0.5000 
     79 N          -1.6285  -24.7276  -47.5503 N.am      14 UNK        -0.5000 
     80 CA         -1.0540  -25.5022  -48.6555 C.3       14 UNK         0.1400 
     81 CB          0.4734  -25.3389  -48.6556 C.3       14 UNK        -0.1800 
     82 C          -1.6444  -25.1208  -50.0283 C.2       14 UNK         0.5000 
     83 O          -1.7869  -25.9849  -50.8933 O.2       14 UNK        -0.5000 
     84 N          -2.0276  -23.8473  -50.1785 N.am      15 UNK        -0.5000 
     85 CA         -2.7334  -23.2862  -51.3293 C.3       15 UNK         0.1400 
     86 CB         -2.3544  -21.8023  -51.4510 C.3       15 UNK        -0.1800 
     87 C          -4.2657  -23.4732  -51.2587 C.2       15 UNK         0.5000 
     88 O          -4.9819  -22.7794  -51.9801 O.2       15 UNK        -0.5000 
     89 N          -4.7490  -24.3827  -50.3974 N.am      16 UNK        -0.5000 
     90 CA         -6.1515  -24.7661  -50.1990 C.3       16 UNK         0.1400 
     91 CB         -6.7094  -25.4642  -51.4572 C.3       16 UNK        -0.1800 
     92 C          -7.0299  -23.5955  -49.7121 C.2       16 UNK         0.5000 
     93 O          -8.1158  -23.3676  -50.2468 O.2       16 UNK        -0.5000 
     94 N          -6.5206  -22.8759  -48.7030 N.am      17 UNK        -0.5000 
     95 CA         -7.0612  -21.6440  -48.1200 C.3       17 UNK         0.1400 
     96 CB         -8.4716  -21.8539  -47.5286 C.3       17 UNK        -0.1800 
     97 C          -6.9656  -20.4643  -49.1077 C.2       17 UNK         0.5000 
     98 O          -7.9275  -19.7126  -49.2756 O.2       17 UNK        -0.5000 
     99 N          -5.7838  -20.3362  -49.7312 N.am      18 UNK        -0.5000 
    100 CA        -5.3900  -19.3109  -50.7029 C.3       18 UNK         0.1400 
    101 CB        -5.2681  -17.9384  -50.0094 C.3       18 UNK        -0.1800 
    102 C         -6.3056  -19.2799  -51.9450 C.2       18 UNK         0.5000 
    103 O         -6.7891  -18.2151  -52.3380 O.2       18 UNK        -0.5000 
    104 N         -6.5371  -20.4548  -52.5447 N.am      19 UNK        -0.5000 
    105 CA        -7.3976  -20.6624  -53.7105 C.3       19 UNK         0.1400 
    106 CB        -7.8464  -22.1344  -53.7384 C.3       19 UNK        -0.1800 
    107 C         -6.7150  -20.2227  -55.0239 C.2       19 UNK         0.5000 
    108 O         -6.5001  -21.0442  -55.9167 O.2       19 UNK        -0.5000 
    109 N         -6.3947  -18.9248  -55.1099 N.am      20 UNK        -0.5000 
    110 CA        -5.7083  -18.2421  -56.2088 C.3       20 UNK         0.1400 
    111 CB        -6.5791  -18.2396  -57.4870 C.3       20 UNK        -0.1800 
    112 C         -4.2705  -18.7717  -56.4064 C.2       20 UNK         0.5000 
    113 O         -3.5117  -18.8172  -55.4354 O.2       20 UNK        -0.5000 
    114 N         -3.9066  -19.1151  -57.6492 N.am      21 UNK        -0.5000 
    115 CA        -2.5906  -19.6216  -58.0408 C.3       21 UNK         0.1400 
    116 CB        -2.5194  -19.6662  -59.5756 C.3       21 UNK        -0.1800 
    117 C         -2.2756  -21.0083  -57.4460 C.2       21 UNK         0.5000 
    118 O         -3.1882  -21.7836  -57.1526 O.2       21 UNK        -0.5000 
    119 N         -0.9774  -21.3004  -57.3114 N.am      22 UNK        -0.5000 
    120 CA        -0.4478  -22.5376  -56.7108 C.3       22 UNK         0.1400 
    121 C         -0.6239  -23.8251  -57.5709 C.2       22 UNK         0.5000 
    122 N         -1.0112  -23.7364  -58.8374 N.am      22 UNK        -0.7600 
    123 O         -0.4056  -24.9276  -57.0765 O.2       22 UNK        -0.5000 
    124 C124        1.0328  -22.3821  -56.2707 C.3       23 UNK        -0.0398 
    125 S125        1.3550  -20.8876  -55.2730 S.3       23 UNK        -0.2404 
    126 C126        0.8541  -21.4626  -53.6246 C.3       23 UNK        -0.0205 
    127 H127        2.5053  -15.1538  -50.1085 H         1 UNK         0.0600 
    128 H128        3.2657  -15.7746  -48.6404 H         1 UNK         0.0600 
    129 H129        3.2522  -14.0372  -48.9614 H         1 UNK         0.0600 
    130 H130        0.2864  -15.0801  -49.9781 H         1 UNK         0.3000 
    131 H131       -1.1201  -15.4489  -47.4725 H         1 UNK         0.0600 
    132 H132       -2.2497  -15.1752  -50.3084 H         1 UNK         0.0800 
    133 H133       -3.1253  -15.6979  -48.8946 H         1 UNK         0.0800 
    134 H134       -1.6957  -17.4344  -52.0359 H         1 UNK         0.0800 
    135 H135       -0.4577  -16.3477  -51.4522 H         1 UNK         0.0800 
    136 H136       -0.8690  -19.4379  -53.0345 H         1 UNK         0.1150 
    137 H137        2.9502  -21.0459  -51.9293 H         1 UNK         0.1150 
    138 H138        1.4397  -17.5574  -49.9526 H         1 UNK         0.1150 
    139 H139        4.4605  -19.3290  -50.6448 H         1 UNK         0.0800 
    140 H140        3.6808  -18.2619  -49.5063 H         1 UNK         0.0800 
    141 H141        1.7306  -19.2418  -48.0170 H         1 UNK         0.0800 
    142 H142        2.7931  -19.6334  -46.7179 H         1 UNK         0.0800 
    143 H143        1.8480  -22.1831  -47.6290 H         1 UNK         0.0600 
    144 H144        1.7741  -20.7777  -45.1702 H         1 UNK         0.3000 
    145 H145        0.0480  -23.3347  -43.3347 H         1 UNK         0.0600 
    146 H146        2.0794  -23.1074  -41.9505 H         1 UNK         0.0600 
    147 H147        2.4601  -23.9812  -43.4262 H         1 UNK         0.0600 
    148 H148        2.9281  -22.2934  -43.2625 H         1 UNK         0.0600 
    149 H149        1.0595  -20.8166  -42.5044 H         1 UNK         0.3000 
    150 H150       -1.8804  -18.8834  -43.2899 H         1 UNK         0.0600 
    151 H151       -2.2577  -19.9336  -41.0633 H         1 UNK         0.0600 
    152 H152       -1.5714  -18.3243  -40.8880 H         1 UNK         0.0600 
    153 H153       -0.5547  -19.7457  -40.6649 H         1 UNK         0.0600 
    154 H154        0.5722  -18.0590  -42.1637 H         1 UNK         0.3000 
    155 H155        2.3427  -17.3865  -45.2051 H         1 UNK         0.0600 
    156 H156        0.8683  -15.4319  -44.6163 H         1 UNK         0.0600 
    157 H157        1.2632  -15.6453  -42.9226 H         1 UNK         0.0600 
    158 H158        2.5270  -15.2195  -44.0772 H         1 UNK         0.0600 
    159 H159        3.0252  -17.2434  -42.4114 H         1 UNK         0.3000 
    160 H160        4.5509  -20.4605  -42.1714 H         1 UNK         0.0600 
    161 H161        5.7214  -17.6259  -42.2459 H         1 UNK         0.0600 
    162 H162        6.2454  -18.9729  -43.2496 H         1 UNK         0.0600 
    163 H163        6.4711  -19.0423  -41.5093 H         1 UNK         0.0600 
    164 H164        4.2855  -18.2798  -40.3322 H         1 UNK         0.3000 
    165 H165        1.1650  -19.2592  -38.9208 H         1 UNK         0.0600 
    166 H166        2.5250  -19.3333  -36.8570 H         1 UNK         0.0600 
    167 H167        2.8566  -20.7507  -37.8389 H         1 UNK         0.0600 
    168 H168        4.0132  -19.4253  -37.7996 H         1 UNK         0.0600 
    169 H169        2.8972  -17.1995  -38.1324 H         1 UNK         0.3000 
    170 H170        2.0969  -15.0462  -38.3875 H         1 UNK         0.0600 
    171 H171        3.2681  -14.8566  -41.2249 H         1 UNK         0.0600 
    172 H172        3.5367  -13.7025  -39.9196 H         1 UNK         0.0600 
    173 H173        4.1643  -15.3360  -39.7883 H         1 UNK         0.0600 
    174 H174        1.1437  -13.7268  -40.7174 H         1 UNK         0.3000 
    175 H175       -2.1216  -14.0231  -40.6633 H         1 UNK         0.0600 
    176 H176       -2.7494  -11.8395  -39.6242 H         1 UNK         0.0600 
    177 H177       -1.2900  -11.8801  -38.6345 H         1 UNK         0.0600 
    178 H178       -2.5495  -13.0876  -38.4075 H         1 UNK         0.0600 
    179 H179       -0.3131  -11.6959  -40.8825 H         1 UNK         0.3000 
    180 H180       -0.2225  -10.8092  -43.0321 H         1 UNK         0.0600 
    181 H181        2.0947  -11.1783  -43.8883 H         1 UNK         0.0600 
    182 H182        1.9154  -12.9188  -43.7015 H         1 UNK         0.0600 
    183 H183        1.9416  -11.8744  -42.2847 H         1 UNK         0.0600 
    184 H184       -0.7446  -12.8636  -45.0094 H         1 UNK         0.3000 
    185 H185       -2.0507  -11.0993  -47.0374 H         1 UNK         0.0600 
    186 H186       -0.5348   -9.3886  -48.0192 H         1 UNK         0.0600 
    187 H187        0.7181  -10.6024  -48.2615 H         1 UNK         0.0600 
    188 H188       -0.7926  -10.6902  -49.1658 H         1 UNK         0.0600 
    189 H189        0.0803  -13.1523  -47.0631 H         1 UNK         0.3000 
    190 H190       -0.5730  -19.8910  -46.3226 H         1 UNK         0.3000 
    191 H191       -2.3654  -19.9853  -48.5138 H         1 UNK         0.0600 
    192 H192       -2.4853  -18.2686  -46.7229 H         1 UNK         0.0600 
    193 H193       -4.0231  -19.1050  -46.8798 H         1 UNK         0.0600 
    194 H194       -2.9451  -19.4945  -45.5450 H         1 UNK         0.0600 
    195 H195       -2.2049  -22.0566  -45.5731 H         1 UNK         0.3000 
    196 H196       -4.4486  -23.6728  -46.1557 H         1 UNK         0.0600 
    197 H197       -3.4233  -25.2525  -44.5196 H         1 UNK         0.0600 
    198 H198       -3.3759  -23.5986  -43.9283 H         1 UNK         0.0600 
    199 H199       -1.9160  -24.3475  -44.5702 H         1 UNK         0.0600 
    200 H200       -0.9901  -24.1227  -47.0402 H         1 UNK         0.3000 
    201 H201       -1.2843  -26.5546  -48.4784 H         1 UNK         0.0600 
    202 H202        0.9053  -25.6709  -47.7114 H         1 UNK         0.0600 
    203 H203        0.7677  -24.3006  -48.8103 H         1 UNK         0.0600 
    204 H204        0.9299  -25.9315  -49.4493 H         1 UNK         0.0600 
    205 H205       -1.8214  -23.1971  -49.4285 H         1 UNK         0.3000 
    206 H206       -2.3912  -23.7934  -52.2332 H         1 UNK         0.0600 
    207 H207       -2.7415  -21.3635  -52.3715 H         1 UNK         0.0600 
    208 H208       -2.7376  -21.2186  -50.6156 H         1 UNK         0.0600 
    209 H209       -1.2727  -21.6827  -51.4588 H         1 UNK         0.0600 
    210 H210       -4.0881  -24.8566  -49.7945 H         1 UNK         0.3000 
    211 H211       -6.1535  -25.5003  -49.3921 H         1 UNK         0.0600 
    212 H212       -6.7781  -24.7819  -52.3045 H         1 UNK         0.0600 
    213 H213       -7.7098  -25.8577  -51.2738 H         1 UNK         0.0600 
    214 H214       -6.0804  -26.3037  -51.7531 H         1 UNK         0.0600 
    215 H215       -5.5744  -23.0943  -48.4125 H         1 UNK         0.3000 
    216 H216       -6.4022  -21.3923  -47.2878 H         1 UNK         0.0600 
    217 H217       -8.7868  -20.9772  -46.9619 H         1 UNK         0.0600 
    218 H218       -8.4913  -22.7047  -46.8477 H         1 UNK         0.0600 
    219 H219       -9.2209  -22.0239  -48.3018 H         1 UNK         0.0600 
    220 H220       -5.0687  -21.0168  -49.4946 H         1 UNK         0.3000 
    221 H221       -4.3975  -19.5842  -51.0615 H         1 UNK         0.0600 
    222 H222       -6.2365  -17.5630  -49.6776 H         1 UNK         0.0600 
    223 H223       -4.6164  -17.9946  -49.1380 H         1 UNK         0.0600 
    224 H224       -4.8422  -17.1964  -50.6857 H         1 UNK         0.0600 
    225 H225       -6.0526  -21.2835  -52.2043 H         1 UNK         0.3000 
    226 H226       -8.2946  -20.0509  -53.5928 H         1 UNK         0.0600 
    227 H227       -8.3641  -22.4061  -52.8186 H         1 UNK         0.0600 
    228 H228       -8.5343  -22.3191  -54.5643 H         1 UNK         0.0600 
    229 H229       -6.9993  -22.8107  -53.8576 H         1 UNK         0.0600 
    230 H230       -6.5658  -18.3626  -54.2811 H         1 UNK         0.3000 
    231 H231       -5.5989  -17.2041  -55.8919 H         1 UNK         0.0600 
    232 H232       -6.7108  -19.2401  -57.9003 H         1 UNK         0.0600 
    233 H233       -6.1393  -17.6124  -58.2634 H         1 UNK         0.0600 
    234 H234       -7.5707  -17.8369  -57.2800 H         1 UNK         0.0600 
    235 H235       -4.6056  -19.0804  -58.3760 H         1 UNK         0.3000 
    236 H236       -1.8412  -18.9151  -57.6776 H         1 UNK         0.0600 
    237 H237       -2.6929  -18.6805  -60.0081 H         1 UNK         0.0600 
    238 H238       -1.5373  -19.9979  -59.9150 H         1 UNK         0.0600 
    239 H239       -3.2592  -20.3510  -59.9923 H         1 UNK         0.0600 
    240 H240       -0.2862  -20.6166  -57.5835 H         1 UNK         0.3000 
    241 H241       -1.0316  -22.7166  -55.8059 H         1 UNK         0.0600 
    242 H242       -1.2019  -22.8393  -59.2533 H         1 UNK         0.3800 
    243 H243       -1.1249  -24.5769  -59.3824 H         1 UNK         0.3800 
    244 H244        1.3607  -23.2567  -55.7059 H         1 UNK         0.0800 
    245 H245        1.6794  -22.3333  -57.1486 H         1 UNK         0.0800 
    246 H246        1.4439  -22.3369  -53.3448 H         1 UNK         0.0800 
    247 H247       -0.1870  -21.7862  -53.6543 H         1 UNK         0.0800 
@<TRIPOS>BOND
     1    1    2 1    
     2    1  127 1    
     3    1  128 1    
     4    1  129 1    
     5    2    3 2    
     6    2    4 am   BACKBONE|DICT|INTERRES
     7    4    5 1    
     8    4  130 1    
     9    5    6 1    
    10    5   65 1    
    11    5  131 1    
    12    6    7 1    
    13    6  132 1    
    14    6  133 1    
    15    7    8 1    
    16    8    9 1    
    17    8  134 1    
    18    8  135 1    
    19    9   10 ar   
    20    9   14 ar   
    21   10   11 ar   
    22   10  136 1    
    23   11   12 ar   
    24   11  126 1    
    25   12   13 ar   
    26   12  137 1    
    27   13   14 ar   
    28   13   15 1    
    29   14  138 1    
    30   15   16 1    
    31   15  139 1    
    32   15  140 1    
    33   16   17 1    
    34   17   18 1    
    35   17  141 1    
    36   17  142 1    
    37   18   19 1    
    38   18   67 1    
    39   18  143 1    
    40   19   20 am   BACKBONE|DICT|INTERRES
    41   19  144 1    
    42   20   21 2    
    43   20   22 1    
    44   22   23 1    
    45   22   24 1    
    46   22  145 1    
    47   23  146 1    
    48   23  147 1    
    49   23  148 1    
    50   24   25 am   BACKBONE|DICT|INTERRES
    51   24  149 1    
    52   25   26 2    
    53   25   27 1    
    54   27   28 1    
    55   27   29 1    
    56   27  150 1    
    57   28  151 1    
    58   28  152 1    
    59   28  153 1    
    60   29   30 am   BACKBONE|DICT|INTERRES
    61   29  154 1    
    62   30   31 2    
    63   30   32 1    
    64   32   33 1    
    65   32   34 1    
    66   32  155 1    
    67   33  156 1    
    68   33  157 1    
    69   33  158 1    
    70   34   35 am   BACKBONE|DICT|INTERRES
    71   34  159 1    
    72   35   36 2    
    73   35   37 1    
    74   37   38 1    
    75   37   39 1    
    76   37  160 1    
    77   38  161 1    
    78   38  162 1    
    79   38  163 1    
    80   39   40 am   BACKBONE|DICT|INTERRES
    81   39  164 1    
    82   40   41 2    
    83   40   42 1    
    84   42   43 1    
    85   42   44 1    
    86   42  165 1    
    87   43  166 1    
    88   43  167 1    
    89   43  168 1    
    90   44   45 am   BACKBONE|DICT|INTERRES
    91   44  169 1    
    92   45   46 2    
    93   45   47 1    
    94   47   48 1    
    95   47   49 1    
    96   47  170 1    
    97   48  171 1    
    98   48  172 1    
    99   48  173 1    
   100   49   50 am   BACKBONE|DICT|INTERRES
   101   49  174 1    
   102   50   51 2    
   103   50   52 1    
   104   52   53 1    
   105   52   54 1    
   106   52  175 1    
   107   53  176 1    
   108   53  177 1    
   109   53  178 1    
   110   54   55 am   BACKBONE|DICT|INTERRES
   111   54  179 1    
   112   55   56 2    
   113   55   57 1    
   114   57   58 1    
   115   57   59 1    
   116   57  180 1    
   117   58  181 1    
   118   58  182 1    
   119   58  183 1    
   120   59   60 am   BACKBONE|DICT|INTERRES
   121   59  184 1    
   122   60   61 2    
   123   60   62 1    
   124   62   63 1    
   125   62   64 1    
   126   62  185 1    
   127   63  186 1    
   128   63  187 1    
   129   63  188 1    
   130   64   65 am   BACKBONE|DICT|INTERRES
   131   64  189 1    
   132   65   66 2    
   133   67   68 2    
   134   67   69 am   BACKBONE|DICT|INTERRES
   135   69   70 1    
   136   69  190 1    
   137   70   71 1    
   138   70   72 1    
   139   70  191 1    
   140   71  192 1    
   141   71  193 1    
   142   71  194 1    
   143   72   73 2    
   144   72   74 am   BACKBONE|DICT|INTERRES
   145   74   75 1    
   146   74  195 1    
   147   75   76 1    
   148   75   77 1    
   149   75  196 1    
   150   76  197 1    
   151   76  198 1    
   152   76  199 1    
   153   77   78 2    
   154   77   79 am   BACKBONE|DICT|INTERRES
   155   79   80 1    
   156   79  200 1    
   157   80   81 1    
   158   80   82 1    
   159   80  201 1    
   160   81  202 1    
   161   81  203 1    
   162   81  204 1    
   163   82   83 2    
   164   82   84 am   BACKBONE|DICT|INTERRES
   165   84   85 1    
   166   84  205 1    
   167   85   86 1    
   168   85   87 1    
   169   85  206 1    
   170   86  207 1    
   171   86  208 1    
   172   86  209 1    
   173   87   88 2    
   174   87   89 am   BACKBONE|DICT|INTERRES
   175   89   90 1    
   176   89  210 1    
   177   90   91 1    
   178   90   92 1    
   179   90  211 1    
   180   91  212 1    
   181   91  213 1    
   182   91  214 1    
   183   92   93 2    
   184   92   94 am   BACKBONE|DICT|INTERRES
   185   94   95 1    
   186   94  215 1    
   187   95   96 1    
   188   95   97 1    
   189   95  216 1    
   190   96  217 1    
   191   96  218 1    
   192   96  219 1    
   193   97   98 2    
   194   97   99 am   BACKBONE|DICT|INTERRES
   195   99  100 1    
   196   99  220 1    
   197  100  101 1    
   198  100  102 1    
   199  100  221 1    
   200  101  222 1    
   201  101  223 1    
   202  101  224 1    
   203  102  103 2    
   204  102  104 am   BACKBONE|DICT|INTERRES
   205  104  105 1    
   206  104  225 1    
   207  105  106 1    
   208  105  107 1    
   209  105  226 1    
   210  106  227 1    
   211  106  228 1    
   212  106  229 1    
   213  107  108 2    
   214  107  109 am   BACKBONE|DICT|INTERRES
   215  109  110 1    
   216  109  230 1    
   217  110  111 1    
   218  110  112 1    
   219  110  231 1    
   220  111  232 1    
   221  111  233 1    
   222  111  234 1    
   223  112  113 2    
   224  112  114 am   BACKBONE|DICT|INTERRES
   225  114  115 1    
   226  114  235 1    
   227  115  116 1    
   228  115  117 1    
   229  115  236 1    
   230  116  237 1    
   231  116  238 1    
   232  116  239 1    
   233  117  118 2    
   234  117  119 am   BACKBONE|DICT|INTERRES
   235  119  120 1    
   236  119  240 1    
   237  120  121 1    
   238  120  124 1    
   239  120  241 1    
   240  121  122 am   BACKBONE|DICT|INTERRES
   241  121  123 2    
   242  122  242 1    
   243  122  243 1    
   244  124  125 1    
   245  124  244 1    
   246  124  245 1    
   247  125  126 1    
   248  126  246 1    
   249  126  247 1    
@<TRIPOS>SUBSTRUCTURE
     1 UNK         1 GROUP             0       ****    0 ROOT    
