@<TRIPOS>MOLECULE
3R540
247   249    1
SMALL
USER_CHARGES


@<TRIPOS>ATOM
      1 CA          2.8744   -8.9884  -49.4229 C.3       0 UNK        -0.1800 
      2 C           1.4186   -9.4527  -49.3910 C.2       0 UNK         0.5000 
      3 O           0.5254   -8.6171  -49.2665 O.2       0 UNK        -0.5000 
      4 N           1.1197  -10.7542  -49.5144 N.am      1 UNK        -0.5000 
      5 CA          2.0527  -11.8838  -49.5777 C.3       1 UNK         0.1400 
      6 C6          1.3124  -13.1804  -49.9932 C.3       23 UNK        -0.0398 
      7 S7          2.4329  -14.5453  -50.4548 S.3       23 UNK        -0.2404 
      8 C8          1.3230  -15.6113  -51.4310 C.3       23 UNK        -0.0205 
      9 C9          0.5589  -16.6042  -50.5648 C.ar      23 UNK        -0.0193 
     10 C10        -0.6616  -16.2513  -49.9785 C.ar      23 UNK        -0.1150 
     11 C11        -1.3740  -17.1804  -49.2125 C.ar      23 UNK        -0.0193 
     12 C12        -0.8655  -18.4704  -49.0468 C.ar      23 UNK        -0.1150 
     13 C13         0.3491  -18.8371  -49.6300 C.ar      23 UNK        -0.0193 
     14 C14         1.0591  -17.8978  -50.3827 C.ar      23 UNK        -0.1150 
     15 C15         0.8636  -20.2622  -49.4975 C.3       23 UNK        -0.0205 
     16 S16         1.9851  -20.4909  -48.0811 S.3       23 UNK        -0.2404 
     17 C17         0.8577  -20.4429  -46.6439 C.3       23 UNK        -0.0398 
     18 CA          0.3845  -21.8516  -46.2105 C.3       11 UNK         0.1400 
     19 N          -0.0679  -21.8780  -44.8209 N.am      11 UNK        -0.5000 
     20 C          -0.3283  -22.9986  -44.1323 C.2       10 UNK         0.5000 
     21 O          -0.1448  -24.1349  -44.5699 O.2       10 UNK        -0.5000 
     22 CA         -0.9366  -22.8153  -42.7328 C.3       10 UNK         0.1400 
     23 CB          0.1607  -22.5283  -41.6982 C.3       10 UNK        -0.1800 
     24 N          -1.9370  -21.7469  -42.7058 N.am      10 UNK        -0.5000 
     25 C          -3.1261  -21.8159  -43.3214 C.2       9 UNK         0.5000 
     26 O          -3.5059  -22.7894  -43.9707 O.2       9 UNK        -0.5000 
     27 CA         -4.0286  -20.5744  -43.2235 C.3       9 UNK         0.1400 
     28 CB         -4.7877  -20.5575  -41.8885 C.3       9 UNK        -0.1800 
     29 N          -3.2905  -19.3211  -43.3797 N.am      9 UNK        -0.5000 
     30 C          -2.6836  -18.9411  -44.5118 C.2       8 UNK         0.5000 
     31 O          -2.6476  -19.6171  -45.5384 O.2       8 UNK        -0.5000 
     32 CA         -1.9693  -17.5826  -44.4861 C.3       8 UNK         0.1400 
     33 CB         -3.0046  -16.4484  -44.5840 C.3       8 UNK        -0.1800 
     34 N          -1.1148  -17.3669  -43.3126 N.am      8 UNK        -0.5000 
     35 C          -0.1484  -18.1936  -42.8883 C.2       7 UNK         0.5000 
     36 O           0.1350  -19.2590  -43.4423 O.2       7 UNK        -0.5000 
     37 CA          0.6221  -17.7513  -41.6346 C.3       7 UNK         0.1400 
     38 CB          1.1900  -18.9614  -40.8607 C.3       7 UNK        -0.1800 
     39 N           1.6883  -16.8244  -42.0131 N.am      7 UNK        -0.5000 
     40 C           2.4076  -16.0951  -41.1473 C.2       6 UNK         0.5000 
     41 O           2.2147  -16.0930  -39.9304 O.2       6 UNK        -0.5000 
     42 CA          3.5278  -15.2105  -41.7262 C.3       6 UNK         0.1400 
     43 CB          4.5905  -16.0426  -42.4629 C.3       6 UNK        -0.1800 
     44 N           3.0036  -14.1732  -42.6098 N.am      6 UNK        -0.5000 
     45 C           2.2883  -13.1133  -42.2051 C.2       5 UNK         0.5000 
     46 O           2.0717  -12.8410  -41.0237 O.2       5 UNK        -0.5000 
     47 CA          1.6908  -12.2161  -43.3073 C.3       5 UNK         0.1400 
     48 CB          2.6823  -11.1189  -43.7232 C.3       5 UNK        -0.1800 
     49 N           1.2811  -12.9728  -44.4899 N.am      5 UNK        -0.5000 
     50 C           0.3193  -13.9063  -44.5003 C.2       4 UNK         0.5000 
     51 O          -0.3876  -14.1836  -43.5308 O.2       4 UNK        -0.5000 
     52 CA          0.1534  -14.6940  -45.8073 C.3       4 UNK         0.1400 
     53 CB         -0.7324  -13.9307  -46.8008 C.3       4 UNK        -0.1800 
     54 N           1.4415  -15.0374  -46.4097 N.am      4 UNK        -0.5000 
     55 C           2.2829  -15.9498  -45.8988 C.2       3 UNK         0.5000 
     56 O           2.0308  -16.6280  -44.9029 O.2       3 UNK        -0.5000 
     57 CA          3.6563  -16.0957  -46.5795 C.3       3 UNK         0.1400 
     58 CB          3.5981  -17.1327  -47.7051 C.3       3 UNK        -0.1800 
     59 N           4.1537  -14.8299  -47.1143 N.am      3 UNK        -0.5000 
     60 C           4.5710  -13.8071  -46.3558 C.2       2 UNK         0.5000 
     61 O           4.6210  -13.8457  -45.1272 O.2       2 UNK        -0.5000 
     62 CA          4.9389  -12.5070  -47.0950 C.3       2 UNK         0.1400 
     63 CB          6.4162  -12.5211  -47.5137 C.3       2 UNK        -0.1800 
     64 N           4.1012  -12.2665  -48.2739 N.am      2 UNK        -0.5000 
     65 C           2.7785  -12.0605  -48.2276 C.2       1 UNK         0.5000 
     66 O           2.1304  -12.0387  -47.1790 O.2       1 UNK        -0.5000 
     67 C          -0.6977  -22.4172  -47.1517 C.2       11 UNK         0.5000 
     68 O          -0.4056  -23.3194  -47.9363 O.2       11 UNK        -0.5000 
     69 N          -1.9341  -21.9101  -47.0373 N.am      12 UNK        -0.5000 
     70 CA         -3.0780  -22.3206  -47.8524 C.3       12 UNK         0.1400 
     71 CB         -4.2790  -21.4148  -47.5585 C.3       12 UNK        -0.1800 
     72 C          -3.4639  -23.7988  -47.6860 C.2       12 UNK         0.5000 
     73 O          -3.8696  -24.4176  -48.6668 O.2       12 UNK        -0.5000 
     74 N          -3.2965  -24.3538  -46.4782 N.am      13 UNK        -0.5000 
     75 CA         -3.5071  -25.7747  -46.1913 C.3       13 UNK         0.1400 
     76 CB         -3.4059  -26.0122  -44.6770 C.3       13 UNK        -0.1800 
     77 C          -2.5378  -26.7042  -46.9494 C.2       13 UNK         0.5000 
     78 O          -2.9199  -27.8257  -47.2862 O.2       13 UNK        -0.5000 
     79 N          -1.3143  -26.2252  -47.2103 N.am      14 UNK        -0.5000 
     80 CA         -0.2981  -26.9387  -47.9794 C.3       14 UNK         0.1400 
     81 CB          1.0955  -26.5357  -47.4704 C.3       14 UNK        -0.1800 
     82 C          -0.4305  -26.6632  -49.4873 C.2       14 UNK         0.5000 
     83 O          -0.3849  -27.6013  -50.2839 O.2       14 UNK        -0.5000 
     84 N          -0.5674  -25.3817  -49.8513 N.am      15 UNK        -0.5000 
     85 CA         -0.5681  -24.9014  -51.2329 C.3       15 UNK         0.1400 
     86 CB         -0.2680  -23.3971  -51.2242 C.3       15 UNK        -0.1800 
     87 C          -1.8773  -25.1781  -51.9913 C.2       15 UNK         0.5000 
     88 O          -1.8321  -25.4062  -53.2015 O.2       15 UNK        -0.5000 
     89 N          -3.0147  -25.1345  -51.2819 N.am      16 UNK        -0.5000 
     90 CA         -4.3780  -25.3143  -51.7851 C.3       16 UNK         0.1400 
     91 CB         -4.6331  -26.8065  -52.0938 C.3       16 UNK        -0.1800 
     92 C          -4.6857  -24.3579  -52.9564 C.2       16 UNK         0.5000 
     93 O          -4.6686  -23.1383  -52.7665 O.2       16 UNK        -0.5000 
     94 N          -4.9218  -24.9202  -54.1486 N.am      17 UNK        -0.5000 
     95 CA         -5.2137  -24.2090  -55.3923 C.3       17 UNK         0.1400 
     96 CB         -5.5660  -25.2338  -56.4807 C.3       17 UNK        -0.1800 
     97 C          -4.0841  -23.2788  -55.8754 C.2       17 UNK         0.5000 
     98 O          -4.3785  -22.3088  -56.5730 O.2       17 UNK        -0.5000 
     99 N          -2.8297  -23.5467  -55.4785 N.am      18 UNK        -0.5000 
    100 CA        -1.6767  -22.6986  -55.8010 C.3       18 UNK         0.1400 
    101 CB        -0.3740  -23.4668  -55.5329 C.3       18 UNK        -0.1800 
    102 C         -1.6897  -21.3547  -55.0444 C.2       18 UNK         0.5000 
    103 O         -1.1649  -20.3674  -55.5597 O.2       18 UNK        -0.5000 
    104 N         -2.3135  -21.3339  -53.8585 N.am      19 UNK        -0.5000 
    105 CA        -2.5740  -20.1244  -53.0729 C.3       19 UNK         0.1400 
    106 CB        -2.4198  -20.4697  -51.5851 C.3       19 UNK        -0.1800 
    107 C         -3.9776  -19.5473  -53.3412 C.2       19 UNK         0.5000 
    108 O         -4.2804  -18.4533  -52.8680 O.2       19 UNK        -0.5000 
    109 N         -4.8141  -20.3052  -54.0655 N.am      20 UNK        -0.5000 
    110 CA        -6.2434  -20.0868  -54.3046 C.3       20 UNK         0.1400 
    111 CB        -6.4889  -18.7911  -55.1061 C.3       20 UNK        -0.1800 
    112 C         -7.0869  -20.1791  -53.0131 C.2       20 UNK         0.5000 
    113 O         -8.1376  -19.5421  -52.9281 O.2       20 UNK        -0.5000 
    114 N         -6.6173  -20.9975  -52.0553 N.am      21 UNK        -0.5000 
    115 CA        -7.2297  -21.3306  -50.7656 C.3       21 UNK         0.1400 
    116 CB        -8.4316  -22.2709  -50.9865 C.3       21 UNK        -0.1800 
    117 C         -7.5921  -20.0914  -49.9167 C.2       21 UNK         0.5000 
    118 O         -8.7684  -19.7385  -49.8096 O.2       21 UNK        -0.5000 
    119 N         -6.5683  -19.4509  -49.3340 N.am      22 UNK        -0.5000 
    120 CA        -6.6864  -18.2369  -48.4983 C.3       22 UNK         0.1400 
    121 C         -7.5738  -18.3718  -47.2231 C.2       22 UNK         0.5000 
    122 N         -7.8211  -19.5695  -46.7062 N.am      22 UNK        -0.7600 
    123 O         -8.0390  -17.3677  -46.6910 O.2       22 UNK        -0.5000 
    124 C124       -5.3064  -17.6577  -48.0839 C.3       23 UNK        -0.0398 
    125 S125       -4.1155  -17.4846  -49.4524 S.3       23 UNK        -0.2404 
    126 C126       -2.6892  -16.8085  -48.5482 C.3       23 UNK        -0.0205 
    127 H127        3.3604   -9.1827  -48.4671 H         1 UNK         0.0600 
    128 H128        2.9244   -7.9152  -49.6080 H         1 UNK         0.0600 
    129 H129        3.4394   -9.4798  -50.2139 H         1 UNK         0.0600 
    130 H130        0.1451  -11.0131  -49.4695 H         1 UNK         0.3000 
    131 H131        2.7897  -11.6622  -50.3515 H         1 UNK         0.0600 
    132 H132        0.6408  -13.5235  -49.2086 H         1 UNK         0.0800 
    133 H133        0.6792  -12.9661  -50.8554 H         1 UNK         0.0800 
    134 H134        0.6277  -15.0066  -52.0147 H         1 UNK         0.0800 
    135 H135        1.9257  -16.1534  -52.1613 H         1 UNK         0.0800 
    136 H136       -1.0585  -15.2567  -50.1230 H         1 UNK         0.1150 
    137 H137       -1.4330  -19.1938  -48.4782 H         1 UNK         0.1150 
    138 H138        1.9964  -18.1801  -50.8413 H         1 UNK         0.1150 
    139 H139        0.0277  -20.9557  -49.4258 H         1 UNK         0.0800 
    140 H140        1.3980  -20.5394  -50.4073 H         1 UNK         0.0800 
    141 H141        1.4271  -19.9881  -45.8317 H         1 UNK         0.0800 
    142 H142        0.0212  -19.7669  -46.8136 H         1 UNK         0.0800 
    143 H143        1.2440  -22.5236  -46.2662 H         1 UNK         0.0600 
    144 H144       -0.2082  -20.9795  -44.3677 H         1 UNK         0.3000 
    145 H145       -1.4311  -23.7488  -42.4552 H         1 UNK         0.0600 
    146 H146       -0.2586  -22.3772  -40.7034 H         1 UNK         0.0600 
    147 H147        0.8592  -23.3634  -41.6340 H         1 UNK         0.0600 
    148 H148        0.7382  -21.6427  -41.9624 H         1 UNK         0.0600 
    149 H149       -1.6810  -20.8910  -42.2372 H         1 UNK         0.3000 
    150 H150       -4.7623  -20.6348  -44.0303 H         1 UNK         0.0600 
    151 H151       -5.3597  -21.4766  -41.7538 H         1 UNK         0.0600 
    152 H152       -5.4940  -19.7282  -41.8474 H         1 UNK         0.0600 
    153 H153       -4.1103  -20.4648  -41.0387 H         1 UNK         0.0600 
    154 H154       -3.2596  -18.7039  -42.5818 H         1 UNK         0.3000 
    155 H155       -1.3298  -17.5597  -45.3694 H         1 UNK         0.0600 
    156 H156       -2.5309  -15.4749  -44.6954 H         1 UNK         0.0600 
    157 H157       -3.6358  -16.4046  -43.6957 H         1 UNK         0.0600 
    158 H158       -3.6641  -16.5858  -45.4414 H         1 UNK         0.0600 
    159 H159       -1.2411  -16.4887  -42.8275 H         1 UNK         0.3000 
    160 H160       -0.0787  -17.2270  -40.9817 H         1 UNK         0.0600 
    161 H161        1.9530  -19.4854  -41.4376 H         1 UNK         0.0600 
    162 H162        0.4000  -19.6749  -40.6255 H         1 UNK         0.0600 
    163 H163        1.6360  -18.6656  -39.9118 H         1 UNK         0.0600 
    164 H164        1.8744  -16.7539  -43.0125 H         1 UNK         0.3000 
    165 H165        4.0248  -14.7166  -40.8884 H         1 UNK         0.0600 
    166 H166        4.1834  -16.5491  -43.3369 H         1 UNK         0.0600 
    167 H167        5.4167  -15.4153  -42.7982 H         1 UNK         0.0600 
    168 H168        5.0083  -16.8075  -41.8072 H         1 UNK         0.0600 
    169 H169        3.1959  -14.2762  -43.5986 H         1 UNK         0.3000 
    170 H170        0.8012  -11.7339  -42.8970 H         1 UNK         0.0600 
    171 H171        2.9577  -10.4992  -42.8691 H         1 UNK         0.0600 
    172 H172        3.6009  -11.5389  -44.1324 H         1 UNK         0.0600 
    173 H173        2.2501  -10.4613  -44.4779 H         1 UNK         0.0600 
    174 H174        1.7678  -12.7682  -45.3570 H         1 UNK         0.3000 
    175 H175       -0.3471  -15.6273  -45.5690 H         1 UNK         0.0600 
    176 H176       -1.7222  -13.7528  -46.3791 H         1 UNK         0.0600 
    177 H177       -0.3146  -12.9587  -47.0605 H         1 UNK         0.0600 
    178 H178       -0.8716  -14.4989  -47.7176 H         1 UNK         0.0600 
    179 H179        1.7419  -14.4865  -47.1990 H         1 UNK         0.3000 
    180 H180        4.3663  -16.4511  -45.8298 H         1 UNK         0.0600 
    181 H181        2.8621  -16.8656  -48.4629 H         1 UNK         0.0600 
    182 H182        3.3225  -18.1066  -47.3042 H         1 UNK         0.0600 
    183 H183        4.5646  -17.2456  -48.1961 H         1 UNK         0.0600 
    184 H184        4.1369  -14.7180  -48.1177 H         1 UNK         0.3000 
    185 H185        4.7884  -11.6779  -46.4004 H         1 UNK         0.0600 
    186 H186        6.7067  -11.5731  -47.9669 H         1 UNK         0.0600 
    187 H187        7.0644  -12.6793  -46.6506 H         1 UNK         0.0600 
    188 H188        6.6250  -13.3155  -48.2313 H         1 UNK         0.0600 
    189 H189        4.5695  -12.2848  -49.1688 H         1 UNK         0.3000 
    190 H190       -2.1097  -21.1607  -46.3706 H         1 UNK         0.3000 
    191 H191       -2.7995  -22.1776  -48.8983 H         1 UNK         0.0600 
    192 H192       -5.1539  -21.7237  -48.1302 H         1 UNK         0.0600 
    193 H193       -4.0543  -20.3846  -47.8289 H         1 UNK         0.0600 
    194 H194       -4.5512  -21.4370  -46.5027 H         1 UNK         0.0600 
    195 H195       -3.0302  -23.7644  -45.6962 H         1 UNK         0.3000 
    196 H196       -4.5202  -26.0315  -46.5077 H         1 UNK         0.0600 
    197 H197       -3.5506  -27.0656  -44.4342 H         1 UNK         0.0600 
    198 H198       -4.1680  -25.4490  -44.1384 H         1 UNK         0.0600 
    199 H199       -2.4315  -25.7152  -44.2879 H         1 UNK         0.0600 
    200 H200       -1.0862  -25.2838  -46.9172 H         1 UNK         0.3000 
    201 H201       -0.4092  -28.0138  -47.8224 H         1 UNK         0.0600 
    202 H202        1.2144  -26.7839  -46.4155 H         1 UNK         0.0600 
    203 H203        1.2766  -25.4660  -47.5817 H         1 UNK         0.0600 
    204 H204        1.8783  -27.0606  -48.0192 H         1 UNK         0.0600 
    205 H205       -0.5664  -24.6663  -49.1264 H         1 UNK         0.3000 
    206 H206        0.2368  -25.4041  -51.7734 H         1 UNK         0.0600 
    207 H207        0.7139  -23.1942  -50.7962 H         1 UNK         0.0600 
    208 H208       -0.2791  -22.9772  -52.2299 H         1 UNK         0.0600 
    209 H209       -1.0071  -22.8598  -50.6314 H         1 UNK         0.0600 
    210 H210       -2.9658  -24.9133  -50.2919 H         1 UNK         0.3000 
    211 H211       -5.0530  -25.0248  -50.9791 H         1 UNK         0.0600 
    212 H212       -3.9689  -27.1888  -52.8697 H         1 UNK         0.0600 
    213 H213       -5.6616  -26.9747  -52.4160 H         1 UNK         0.0600 
    214 H214       -4.4761  -27.4148  -51.2027 H         1 UNK         0.0600 
    215 H215       -4.8769  -25.9268  -54.2114 H         1 UNK         0.3000 
    216 H216       -6.0920  -23.5853  -55.2138 H         1 UNK         0.0600 
    217 H217       -4.7329  -25.9085  -56.6820 H         1 UNK         0.0600 
    218 H218       -6.4263  -25.8378  -56.1913 H         1 UNK         0.0600 
    219 H219       -5.8207  -24.7376  -57.4183 H         1 UNK         0.0600 
    220 H220       -2.6563  -24.3465  -54.8787 H         1 UNK         0.3000 
    221 H221       -1.7135  -22.4719  -56.8688 H         1 UNK         0.0600 
    222 H222       -0.3458  -24.4032  -56.0902 H         1 UNK         0.0600 
    223 H223        0.4929  -22.8800  -55.8389 H         1 UNK         0.0600 
    224 H224       -0.2506  -23.7020  -54.4769 H         1 UNK         0.0600 
    225 H225       -2.7383  -22.1869  -53.5179 H         1 UNK         0.3000 
    226 H226       -1.8484  -19.3459  -53.3178 H         1 UNK         0.0600 
    227 H227       -3.0465  -21.3133  -51.2940 H         1 UNK         0.0600 
    228 H228       -1.3843  -20.7138  -51.3593 H         1 UNK         0.0600 
    229 H229       -2.6908  -19.6244  -50.9534 H         1 UNK         0.0600 
    230 H230       -4.4486  -21.1756  -54.4234 H         1 UNK         0.3000 
    231 H231       -6.5686  -20.9192  -54.9301 H         1 UNK         0.0600 
    232 H232       -7.5278  -18.7246  -55.4308 H         1 UNK         0.0600 
    233 H233       -5.8681  -18.7584  -56.0014 H         1 UNK         0.0600 
    234 H234       -6.2760  -17.8999  -54.5156 H         1 UNK         0.0600 
    235 H235       -5.7624  -21.5034  -52.2642 H         1 UNK         0.3000 
    236 H236       -6.4805  -21.8926  -50.2063 H         1 UNK         0.0600 
    237 H237       -8.1283  -23.1794  -51.5072 H         1 UNK         0.0600 
    238 H238       -8.8711  -22.5728  -50.0351 H         1 UNK         0.0600 
    239 H239       -9.2174  -21.7954  -51.5746 H         1 UNK         0.0600 
    240 H240       -5.6262  -19.7601  -49.5191 H         1 UNK         0.3000 
    241 H241       -7.1752  -17.4897  -49.1263 H         1 UNK         0.0600 
    242 H242       -7.4588  -20.4023  -47.1391 H         1 UNK         0.3800 
    243 H243       -8.4003  -19.6424  -45.8849 H         1 UNK         0.3800 
    244 H244       -5.4368  -16.6723  -47.6322 H         1 UNK         0.0800 
    245 H245       -4.8500  -18.2824  -47.3143 H         1 UNK         0.0800 
    246 H246       -2.6798  -17.1958  -47.5297 H         1 UNK         0.0800 
    247 H247       -2.7978  -15.7263  -48.4692 H         1 UNK         0.0800 
@<TRIPOS>BOND
     1    1    2 1    
     2    1  127 1    
     3    1  128 1    
     4    1  129 1    
     5    2    3 2    
     6    2    4 am   BACKBONE|DICT|INTERRES
     7    4    5 1    
     8    4  130 1    
     9    5    6 1    
    10    5   65 1    
    11    5  131 1    
    12    6    7 1    
    13    6  132 1    
    14    6  133 1    
    15    7    8 1    
    16    8    9 1    
    17    8  134 1    
    18    8  135 1    
    19    9   10 ar   
    20    9   14 ar   
    21   10   11 ar   
    22   10  136 1    
    23   11   12 ar   
    24   11  126 1    
    25   12   13 ar   
    26   12  137 1    
    27   13   14 ar   
    28   13   15 1    
    29   14  138 1    
    30   15   16 1    
    31   15  139 1    
    32   15  140 1    
    33   16   17 1    
    34   17   18 1    
    35   17  141 1    
    36   17  142 1    
    37   18   19 1    
    38   18   67 1    
    39   18  143 1    
    40   19   20 am   BACKBONE|DICT|INTERRES
    41   19  144 1    
    42   20   21 2    
    43   20   22 1    
    44   22   23 1    
    45   22   24 1    
    46   22  145 1    
    47   23  146 1    
    48   23  147 1    
    49   23  148 1    
    50   24   25 am   BACKBONE|DICT|INTERRES
    51   24  149 1    
    52   25   26 2    
    53   25   27 1    
    54   27   28 1    
    55   27   29 1    
    56   27  150 1    
    57   28  151 1    
    58   28  152 1    
    59   28  153 1    
    60   29   30 am   BACKBONE|DICT|INTERRES
    61   29  154 1    
    62   30   31 2    
    63   30   32 1    
    64   32   33 1    
    65   32   34 1    
    66   32  155 1    
    67   33  156 1    
    68   33  157 1    
    69   33  158 1    
    70   34   35 am   BACKBONE|DICT|INTERRES
    71   34  159 1    
    72   35   36 2    
    73   35   37 1    
    74   37   38 1    
    75   37   39 1    
    76   37  160 1    
    77   38  161 1    
    78   38  162 1    
    79   38  163 1    
    80   39   40 am   BACKBONE|DICT|INTERRES
    81   39  164 1    
    82   40   41 2    
    83   40   42 1    
    84   42   43 1    
    85   42   44 1    
    86   42  165 1    
    87   43  166 1    
    88   43  167 1    
    89   43  168 1    
    90   44   45 am   BACKBONE|DICT|INTERRES
    91   44  169 1    
    92   45   46 2    
    93   45   47 1    
    94   47   48 1    
    95   47   49 1    
    96   47  170 1    
    97   48  171 1    
    98   48  172 1    
    99   48  173 1    
   100   49   50 am   BACKBONE|DICT|INTERRES
   101   49  174 1    
   102   50   51 2    
   103   50   52 1    
   104   52   53 1    
   105   52   54 1    
   106   52  175 1    
   107   53  176 1    
   108   53  177 1    
   109   53  178 1    
   110   54   55 am   BACKBONE|DICT|INTERRES
   111   54  179 1    
   112   55   56 2    
   113   55   57 1    
   114   57   58 1    
   115   57   59 1    
   116   57  180 1    
   117   58  181 1    
   118   58  182 1    
   119   58  183 1    
   120   59   60 am   BACKBONE|DICT|INTERRES
   121   59  184 1    
   122   60   61 2    
   123   60   62 1    
   124   62   63 1    
   125   62   64 1    
   126   62  185 1    
   127   63  186 1    
   128   63  187 1    
   129   63  188 1    
   130   64   65 am   BACKBONE|DICT|INTERRES
   131   64  189 1    
   132   65   66 2    
   133   67   68 2    
   134   67   69 am   BACKBONE|DICT|INTERRES
   135   69   70 1    
   136   69  190 1    
   137   70   71 1    
   138   70   72 1    
   139   70  191 1    
   140   71  192 1    
   141   71  193 1    
   142   71  194 1    
   143   72   73 2    
   144   72   74 am   BACKBONE|DICT|INTERRES
   145   74   75 1    
   146   74  195 1    
   147   75   76 1    
   148   75   77 1    
   149   75  196 1    
   150   76  197 1    
   151   76  198 1    
   152   76  199 1    
   153   77   78 2    
   154   77   79 am   BACKBONE|DICT|INTERRES
   155   79   80 1    
   156   79  200 1    
   157   80   81 1    
   158   80   82 1    
   159   80  201 1    
   160   81  202 1    
   161   81  203 1    
   162   81  204 1    
   163   82   83 2    
   164   82   84 am   BACKBONE|DICT|INTERRES
   165   84   85 1    
   166   84  205 1    
   167   85   86 1    
   168   85   87 1    
   169   85  206 1    
   170   86  207 1    
   171   86  208 1    
   172   86  209 1    
   173   87   88 2    
   174   87   89 am   BACKBONE|DICT|INTERRES
   175   89   90 1    
   176   89  210 1    
   177   90   91 1    
   178   90   92 1    
   179   90  211 1    
   180   91  212 1    
   181   91  213 1    
   182   91  214 1    
   183   92   93 2    
   184   92   94 am   BACKBONE|DICT|INTERRES
   185   94   95 1    
   186   94  215 1    
   187   95   96 1    
   188   95   97 1    
   189   95  216 1    
   190   96  217 1    
   191   96  218 1    
   192   96  219 1    
   193   97   98 2    
   194   97   99 am   BACKBONE|DICT|INTERRES
   195   99  100 1    
   196   99  220 1    
   197  100  101 1    
   198  100  102 1    
   199  100  221 1    
   200  101  222 1    
   201  101  223 1    
   202  101  224 1    
   203  102  103 2    
   204  102  104 am   BACKBONE|DICT|INTERRES
   205  104  105 1    
   206  104  225 1    
   207  105  106 1    
   208  105  107 1    
   209  105  226 1    
   210  106  227 1    
   211  106  228 1    
   212  106  229 1    
   213  107  108 2    
   214  107  109 am   BACKBONE|DICT|INTERRES
   215  109  110 1    
   216  109  230 1    
   217  110  111 1    
   218  110  112 1    
   219  110  231 1    
   220  111  232 1    
   221  111  233 1    
   222  111  234 1    
   223  112  113 2    
   224  112  114 am   BACKBONE|DICT|INTERRES
   225  114  115 1    
   226  114  235 1    
   227  115  116 1    
   228  115  117 1    
   229  115  236 1    
   230  116  237 1    
   231  116  238 1    
   232  116  239 1    
   233  117  118 2    
   234  117  119 am   BACKBONE|DICT|INTERRES
   235  119  120 1    
   236  119  240 1    
   237  120  121 1    
   238  120  124 1    
   239  120  241 1    
   240  121  122 am   BACKBONE|DICT|INTERRES
   241  121  123 2    
   242  122  242 1    
   243  122  243 1    
   244  124  125 1    
   245  124  244 1    
   246  124  245 1    
   247  125  126 1    
   248  126  246 1    
   249  126  247 1    
@<TRIPOS>SUBSTRUCTURE
     1 UNK         1 GROUP             0       ****    0 ROOT    
