@<TRIPOS>MOLECULE
3R540
247   249    1
SMALL
USER_CHARGES


@<TRIPOS>ATOM
      1 CA          1.0066  -11.2215  -50.8577 C.3       0 UNK        -0.1800 
      2 C           0.4324  -11.0314  -49.4617 C.2       0 UNK         0.5000 
      3 O           1.1836  -10.9909  -48.4890 O.2       0 UNK        -0.5000 
      4 N          -0.8951  -10.8916  -49.3564 N.am      1 UNK        -0.5000 
      5 CA         -1.6445  -10.7624  -48.0954 C.3       1 UNK         0.1400 
      6 C6         -3.1698  -10.9226  -48.3127 C.3       23 UNK        -0.0398 
      7 S7         -3.5922  -12.5201  -49.0865 S.3       23 UNK        -0.2404 
      8 C8         -4.0047  -13.5093  -47.6183 C.3       23 UNK        -0.0205 
      9 C9         -4.0912  -14.9853  -47.9667 C.ar      23 UNK        -0.0193 
     10 C10        -5.2816  -15.5278  -48.4578 C.ar      23 UNK        -0.1150 
     11 C11        -5.3576  -16.8823  -48.7955 C.ar      23 UNK        -0.0193 
     12 C12        -4.2371  -17.6998  -48.6228 C.ar      23 UNK        -0.1150 
     13 C13        -3.0422  -17.1669  -48.1303 C.ar      23 UNK        -0.0193 
     14 C14        -2.9744  -15.8094  -47.8070 C.ar      23 UNK        -0.1150 
     15 C15        -1.8132  -18.0456  -47.9707 C.3       23 UNK        -0.0205 
     16 S16        -1.4429  -18.4045  -46.2256 S.3       23 UNK        -0.2404 
     17 C17        -2.8560  -19.4418  -45.7099 C.3       23 UNK        -0.0398 
     18 CA         -3.0471  -20.7478  -46.5227 C.3       11 UNK         0.1400 
     19 N          -1.8089  -21.5245  -46.6772 N.am      11 UNK        -0.5000 
     20 C          -1.6825  -22.6012  -47.4669 C.2       10 UNK         0.5000 
     21 O          -2.5821  -23.0237  -48.1880 O.2       10 UNK        -0.5000 
     22 CA         -0.3695  -23.3912  -47.3774 C.3       10 UNK         0.1400 
     23 CB          0.7024  -22.7977  -48.3027 C.3       10 UNK        -0.1800 
     24 N           0.1199  -23.4559  -46.0029 N.am      10 UNK        -0.5000 
     25 C          -0.4520  -24.1982  -45.0449 C.2       9 UNK         0.5000 
     26 O          -1.4196  -24.9331  -45.2429 O.2       9 UNK        -0.5000 
     27 CA          0.1233  -24.0619  -43.6228 C.3       9 UNK         0.1400 
     28 CB          1.3488  -24.9707  -43.4482 C.3       9 UNK        -0.1800 
     29 N           0.4854  -22.6825  -43.2890 N.am      9 UNK        -0.5000 
     30 C          -0.3970  -21.6801  -43.1736 C.2       8 UNK         0.5000 
     31 O          -1.6128  -21.8293  -43.2826 O.2       8 UNK        -0.5000 
     32 CA          0.1665  -20.2646  -42.9468 C.3       8 UNK         0.1400 
     33 CB          0.3141  -19.9800  -41.4451 C.3       8 UNK        -0.1800 
     34 N           1.4401  -19.9820  -43.6164 N.am      8 UNK        -0.5000 
     35 C           1.7047  -20.1492  -44.9186 C.2       7 UNK         0.5000 
     36 O           0.9287  -20.6849  -45.7095 O.2       7 UNK        -0.5000 
     37 CA          3.0490  -19.5882  -45.4198 C.3       7 UNK         0.1400 
     38 CB          3.4760  -20.2164  -46.7589 C.3       7 UNK        -0.1800 
     39 N           2.9736  -18.1363  -45.5835 N.am      7 UNK        -0.5000 
     40 C           2.9614  -17.2461  -44.5845 C.2       6 UNK         0.5000 
     41 O           3.0815  -17.5514  -43.3931 O.2       6 UNK        -0.5000 
     42 CA          2.7696  -15.7753  -44.9836 C.3       6 UNK         0.1400 
     43 CB          1.3334  -15.5093  -45.4742 C.3       6 UNK        -0.1800 
     44 N           3.0552  -14.9390  -43.8230 N.am      6 UNK        -0.5000 
     45 C           3.5272  -13.6912  -43.8541 C.2       5 UNK         0.5000 
     46 O           3.7630  -13.0670  -44.8921 O.2       5 UNK        -0.5000 
     47 CA          3.7988  -13.0406  -42.4907 C.3       5 UNK         0.1400 
     48 CB          5.1157  -13.5509  -41.8793 C.3       5 UNK        -0.1800 
     49 N           3.8673  -11.5945  -42.6628 N.am      5 UNK        -0.5000 
     50 C           3.5201  -10.6813  -41.7500 C.2       4 UNK         0.5000 
     51 O           3.1388  -10.9668  -40.6138 O.2       4 UNK        -0.5000 
     52 CA          3.6168   -9.1968  -42.1604 C.3       4 UNK         0.1400 
     53 CB          4.8428   -8.5398  -41.5063 C.3       4 UNK        -0.1800 
     54 N           3.6828   -8.9755  -43.6086 N.am      4 UNK        -0.5000 
     55 C           2.6604   -9.1427  -44.4570 C.2       3 UNK         0.5000 
     56 O           1.5451   -9.5424  -44.1138 O.2       3 UNK        -0.5000 
     57 CA          2.9599   -8.8341  -45.9372 C.3       3 UNK         0.1400 
     58 CB          3.6709  -10.0231  -46.6009 C.3       3 UNK        -0.1800 
     59 N           1.7510   -8.5143  -46.6983 N.am      3 UNK        -0.5000 
     60 C           1.0363   -7.3879  -46.5507 C.2       2 UNK         0.5000 
     61 O           1.3634   -6.4751  -45.7901 O.2       2 UNK        -0.5000 
     62 CA         -0.2431   -7.2255  -47.3999 C.3       2 UNK         0.1400 
     63 CB         -0.0118   -6.2110  -48.5312 C.3       2 UNK        -0.1800 
     64 N          -0.7192   -8.4774  -47.9880 N.am      2 UNK        -0.5000 
     65 C          -1.3408   -9.4589  -47.3199 C.2       1 UNK         0.5000 
     66 O          -1.6659   -9.3715  -46.1355 O.2       1 UNK        -0.5000 
     67 C          -4.1951  -21.5940  -45.9253 C.2       11 UNK         0.5000 
     68 O          -5.3458  -21.4342  -46.3317 O.2       11 UNK        -0.5000 
     69 N          -3.8500  -22.5149  -45.0138 N.am      12 UNK        -0.5000 
     70 CA         -4.7351  -23.5264  -44.4301 C.3       12 UNK         0.1400 
     71 CB         -4.1389  -23.9923  -43.0914 C.3       12 UNK        -0.1800 
     72 C          -5.0130  -24.7284  -45.3623 C.2       12 UNK         0.5000 
     73 O          -5.7317  -25.6431  -44.9573 O.2       12 UNK        -0.5000 
     74 N          -4.4621  -24.7055  -46.5846 N.am      13 UNK        -0.5000 
     75 CA         -4.6495  -25.6664  -47.6714 C.3       13 UNK         0.1400 
     76 CB         -6.1332  -25.7662  -48.0882 C.3       13 UNK        -0.1800 
     77 C          -3.9989  -27.0397  -47.4257 C.2       13 UNK         0.5000 
     78 O          -4.4976  -28.0434  -47.9414 O.2       13 UNK        -0.5000 
     79 N          -2.8648  -27.0748  -46.7073 N.am      14 UNK        -0.5000 
     80 CA         -2.0087  -28.2612  -46.6051 C.3       14 UNK         0.1400 
     81 CB         -0.8373  -27.9914  -45.6492 C.3       14 UNK        -0.1800 
     82 C          -1.4927  -28.6685  -47.9981 C.2       14 UNK         0.5000 
     83 O          -0.9431  -27.8251  -48.7099 O.2       14 UNK        -0.5000 
     84 N          -1.7573  -29.9233  -48.3882 N.am      15 UNK        -0.5000 
     85 CA         -1.5048  -30.5012  -49.7168 C.3       15 UNK         0.1400 
     86 CB          0.0121  -30.6363  -49.9675 C.3       15 UNK        -0.1800 
     87 C          -2.2322  -29.7645  -50.8689 C.2       15 UNK         0.5000 
     88 O          -1.7817  -29.8286  -52.0135 O.2       15 UNK        -0.5000 
     89 N          -3.3341  -29.0676  -50.5418 N.am      16 UNK        -0.5000 
     90 CA         -4.1487  -28.2130  -51.4145 C.3       16 UNK         0.1400 
     91 CB         -4.8325  -29.0411  -52.5221 C.3       16 UNK        -0.1800 
     92 C          -3.3952  -26.9831  -51.9703 C.2       16 UNK         0.5000 
     93 O          -3.8182  -26.4135  -52.9783 O.2       16 UNK        -0.5000 
     94 N          -2.3124  -26.5635  -51.2952 N.am      17 UNK        -0.5000 
     95 CA         -1.4288  -25.4702  -51.7173 C.3       17 UNK         0.1400 
     96 CB         -0.1751  -25.4648  -50.8340 C.3       17 UNK        -0.1800 
     97 C          -2.0857  -24.0756  -51.7420 C.2       17 UNK         0.5000 
     98 O          -1.5449  -23.1708  -52.3799 O.2       17 UNK        -0.5000 
     99 N          -3.2563  -23.9292  -51.1035 N.am      18 UNK        -0.5000 
    100 CA        -4.0869  -22.7209  -51.1080 C.3       18 UNK         0.1400 
    101 CB        -5.3242  -22.9332  -50.2240 C.3       18 UNK        -0.1800 
    102 C         -4.5144  -22.2755  -52.5172 C.2       18 UNK         0.5000 
    103 O         -4.6833  -21.0783  -52.7401 O.2       18 UNK        -0.5000 
    104 N         -4.6204  -23.2295  -53.4546 N.am      19 UNK        -0.5000 
    105 CA        -4.8844  -22.9838  -54.8738 C.3       19 UNK         0.1400 
    106 CB        -5.0379  -24.3334  -55.5911 C.3       19 UNK        -0.1800 
    107 C         -3.8048  -22.1237  -55.5645 C.2       19 UNK         0.5000 
    108 O         -4.1180  -21.4337  -56.5354 O.2       19 UNK        -0.5000 
    109 N         -2.5704  -22.1655  -55.0445 N.am      20 UNK        -0.5000 
    110 CA        -1.4648  -21.3080  -55.4578 C.3       20 UNK         0.1400 
    111 CB        -0.1792  -22.1458  -55.5517 C.3       20 UNK        -0.1800 
    112 C         -1.2867  -20.1439  -54.4697 C.2       20 UNK         0.5000 
    113 O         -1.2088  -18.9919  -54.8980 O.2       20 UNK        -0.5000 
    114 N         -1.2264  -20.4571  -53.1665 N.am      21 UNK        -0.5000 
    115 CA        -0.8735  -19.5175  -52.0981 C.3       21 UNK         0.1400 
    116 CB        -0.6276  -20.2972  -50.7977 C.3       21 UNK        -0.1800 
    117 C         -1.8839  -18.3730  -51.8841 C.2       21 UNK         0.5000 
    118 O         -1.4726  -17.2861  -51.4786 O.2       21 UNK        -0.5000 
    119 N         -3.1660  -18.6172  -52.1848 N.am      22 UNK        -0.5000 
    120 CA        -4.2280  -17.5968  -52.2089 C.3       22 UNK         0.1400 
    121 C         -4.2538  -16.7468  -53.5192 C.2       22 UNK         0.5000 
    122 N         -3.4105  -17.0069  -54.5129 N.am      22 UNK        -0.7600 
    123 O         -5.0425  -15.8143  -53.6406 O.2       22 UNK        -0.5000 
    124 C124       -5.6062  -18.2363  -51.8816 C.3       23 UNK        -0.0398 
    125 S125       -6.8175  -17.0889  -51.1369 S.3       23 UNK        -0.2404 
    126 C126       -6.6482  -17.4534  -49.3604 C.3       23 UNK        -0.0205 
    127 H127        1.5423  -12.1689  -50.9158 H         1 UNK         0.0600 
    128 H128        1.7064  -10.4181  -51.0879 H         1 UNK         0.0600 
    129 H129        0.2271  -11.2239  -51.6199 H         1 UNK         0.0600 
    130 H130       -1.4630  -10.9398  -50.1907 H         1 UNK         0.3000 
    131 H131       -1.3167  -11.5786  -47.4478 H         1 UNK         0.0600 
    132 H132       -3.5482  -10.1244  -48.9535 H         1 UNK         0.0800 
    133 H133       -3.7107  -10.8333  -47.3686 H         1 UNK         0.0800 
    134 H134       -4.9518  -13.1649  -47.2000 H         1 UNK         0.0800 
    135 H135       -3.2492  -13.3540  -46.8464 H         1 UNK         0.0800 
    136 H136       -6.1445  -14.8911  -48.5957 H         1 UNK         0.1150 
    137 H137       -4.2918  -18.7448  -48.8913 H         1 UNK         0.1150 
    138 H138       -2.0480  -15.3952  -47.4339 H         1 UNK         0.1150 
    139 H139       -1.9274  -18.9775  -48.5226 H         1 UNK         0.0800 
    140 H140       -0.9547  -17.5389  -48.4138 H         1 UNK         0.0800 
    141 H141       -3.7596  -18.8318  -45.7615 H         1 UNK         0.0800 
    142 H142       -2.7129  -19.6731  -44.6533 H         1 UNK         0.0800 
    143 H143       -3.3692  -20.4737  -47.5280 H         1 UNK         0.0600 
    144 H144       -0.9996  -21.2104  -46.1508 H         1 UNK         0.3000 
    145 H145       -0.5729  -24.4122  -47.7050 H         1 UNK         0.0600 
    146 H146        1.6408  -23.3465  -48.2252 H         1 UNK         0.0600 
    147 H147        0.3807  -22.8500  -49.3426 H         1 UNK         0.0600 
    148 H148        0.9042  -21.7504  -48.0788 H         1 UNK         0.0600 
    149 H149        0.8296  -22.7809  -45.7473 H         1 UNK         0.3000 
    150 H150       -0.6462  -24.3896  -42.9208 H         1 UNK         0.0600 
    151 H151        1.1000  -26.0081  -43.6765 H         1 UNK         0.0600 
    152 H152        1.7166  -24.9439  -42.4223 H         1 UNK         0.0600 
    153 H153        2.1670  -24.6767  -44.1069 H         1 UNK         0.0600 
    154 H154        1.4680  -22.4731  -43.1922 H         1 UNK         0.3000 
    155 H155       -0.5636  -19.5617  -43.3519 H         1 UNK         0.0600 
    156 H156        1.0702  -20.6192  -40.9877 H         1 UNK         0.0600 
    157 H157       -0.6259  -20.1533  -40.9191 H         1 UNK         0.0600 
    158 H158        0.5982  -18.9427  -41.2665 H         1 UNK         0.0600 
    159 H159        2.1190  -19.4596  -43.0756 H         1 UNK         0.3000 
    160 H160        3.8141  -19.8264  -44.6778 H         1 UNK         0.0600 
    161 H161        2.7757  -19.9775  -47.5604 H         1 UNK         0.0600 
    162 H162        3.5275  -21.3032  -46.6820 H         1 UNK         0.0600 
    163 H163        4.4627  -19.8655  -47.0614 H         1 UNK         0.0600 
    164 H164        2.8389  -17.8068  -46.5282 H         1 UNK         0.3000 
    165 H165        3.4789  -15.5482  -45.7824 H         1 UNK         0.0600 
    166 H166        1.1993  -14.4650  -45.7568 H         1 UNK         0.0600 
    167 H167        1.0945  -16.1129  -46.3506 H         1 UNK         0.0600 
    168 H168        0.5969  -15.7449  -44.7049 H         1 UNK         0.0600 
    169 H169        2.9593  -15.4240  -42.9390 H         1 UNK         0.3000 
    170 H170        2.9675  -13.2906  -41.8278 H         1 UNK         0.0600 
    171 H171        5.0920  -14.6323  -41.7391 H         1 UNK         0.0600 
    172 H172        5.9694  -13.3200  -42.5177 H         1 UNK         0.0600 
    173 H173        5.2975  -13.1024  -40.9025 H         1 UNK         0.0600 
    174 H174        4.1096  -11.2956  -43.5986 H         1 UNK         0.3000 
    175 H175        2.7220   -8.6983  -41.7815 H         1 UNK         0.0600 
    176 H176        5.7737   -8.9878  -41.8564 H         1 UNK         0.0600 
    177 H177        4.8808   -7.4717  -41.7212 H         1 UNK         0.0600 
    178 H178        4.8140   -8.6495  -40.4214 H         1 UNK         0.0600 
    179 H179        4.5711   -8.6582  -43.9699 H         1 UNK         0.3000 
    180 H180        3.6241   -7.9683  -45.9809 H         1 UNK         0.0600 
    181 H181        3.8893   -9.8200  -47.6494 H         1 UNK         0.0600 
    182 H182        3.0638  -10.9281  -46.5548 H         1 UNK         0.0600 
    183 H183        4.6188  -10.2424  -46.1081 H         1 UNK         0.0600 
    184 H184        1.4067   -9.2411  -47.3154 H         1 UNK         0.3000 
    185 H185       -1.0224   -6.8324  -46.7437 H         1 UNK         0.0600 
    186 H186        0.3101   -5.2476  -48.1337 H         1 UNK         0.0600 
    187 H187        0.7563   -6.5522  -49.2265 H         1 UNK         0.0600 
    188 H188       -0.9262   -6.0368  -49.0986 H         1 UNK         0.0600 
    189 H189       -0.4903   -8.6380  -48.9581 H         1 UNK         0.3000 
    190 H190       -2.8914  -22.5235  -44.6807 H         1 UNK         0.3000 
    191 H191       -5.6989  -23.0576  -44.2223 H         1 UNK         0.0600 
    192 H192       -4.8037  -24.6935  -42.5859 H         1 UNK         0.0600 
    193 H193       -3.9828  -23.1516  -42.4152 H         1 UNK         0.0600 
    194 H194       -3.1805  -24.4921  -43.2306 H         1 UNK         0.0600 
    195 H195       -3.8602  -23.9238  -46.8156 H         1 UNK         0.3000 
    196 H196       -4.1083  -25.2481  -48.5195 H         1 UNK         0.0600 
    197 H197       -6.7258  -26.3058  -47.3491 H         1 UNK         0.0600 
    198 H198       -6.5794  -24.7804  -48.2159 H         1 UNK         0.0600 
    199 H199       -6.2384  -26.2949  -49.0361 H         1 UNK         0.0600 
    200 H200       -2.4981  -26.2181  -46.3024 H         1 UNK         0.3000 
    201 H201       -2.6095  -29.0722  -46.1885 H         1 UNK         0.0600 
    202 H202       -0.1780  -27.2111  -46.0314 H         1 UNK         0.0600 
    203 H203       -0.2338  -28.8891  -45.5110 H         1 UNK         0.0600 
    204 H204       -1.1915  -27.6820  -44.6657 H         1 UNK         0.0600 
    205 H205       -2.2431  -30.5305  -47.7422 H         1 UNK         0.3000 
    206 H206       -1.9250  -31.5076  -49.6950 H         1 UNK         0.0600 
    207 H207        0.5024  -31.1603  -49.1471 H         1 UNK         0.0600 
    208 H208        0.2108  -31.2044  -50.8769 H         1 UNK         0.0600 
    209 H209        0.4925  -29.6637  -50.0792 H         1 UNK         0.0600 
    210 H210       -3.6158  -29.0606  -49.5671 H         1 UNK         0.3000 
    211 H211       -4.9384  -27.8103  -50.7791 H         1 UNK         0.0600 
    212 H212       -5.5652  -28.4414  -53.0634 H         1 UNK         0.0600 
    213 H213       -5.3625  -29.8971  -52.1045 H         1 UNK         0.0600 
    214 H214       -4.1148  -29.4137  -53.2532 H         1 UNK         0.0600 
    215 H215       -2.0130  -27.0858  -50.4796 H         1 UNK         0.3000 
    216 H216       -1.1140  -25.6826  -52.7410 H         1 UNK         0.0600 
    217 H217       -0.4302  -25.3154  -49.7865 H         1 UNK         0.0600 
    218 H218        0.5129  -24.6705  -51.1265 H         1 UNK         0.0600 
    219 H219        0.3658  -26.4082  -50.9128 H         1 UNK         0.0600 
    220 H220       -3.6195  -24.7251  -50.6053 H         1 UNK         0.3000 
    221 H221       -3.4989  -21.9110  -50.6753 H         1 UNK         0.0600 
    222 H222       -5.0451  -23.0723  -49.1807 H         1 UNK         0.0600 
    223 H223       -5.9039  -23.8002  -50.5424 H         1 UNK         0.0600 
    224 H224       -5.9842  -22.0653  -50.2591 H         1 UNK         0.0600 
    225 H225       -4.4433  -24.1908  -53.1901 H         1 UNK         0.3000 
    226 H226       -5.8307  -22.4441  -54.9473 H         1 UNK         0.0600 
    227 H227       -4.1254  -24.9278  -55.5266 H         1 UNK         0.0600 
    228 H228       -5.8495  -24.9198  -55.1599 H         1 UNK         0.0600 
    229 H229       -5.2651  -24.1918  -56.6485 H         1 UNK         0.0600 
    230 H230       -2.4100  -22.7356  -54.2228 H         1 UNK         0.3000 
    231 H231       -1.6583  -20.8835  -56.4451 H         1 UNK         0.0600 
    232 H232        0.0744  -22.6138  -54.5998 H         1 UNK         0.0600 
    233 H233        0.6682  -21.5275  -55.8503 H         1 UNK         0.0600 
    234 H234       -0.2816  -22.9372  -56.2944 H         1 UNK         0.0600 
    235 H235       -1.3089  -21.4337  -52.8932 H         1 UNK         0.3000 
    236 H236        0.0728  -19.0541  -52.3851 H         1 UNK         0.0600 
    237 H237        0.0950  -21.0977  -50.9542 H         1 UNK         0.0600 
    238 H238       -0.2196  -19.6458  -50.0247 H         1 UNK         0.0600 
    239 H239       -1.5424  -20.7426  -50.4088 H         1 UNK         0.0600 
    240 H240       -3.4356  -19.5374  -52.5177 H         1 UNK         0.3000 
    241 H241       -4.0050  -16.8855  -51.4118 H         1 UNK         0.0600 
    242 H242       -3.4449  -16.4375  -55.3433 H         1 UNK         0.3800 
    243 H243       -2.7191  -17.7455  -54.4479 H         1 UNK         0.3800 
    244 H244       -5.4765  -19.0665  -51.1865 H         1 UNK         0.0800 
    245 H245       -6.0469  -18.6776  -52.7770 H         1 UNK         0.0800 
    246 H246       -6.7061  -18.5299  -49.1914 H         1 UNK         0.0800 
    247 H247       -7.4972  -17.0187  -48.8309 H         1 UNK         0.0800 
@<TRIPOS>BOND
     1    1    2 1    
     2    1  127 1    
     3    1  128 1    
     4    1  129 1    
     5    2    3 2    
     6    2    4 am   BACKBONE|DICT|INTERRES
     7    4    5 1    
     8    4  130 1    
     9    5    6 1    
    10    5   65 1    
    11    5  131 1    
    12    6    7 1    
    13    6  132 1    
    14    6  133 1    
    15    7    8 1    
    16    8    9 1    
    17    8  134 1    
    18    8  135 1    
    19    9   10 ar   
    20    9   14 ar   
    21   10   11 ar   
    22   10  136 1    
    23   11   12 ar   
    24   11  126 1    
    25   12   13 ar   
    26   12  137 1    
    27   13   14 ar   
    28   13   15 1    
    29   14  138 1    
    30   15   16 1    
    31   15  139 1    
    32   15  140 1    
    33   16   17 1    
    34   17   18 1    
    35   17  141 1    
    36   17  142 1    
    37   18   19 1    
    38   18   67 1    
    39   18  143 1    
    40   19   20 am   BACKBONE|DICT|INTERRES
    41   19  144 1    
    42   20   21 2    
    43   20   22 1    
    44   22   23 1    
    45   22   24 1    
    46   22  145 1    
    47   23  146 1    
    48   23  147 1    
    49   23  148 1    
    50   24   25 am   BACKBONE|DICT|INTERRES
    51   24  149 1    
    52   25   26 2    
    53   25   27 1    
    54   27   28 1    
    55   27   29 1    
    56   27  150 1    
    57   28  151 1    
    58   28  152 1    
    59   28  153 1    
    60   29   30 am   BACKBONE|DICT|INTERRES
    61   29  154 1    
    62   30   31 2    
    63   30   32 1    
    64   32   33 1    
    65   32   34 1    
    66   32  155 1    
    67   33  156 1    
    68   33  157 1    
    69   33  158 1    
    70   34   35 am   BACKBONE|DICT|INTERRES
    71   34  159 1    
    72   35   36 2    
    73   35   37 1    
    74   37   38 1    
    75   37   39 1    
    76   37  160 1    
    77   38  161 1    
    78   38  162 1    
    79   38  163 1    
    80   39   40 am   BACKBONE|DICT|INTERRES
    81   39  164 1    
    82   40   41 2    
    83   40   42 1    
    84   42   43 1    
    85   42   44 1    
    86   42  165 1    
    87   43  166 1    
    88   43  167 1    
    89   43  168 1    
    90   44   45 am   BACKBONE|DICT|INTERRES
    91   44  169 1    
    92   45   46 2    
    93   45   47 1    
    94   47   48 1    
    95   47   49 1    
    96   47  170 1    
    97   48  171 1    
    98   48  172 1    
    99   48  173 1    
   100   49   50 am   BACKBONE|DICT|INTERRES
   101   49  174 1    
   102   50   51 2    
   103   50   52 1    
   104   52   53 1    
   105   52   54 1    
   106   52  175 1    
   107   53  176 1    
   108   53  177 1    
   109   53  178 1    
   110   54   55 am   BACKBONE|DICT|INTERRES
   111   54  179 1    
   112   55   56 2    
   113   55   57 1    
   114   57   58 1    
   115   57   59 1    
   116   57  180 1    
   117   58  181 1    
   118   58  182 1    
   119   58  183 1    
   120   59   60 am   BACKBONE|DICT|INTERRES
   121   59  184 1    
   122   60   61 2    
   123   60   62 1    
   124   62   63 1    
   125   62   64 1    
   126   62  185 1    
   127   63  186 1    
   128   63  187 1    
   129   63  188 1    
   130   64   65 am   BACKBONE|DICT|INTERRES
   131   64  189 1    
   132   65   66 2    
   133   67   68 2    
   134   67   69 am   BACKBONE|DICT|INTERRES
   135   69   70 1    
   136   69  190 1    
   137   70   71 1    
   138   70   72 1    
   139   70  191 1    
   140   71  192 1    
   141   71  193 1    
   142   71  194 1    
   143   72   73 2    
   144   72   74 am   BACKBONE|DICT|INTERRES
   145   74   75 1    
   146   74  195 1    
   147   75   76 1    
   148   75   77 1    
   149   75  196 1    
   150   76  197 1    
   151   76  198 1    
   152   76  199 1    
   153   77   78 2    
   154   77   79 am   BACKBONE|DICT|INTERRES
   155   79   80 1    
   156   79  200 1    
   157   80   81 1    
   158   80   82 1    
   159   80  201 1    
   160   81  202 1    
   161   81  203 1    
   162   81  204 1    
   163   82   83 2    
   164   82   84 am   BACKBONE|DICT|INTERRES
   165   84   85 1    
   166   84  205 1    
   167   85   86 1    
   168   85   87 1    
   169   85  206 1    
   170   86  207 1    
   171   86  208 1    
   172   86  209 1    
   173   87   88 2    
   174   87   89 am   BACKBONE|DICT|INTERRES
   175   89   90 1    
   176   89  210 1    
   177   90   91 1    
   178   90   92 1    
   179   90  211 1    
   180   91  212 1    
   181   91  213 1    
   182   91  214 1    
   183   92   93 2    
   184   92   94 am   BACKBONE|DICT|INTERRES
   185   94   95 1    
   186   94  215 1    
   187   95   96 1    
   188   95   97 1    
   189   95  216 1    
   190   96  217 1    
   191   96  218 1    
   192   96  219 1    
   193   97   98 2    
   194   97   99 am   BACKBONE|DICT|INTERRES
   195   99  100 1    
   196   99  220 1    
   197  100  101 1    
   198  100  102 1    
   199  100  221 1    
   200  101  222 1    
   201  101  223 1    
   202  101  224 1    
   203  102  103 2    
   204  102  104 am   BACKBONE|DICT|INTERRES
   205  104  105 1    
   206  104  225 1    
   207  105  106 1    
   208  105  107 1    
   209  105  226 1    
   210  106  227 1    
   211  106  228 1    
   212  106  229 1    
   213  107  108 2    
   214  107  109 am   BACKBONE|DICT|INTERRES
   215  109  110 1    
   216  109  230 1    
   217  110  111 1    
   218  110  112 1    
   219  110  231 1    
   220  111  232 1    
   221  111  233 1    
   222  111  234 1    
   223  112  113 2    
   224  112  114 am   BACKBONE|DICT|INTERRES
   225  114  115 1    
   226  114  235 1    
   227  115  116 1    
   228  115  117 1    
   229  115  236 1    
   230  116  237 1    
   231  116  238 1    
   232  116  239 1    
   233  117  118 2    
   234  117  119 am   BACKBONE|DICT|INTERRES
   235  119  120 1    
   236  119  240 1    
   237  120  121 1    
   238  120  124 1    
   239  120  241 1    
   240  121  122 am   BACKBONE|DICT|INTERRES
   241  121  123 2    
   242  122  242 1    
   243  122  243 1    
   244  124  125 1    
   245  124  244 1    
   246  124  245 1    
   247  125  126 1    
   248  126  246 1    
   249  126  247 1    
@<TRIPOS>SUBSTRUCTURE
     1 UNK         1 GROUP             0       ****    0 ROOT    
