@<TRIPOS>MOLECULE
3R540
247   249    1
SMALL
USER_CHARGES


@<TRIPOS>ATOM
      1 CA          4.1257  -17.5570  -46.9331 C.3       0 UNK        -0.1800 
      2 C           3.6921  -16.1039  -46.8144 C.2       0 UNK         0.5000 
      3 O           3.6630  -15.5520  -45.7157 O.2       0 UNK        -0.5000 
      4 N           3.3931  -15.4725  -47.9553 N.am      1 UNK        -0.5000 
      5 CA          2.9625  -14.0740  -48.1221 C.3       1 UNK         0.1400 
      6 C6          2.3688  -13.8114  -49.5322 C.3       23 UNK        -0.0398 
      7 S7          3.2947  -14.6020  -50.9004 S.3       23 UNK        -0.2404 
      8 C8          1.9548  -15.2223  -51.9706 C.3       23 UNK        -0.0205 
      9 C9          1.1189  -16.3154  -51.3158 C.ar      23 UNK        -0.0193 
     10 C10        -0.1131  -15.9998  -50.7348 C.ar      23 UNK        -0.1150 
     11 C11        -0.9105  -16.9937  -50.1631 C.ar      23 UNK        -0.0193 
     12 C12        -0.4685  -18.3187  -50.1856 C.ar      23 UNK        -0.1150 
     13 C13         0.7580  -18.6537  -50.7675 C.ar      23 UNK        -0.0193 
     14 C14         1.5513  -17.6457  -51.3260 C.ar      23 UNK        -0.1150 
     15 C15         1.1929  -20.1113  -50.8421 C.3       23 UNK        -0.0205 
     16 S16         2.3966  -20.5750  -49.5522 S.3       23 UNK        -0.2404 
     17 C17         1.4498  -20.3558  -48.0077 C.3       23 UNK        -0.0398 
     18 CA          0.7735  -21.6432  -47.4726 C.3       11 UNK         0.1400 
     19 N           0.4130  -21.5043  -46.0587 N.am      11 UNK        -0.5000 
     20 C          -0.0852  -22.4697  -45.2740 C.2       10 UNK         0.5000 
     21 O          -0.2331  -23.6337  -45.6375 O.2       10 UNK        -0.5000 
     22 CA         -0.5530  -22.0555  -43.8650 C.3       10 UNK         0.1400 
     23 CB          0.6184  -22.0496  -42.8726 C.3       10 UNK        -0.1800 
     24 N          -1.2223  -20.7527  -43.8601 N.am      10 UNK        -0.5000 
     25 C          -2.3734  -20.4969  -44.5002 C.2       9 UNK         0.5000 
     26 O          -3.0273  -21.3541  -45.0938 O.2       9 UNK        -0.5000 
     27 CA         -2.8360  -19.0297  -44.5397 C.3       9 UNK         0.1400 
     28 CB         -3.6258  -18.6560  -43.2764 C.3       9 UNK        -0.1800 
     29 N          -1.7050  -18.1171  -44.7095 N.am      9 UNK        -0.5000 
     30 C          -1.0229  -17.9823  -45.8562 C.2       8 UNK         0.5000 
     31 O          -1.3273  -18.5646  -46.8970 O.2       8 UNK        -0.5000 
     32 CA          0.2386  -17.0977  -45.8155 C.3       8 UNK         0.1400 
     33 CB         -0.1079  -15.6254  -46.0790 C.3       8 UNK        -0.1800 
     34 N           0.9472  -17.2064  -44.5387 N.am      8 UNK        -0.5000 
     35 C           1.6044  -18.3044  -44.1397 C.2       7 UNK         0.5000 
     36 O           1.6959  -19.3182  -44.8272 O.2       7 UNK        -0.5000 
     37 CA          2.2241  -18.3042  -42.7295 C.3       7 UNK         0.1400 
     38 CB          3.6904  -17.8521  -42.7853 C.3       7 UNK        -0.1800 
     39 N           1.4892  -17.4796  -41.7714 N.am      7 UNK        -0.5000 
     40 C           0.2077  -17.6631  -41.4243 C.2       6 UNK         0.5000 
     41 O          -0.4835  -18.5920  -41.8453 O.2       6 UNK        -0.5000 
     42 CA         -0.4282  -16.6036  -40.5012 C.3       6 UNK         0.1400 
     43 CB          0.5993  -15.8711  -39.6097 C.3       6 UNK        -0.1800 
     44 N          -1.2371  -15.6256  -41.2412 N.am      6 UNK        -0.5000 
     45 C          -0.8435  -14.8637  -42.2736 C.2       5 UNK         0.5000 
     46 O           0.2600  -14.9644  -42.8134 O.2       5 UNK        -0.5000 
     47 CA         -1.8356  -13.8107  -42.8168 C.3       5 UNK         0.1400 
     48 CB         -3.0349  -13.5196  -41.8864 C.3       5 UNK        -0.1800 
     49 N          -1.1271  -12.5779  -43.1836 N.am      5 UNK        -0.5000 
     50 C          -0.4329  -11.7843  -42.3553 C.2       4 UNK         0.5000 
     51 O          -0.4263  -11.8947  -41.1270 O.2       4 UNK        -0.5000 
     52 CA          0.4695  -10.7305  -43.0176 C.3       4 UNK         0.1400 
     53 CB          0.3474   -9.3588  -42.3325 C.3       4 UNK        -0.1800 
     54 N           1.8502  -11.1967  -42.9199 N.am      4 UNK        -0.5000 
     55 C           2.4203  -12.0484  -43.7798 C.2       3 UNK         0.5000 
     56 O           1.9000  -12.4011  -44.8417 O.2       3 UNK        -0.5000 
     57 CA          3.7748  -12.6358  -43.3483 C.3       3 UNK         0.1400 
     58 CB          3.5497  -13.9211  -42.5369 C.3       3 UNK        -0.1800 
     59 N           4.5821  -12.9571  -44.5209 N.am      3 UNK        -0.5000 
     60 C           5.4761  -12.1324  -45.0856 C.2       2 UNK         0.5000 
     61 O           5.8143  -11.0533  -44.5972 O.2       2 UNK        -0.5000 
     62 CA          6.0822  -12.5724  -46.4370 C.3       2 UNK         0.1400 
     63 CB          7.4004  -13.3301  -46.2182 C.3       2 UNK        -0.1800 
     64 N           5.1670  -13.4188  -47.2024 N.am      2 UNK        -0.5000 
     65 C           4.0011  -13.0008  -47.7132 C.2       1 UNK         0.5000 
     66 O           3.7108  -11.8079  -47.8210 O.2       1 UNK        -0.5000 
     67 C          -0.4422  -22.0600  -48.3283 C.2       11 UNK         0.5000 
     68 O          -0.3382  -23.0096  -49.1050 O.2       11 UNK        -0.5000 
     69 N          -1.5846  -21.3815  -48.1370 N.am      12 UNK        -0.5000 
     70 CA         -2.8530  -21.7027  -48.7984 C.3       12 UNK         0.1400 
     71 CB         -3.8984  -20.6288  -48.4639 C.3       12 UNK        -0.1800 
     72 C          -3.3804  -23.1024  -48.4286 C.2       12 UNK         0.5000 
     73 O          -3.8522  -23.8266  -49.3066 O.2       12 UNK        -0.5000 
     74 N          -3.2618  -23.4668  -47.1434 N.am      13 UNK        -0.5000 
     75 CA         -3.6201  -24.7820  -46.6126 C.3       13 UNK         0.1400 
     76 CB         -3.6077  -24.7433  -45.0775 C.3       13 UNK        -0.1800 
     77 C          -2.7122  -25.9065  -47.1434 C.2       13 UNK         0.5000 
     78 O          -3.2197  -26.9667  -47.5068 O.2       13 UNK        -0.5000 
     79 N          -1.3987  -25.6509  -47.2262 N.am      14 UNK        -0.5000 
     80 CA         -0.4010  -26.5580  -47.8029 C.3       14 UNK         0.1400 
     81 CB          1.0099  -26.0161  -47.5287 C.3       14 UNK        -0.1800 
     82 C          -0.6108  -26.7932  -49.3106 C.2       14 UNK         0.5000 
     83 O          -0.4056  -27.9092  -49.7885 O.2       14 UNK        -0.5000 
     84 N          -1.0690  -25.7525  -50.0183 N.am      15 UNK        -0.5000 
     85 CA         -1.5072  -25.8045  -51.4140 C.3       15 UNK         0.1400 
     86 CB         -1.4444  -24.3848  -51.9999 C.3       15 UNK        -0.1800 
     87 C          -2.9174  -26.4106  -51.5930 C.2       15 UNK         0.5000 
     88 O          -3.3885  -26.5014  -52.7274 O.2       15 UNK        -0.5000 
     89 N          -3.5845  -26.7827  -50.4876 N.am      16 UNK        -0.5000 
     90 CA         -4.9253  -27.3752  -50.3941 C.3       16 UNK         0.1400 
     91 CB         -4.9175  -28.8013  -50.9820 C.3       16 UNK        -0.1800 
     92 C          -6.0384  -26.4934  -50.9990 C.2       16 UNK         0.5000 
     93 O          -7.0706  -27.0156  -51.4233 O.2       16 UNK        -0.5000 
     94 N          -5.7890  -25.1761  -51.0609 N.am      17 UNK        -0.5000 
     95 CA         -6.5773  -24.1467  -51.7444 C.3       17 UNK         0.1400 
     96 CB         -7.9223  -23.9254  -51.0226 C.3       17 UNK        -0.1800 
     97 C          -6.7474  -24.3811  -53.2658 C.2       17 UNK         0.5000 
     98 O          -7.6378  -23.7839  -53.8725 O.2       17 UNK        -0.5000 
     99 N          -5.8927  -25.2213  -53.8720 N.am      18 UNK        -0.5000 
    100 CA        -5.8809  -25.4887  -55.3137 C.3       18 UNK         0.1400 
    101 CB        -5.1580  -26.8179  -55.5784 C.3       18 UNK        -0.1800 
    102 C         -5.2220  -24.3442  -56.1059 C.2       18 UNK         0.5000 
    103 O         -5.5416  -24.1443  -57.2784 O.2       18 UNK        -0.5000 
    104 N         -4.3342  -23.6041  -55.4373 N.am      19 UNK        -0.5000 
    105 CA        -3.7022  -22.3764  -55.8904 C.3       19 UNK         0.1400 
    106 CB        -2.3967  -22.7051  -56.6334 C.3       19 UNK        -0.1800 
    107 C         -3.4358  -21.5228  -54.6441 C.2       19 UNK         0.5000 
    108 O         -3.2855  -22.0792  -53.5528 O.2       19 UNK        -0.5000 
    109 N         -3.3833  -20.1969  -54.8315 N.am      20 UNK        -0.5000 
    110 CA        -3.1066  -19.1794  -53.8081 C.3       20 UNK         0.1400 
    111 CB        -1.6247  -19.2342  -53.3913 C.3       20 UNK        -0.1800 
    112 C         -4.0758  -19.2404  -52.6057 C.2       20 UNK         0.5000 
    113 O         -3.6586  -19.1291  -51.4523 O.2       20 UNK        -0.5000 
    114 N         -5.3684  -19.4267  -52.9034 N.am      21 UNK        -0.5000 
    115 CA        -6.4597  -19.5026  -51.9329 C.3       21 UNK         0.1400 
    116 CB        -7.6240  -20.2823  -52.5680 C.3       21 UNK        -0.1800 
    117 C         -6.8753  -18.0959  -51.4565 C.2       21 UNK         0.5000 
    118 O         -7.9655  -17.6251  -51.7875 O.2       21 UNK        -0.5000 
    119 N         -5.9681  -17.4329  -50.7317 N.am      22 UNK        -0.5000 
    120 CA        -6.1208  -16.0717  -50.1958 C.3       22 UNK         0.1400 
    121 C         -7.3221  -15.9222  -49.2194 C.2       22 UNK         0.5000 
    122 N         -8.0360  -14.8057  -49.2694 N.am      22 UNK        -0.7600 
    123 O         -7.5822  -16.7879  -48.3865 O.2       22 UNK        -0.5000 
    124 C124       -4.8219  -15.5743  -49.5126 C.3       23 UNK        -0.0398 
    125 S125       -3.3493  -15.6919  -50.5872 S.3       23 UNK        -0.2404 
    126 C126       -2.2367  -16.6425  -49.5026 C.3       23 UNK        -0.0205 
    127 H127        3.7484  -18.1400  -46.0955 H         1 UNK         0.0600 
    128 H128        5.2133  -17.6239  -46.9272 H         1 UNK         0.0600 
    129 H129        3.7572  -18.0101  -47.8539 H         1 UNK         0.0600 
    130 H130        3.4691  -15.9794  -48.8268 H         1 UNK         0.3000 
    131 H131        2.1474  -13.9253  -47.4119 H         1 UNK         0.0600 
    132 H132        2.2717  -12.7460  -49.7479 H         1 UNK         0.0800 
    133 H133        1.3466  -14.1793  -49.5301 H         1 UNK         0.0800 
    134 H134        2.3948  -15.6094  -52.8908 H         1 UNK         0.0800 
    135 H135        1.3208  -14.3864  -52.2707 H         1 UNK         0.0800 
    136 H136       -0.4609  -14.9766  -50.7327 H         1 UNK         0.1150 
    137 H137       -1.0907  -19.0938  -49.7609 H         1 UNK         0.1150 
    138 H138        2.4964  -17.8995  -51.7854 H         1 UNK         0.1150 
    139 H139        0.3250  -20.7698  -50.7917 H         1 UNK         0.0800 
    140 H140        1.6445  -20.2975  -51.8175 H         1 UNK         0.0800 
    141 H141        0.7364  -19.5412  -48.1083 H         1 UNK         0.0800 
    142 H142        2.1775  -20.0076  -47.2751 H         1 UNK         0.0800 
    143 H143        1.5030  -22.4540  -47.5262 H         1 UNK         0.0600 
    144 H144        0.5948  -20.5970  -45.6384 H         1 UNK         0.3000 
    145 H145       -1.2774  -22.7970  -43.5225 H         1 UNK         0.0600 
    146 H146        0.2994  -21.7231  -41.8826 H         1 UNK         0.0600 
    147 H147        1.0382  -23.0507  -42.7670 H         1 UNK         0.0600 
    148 H148        1.4245  -21.3953  -43.2005 H         1 UNK         0.0600 
    149 H149       -0.7721  -20.0005  -43.3509 H         1 UNK         0.3000 
    150 H150       -3.5023  -18.9137  -45.3974 H         1 UNK         0.0600 
    151 H151       -4.5087  -19.2877  -43.1724 H         1 UNK         0.0600 
    152 H152       -3.9690  -17.6221  -43.3173 H         1 UNK         0.0600 
    153 H153       -3.0320  -18.7766  -42.3708 H         1 UNK         0.0600 
    154 H154       -1.3491  -17.6729  -43.8753 H         1 UNK         0.3000 
    155 H155        0.9131  -17.4335  -46.6056 H         1 UNK         0.0600 
    156 H156       -0.9477  -15.2906  -45.4712 H         1 UNK         0.0600 
    157 H157       -0.3711  -15.4692  -47.1244 H         1 UNK         0.0600 
    158 H158        0.7377  -14.9743  -45.8572 H         1 UNK         0.0600 
    159 H159        0.8997  -16.4032  -43.9164 H         1 UNK         0.3000 
    160 H160        2.2021  -19.3297  -42.3577 H         1 UNK         0.0600 
    161 H161        4.2737  -18.5092  -43.4317 H         1 UNK         0.0600 
    162 H162        4.1518  -17.8745  -41.7980 H         1 UNK         0.0600 
    163 H163        3.7871  -16.8418  -43.1815 H         1 UNK         0.0600 
    164 H164        1.9619  -16.6577  -41.4255 H         1 UNK         0.3000 
    165 H165       -1.1108  -17.1430  -39.8429 H         1 UNK         0.0600 
    166 H166        0.0946  -15.2414  -38.8768 H         1 UNK         0.0600 
    167 H167        1.2152  -16.5793  -39.0539 H         1 UNK         0.0600 
    168 H168        1.2660  -15.2280  -40.1853 H         1 UNK         0.0600 
    169 H169       -2.1734  -15.4883  -40.8880 H         1 UNK         0.3000 
    170 H170       -2.2359  -14.2199  -43.7447 H         1 UNK         0.0600 
    171 H171       -3.6676  -14.4003  -41.7708 H         1 UNK         0.0600 
    172 H172       -2.7193  -13.2045  -40.8913 H         1 UNK         0.0600 
    173 H173       -3.6640  -12.7302  -42.2980 H         1 UNK         0.0600 
    174 H174       -0.9992  -12.4391  -44.1762 H         1 UNK         0.3000 
    175 H175        0.1852  -10.6112  -44.0655 H         1 UNK         0.0600 
    176 H176        0.6419   -9.3983  -41.2830 H         1 UNK         0.0600 
    177 H177        0.9742   -8.6164  -42.8269 H         1 UNK         0.0600 
    178 H178       -0.6802   -8.9955  -42.3720 H         1 UNK         0.0600 
    179 H179        2.3222  -10.9913  -42.0511 H         1 UNK         0.3000 
    180 H180        4.2985  -11.9132  -42.7189 H         1 UNK         0.0600 
    181 H181        2.9819  -14.6545  -43.1103 H         1 UNK         0.0600 
    182 H182        2.9874  -13.7163  -41.6252 H         1 UNK         0.0600 
    183 H183        4.4949  -14.3786  -42.2448 H         1 UNK         0.0600 
    184 H184        4.3124  -13.8041  -45.0132 H         1 UNK         0.3000 
    185 H185        6.2927  -11.6737  -47.0204 H         1 UNK         0.0600 
    186 H186        8.1155  -12.7171  -45.6681 H         1 UNK         0.0600 
    187 H187        7.2473  -14.2477  -45.6485 H         1 UNK         0.0600 
    188 H188        7.8646  -13.5969  -47.1678 H         1 UNK         0.0600 
    189 H189        5.3183  -14.4148  -47.1433 H         1 UNK         0.3000 
    190 H190       -1.5895  -20.5954  -47.4967 H         1 UNK         0.3000 
    191 H191       -2.6801  -21.6831  -49.8769 H         1 UNK         0.0600 
    192 H192       -4.1313  -20.6026  -47.3997 H         1 UNK         0.0600 
    193 H193       -4.8296  -20.8138  -49.0001 H         1 UNK         0.0600 
    194 H194       -3.5503  -19.6390  -48.7522 H         1 UNK         0.0600 
    195 H195       -2.9173  -22.7840  -46.4755 H         1 UNK         0.3000 
    196 H196       -4.6402  -25.0015  -46.9349 H         1 UNK         0.0600 
    197 H197       -3.9240  -25.7004  -44.6612 H         1 UNK         0.0600 
    198 H198       -4.2879  -23.9812  -44.6967 H         1 UNK         0.0600 
    199 H199       -2.6135  -24.5288  -44.6866 H         1 UNK         0.0600 
    200 H200       -1.0451  -24.7781  -46.8402 H         1 UNK         0.3000 
    201 H201       -0.4981  -27.5228  -47.3010 H         1 UNK         0.0600 
    202 H202        1.1959  -25.9262  -46.4584 H         1 UNK         0.0600 
    203 H203        1.1583  -25.0336  -47.9775 H         1 UNK         0.0600 
    204 H204        1.7712  -26.6825  -47.9361 H         1 UNK         0.0600 
    205 H205       -1.1416  -24.8505  -49.5582 H         1 UNK         0.3000 
    206 H206       -0.8128  -26.4329  -51.9750 H         1 UNK         0.0600 
    207 H207       -0.4443  -23.9614  -51.9064 H         1 UNK         0.0600 
    208 H208       -1.6982  -24.3838  -53.0606 H         1 UNK         0.0600 
    209 H209       -2.1387  -23.7110  -51.4968 H         1 UNK         0.0600 
    210 H210       -3.1280  -26.6419  -49.5948 H         1 UNK         0.3000 
    211 H211       -5.1527  -27.4563  -49.3309 H         1 UNK         0.0600 
    212 H212       -4.7638  -28.7923  -52.0616 H         1 UNK         0.0600 
    213 H213       -5.8622  -29.3112  -50.7900 H         1 UNK         0.0600 
    214 H214       -4.1283  -29.4063  -50.5355 H         1 UNK         0.0600 
    215 H215       -4.9341  -24.8417  -50.6233 H         1 UNK         0.3000 
    216 H216       -6.0001  -23.2253  -51.6514 H         1 UNK         0.0600 
    217 H217       -8.4551  -23.0676  -51.4336 H         1 UNK         0.0600 
    218 H218       -7.7709  -23.7314  -49.9607 H         1 UNK         0.0600 
    219 H219       -8.5788  -24.7907  -51.1160 H         1 UNK         0.0600 
    220 H220       -5.1708  -25.6775  -53.3230 H         1 UNK         0.3000 
    221 H221       -6.9115  -25.5882  -55.6608 H         1 UNK         0.0600 
    222 H222       -4.1036  -26.7652  -55.3051 H         1 UNK         0.0600 
    223 H223       -5.6106  -27.6336  -55.0142 H         1 UNK         0.0600 
    224 H224       -5.2083  -27.0839  -56.6349 H         1 UNK         0.0600 
    225 H225       -4.1580  -23.8131  -54.4621 H         1 UNK         0.3000 
    226 H226       -4.3817  -21.8350  -56.5521 H         1 UNK         0.0600 
    227 H227       -2.5873  -23.3212  -57.5124 H         1 UNK         0.0600 
    228 H228       -1.9007  -21.7957  -56.9744 H         1 UNK         0.0600 
    229 H229       -1.6961  -23.2428  -55.9931 H         1 UNK         0.0600 
    230 H230       -3.5303  -19.8403  -55.7657 H         1 UNK         0.3000 
    231 H231       -3.2755  -18.2122  -54.2835 H         1 UNK         0.0600 
    232 H232       -0.9658  -19.2429  -54.2593 H         1 UNK         0.0600 
    233 H233       -1.4040  -20.1177  -52.7911 H         1 UNK         0.0600 
    234 H234       -1.3649  -18.3562  -52.8012 H         1 UNK         0.0600 
    235 H235       -5.6301  -19.4895  -53.8759 H         1 UNK         0.3000 
    236 H236       -6.1222  -20.0640  -51.0592 H         1 UNK         0.0600 
    237 H237       -8.4458  -20.4026  -51.8612 H         1 UNK         0.0600 
    238 H238       -8.0182  -19.7768  -53.4505 H         1 UNK         0.0600 
    239 H239       -7.3071  -21.2788  -52.8716 H         1 UNK         0.0600 
    240 H240       -5.0691  -17.8769  -50.5799 H         1 UNK         0.3000 
    241 H241       -6.3105  -15.4260  -51.0555 H         1 UNK         0.0600 
    242 H242       -8.8080  -14.6898  -48.6310 H         1 UNK         0.3800 
    243 H243       -7.8374  -14.0782  -49.9393 H         1 UNK         0.3800 
    244 H244       -4.9287  -14.5294  -49.2160 H         1 UNK         0.0800 
    245 H245       -4.6475  -16.1313  -48.5901 H         1 UNK         0.0800 
    246 H246       -2.7497  -17.5502  -49.1862 H         1 UNK         0.0800 
    247 H247       -2.0427  -16.0670  -48.5985 H         1 UNK         0.0800 
@<TRIPOS>BOND
     1    1    2 1    
     2    1  127 1    
     3    1  128 1    
     4    1  129 1    
     5    2    3 2    
     6    2    4 am   BACKBONE|DICT|INTERRES
     7    4    5 1    
     8    4  130 1    
     9    5    6 1    
    10    5   65 1    
    11    5  131 1    
    12    6    7 1    
    13    6  132 1    
    14    6  133 1    
    15    7    8 1    
    16    8    9 1    
    17    8  134 1    
    18    8  135 1    
    19    9   10 ar   
    20    9   14 ar   
    21   10   11 ar   
    22   10  136 1    
    23   11   12 ar   
    24   11  126 1    
    25   12   13 ar   
    26   12  137 1    
    27   13   14 ar   
    28   13   15 1    
    29   14  138 1    
    30   15   16 1    
    31   15  139 1    
    32   15  140 1    
    33   16   17 1    
    34   17   18 1    
    35   17  141 1    
    36   17  142 1    
    37   18   19 1    
    38   18   67 1    
    39   18  143 1    
    40   19   20 am   BACKBONE|DICT|INTERRES
    41   19  144 1    
    42   20   21 2    
    43   20   22 1    
    44   22   23 1    
    45   22   24 1    
    46   22  145 1    
    47   23  146 1    
    48   23  147 1    
    49   23  148 1    
    50   24   25 am   BACKBONE|DICT|INTERRES
    51   24  149 1    
    52   25   26 2    
    53   25   27 1    
    54   27   28 1    
    55   27   29 1    
    56   27  150 1    
    57   28  151 1    
    58   28  152 1    
    59   28  153 1    
    60   29   30 am   BACKBONE|DICT|INTERRES
    61   29  154 1    
    62   30   31 2    
    63   30   32 1    
    64   32   33 1    
    65   32   34 1    
    66   32  155 1    
    67   33  156 1    
    68   33  157 1    
    69   33  158 1    
    70   34   35 am   BACKBONE|DICT|INTERRES
    71   34  159 1    
    72   35   36 2    
    73   35   37 1    
    74   37   38 1    
    75   37   39 1    
    76   37  160 1    
    77   38  161 1    
    78   38  162 1    
    79   38  163 1    
    80   39   40 am   BACKBONE|DICT|INTERRES
    81   39  164 1    
    82   40   41 2    
    83   40   42 1    
    84   42   43 1    
    85   42   44 1    
    86   42  165 1    
    87   43  166 1    
    88   43  167 1    
    89   43  168 1    
    90   44   45 am   BACKBONE|DICT|INTERRES
    91   44  169 1    
    92   45   46 2    
    93   45   47 1    
    94   47   48 1    
    95   47   49 1    
    96   47  170 1    
    97   48  171 1    
    98   48  172 1    
    99   48  173 1    
   100   49   50 am   BACKBONE|DICT|INTERRES
   101   49  174 1    
   102   50   51 2    
   103   50   52 1    
   104   52   53 1    
   105   52   54 1    
   106   52  175 1    
   107   53  176 1    
   108   53  177 1    
   109   53  178 1    
   110   54   55 am   BACKBONE|DICT|INTERRES
   111   54  179 1    
   112   55   56 2    
   113   55   57 1    
   114   57   58 1    
   115   57   59 1    
   116   57  180 1    
   117   58  181 1    
   118   58  182 1    
   119   58  183 1    
   120   59   60 am   BACKBONE|DICT|INTERRES
   121   59  184 1    
   122   60   61 2    
   123   60   62 1    
   124   62   63 1    
   125   62   64 1    
   126   62  185 1    
   127   63  186 1    
   128   63  187 1    
   129   63  188 1    
   130   64   65 am   BACKBONE|DICT|INTERRES
   131   64  189 1    
   132   65   66 2    
   133   67   68 2    
   134   67   69 am   BACKBONE|DICT|INTERRES
   135   69   70 1    
   136   69  190 1    
   137   70   71 1    
   138   70   72 1    
   139   70  191 1    
   140   71  192 1    
   141   71  193 1    
   142   71  194 1    
   143   72   73 2    
   144   72   74 am   BACKBONE|DICT|INTERRES
   145   74   75 1    
   146   74  195 1    
   147   75   76 1    
   148   75   77 1    
   149   75  196 1    
   150   76  197 1    
   151   76  198 1    
   152   76  199 1    
   153   77   78 2    
   154   77   79 am   BACKBONE|DICT|INTERRES
   155   79   80 1    
   156   79  200 1    
   157   80   81 1    
   158   80   82 1    
   159   80  201 1    
   160   81  202 1    
   161   81  203 1    
   162   81  204 1    
   163   82   83 2    
   164   82   84 am   BACKBONE|DICT|INTERRES
   165   84   85 1    
   166   84  205 1    
   167   85   86 1    
   168   85   87 1    
   169   85  206 1    
   170   86  207 1    
   171   86  208 1    
   172   86  209 1    
   173   87   88 2    
   174   87   89 am   BACKBONE|DICT|INTERRES
   175   89   90 1    
   176   89  210 1    
   177   90   91 1    
   178   90   92 1    
   179   90  211 1    
   180   91  212 1    
   181   91  213 1    
   182   91  214 1    
   183   92   93 2    
   184   92   94 am   BACKBONE|DICT|INTERRES
   185   94   95 1    
   186   94  215 1    
   187   95   96 1    
   188   95   97 1    
   189   95  216 1    
   190   96  217 1    
   191   96  218 1    
   192   96  219 1    
   193   97   98 2    
   194   97   99 am   BACKBONE|DICT|INTERRES
   195   99  100 1    
   196   99  220 1    
   197  100  101 1    
   198  100  102 1    
   199  100  221 1    
   200  101  222 1    
   201  101  223 1    
   202  101  224 1    
   203  102  103 2    
   204  102  104 am   BACKBONE|DICT|INTERRES
   205  104  105 1    
   206  104  225 1    
   207  105  106 1    
   208  105  107 1    
   209  105  226 1    
   210  106  227 1    
   211  106  228 1    
   212  106  229 1    
   213  107  108 2    
   214  107  109 am   BACKBONE|DICT|INTERRES
   215  109  110 1    
   216  109  230 1    
   217  110  111 1    
   218  110  112 1    
   219  110  231 1    
   220  111  232 1    
   221  111  233 1    
   222  111  234 1    
   223  112  113 2    
   224  112  114 am   BACKBONE|DICT|INTERRES
   225  114  115 1    
   226  114  235 1    
   227  115  116 1    
   228  115  117 1    
   229  115  236 1    
   230  116  237 1    
   231  116  238 1    
   232  116  239 1    
   233  117  118 2    
   234  117  119 am   BACKBONE|DICT|INTERRES
   235  119  120 1    
   236  119  240 1    
   237  120  121 1    
   238  120  124 1    
   239  120  241 1    
   240  121  122 am   BACKBONE|DICT|INTERRES
   241  121  123 2    
   242  122  242 1    
   243  122  243 1    
   244  124  125 1    
   245  124  244 1    
   246  124  245 1    
   247  125  126 1    
   248  126  246 1    
   249  126  247 1    
@<TRIPOS>SUBSTRUCTURE
     1 UNK         1 GROUP             0       ****    0 ROOT    
