@<TRIPOS>MOLECULE
3R540
247   249    1
SMALL
USER_CHARGES


@<TRIPOS>ATOM
      1 CA          0.9941  -11.1161  -52.2027 C.3       0 UNK        -0.1800 
      2 C           2.2942  -11.4700  -51.4956 C.2       0 UNK         0.5000 
      3 O           2.8042  -10.6650  -50.7159 O.2       0 UNK        -0.5000 
      4 N           2.8351  -12.6632  -51.7717 N.am      1 UNK        -0.5000 
      5 CA          4.0596  -13.1873  -51.1515 C.3       1 UNK         0.1400 
      6 C6          4.9353  -14.0202  -52.1228 C.3       23 UNK        -0.0398 
      7 S7          4.0543  -15.2718  -53.1192 S.3       23 UNK        -0.2404 
      8 C8          4.7167  -16.8450  -52.4811 C.3       23 UNK        -0.0205 
      9 C9          3.7492  -17.4979  -51.5091 C.ar      23 UNK        -0.0193 
     10 C10         2.5454  -18.0212  -51.9906 C.ar      23 UNK        -0.1150 
     11 C11         1.6294  -18.6080  -51.1175 C.ar      23 UNK        -0.0193 
     12 C12         1.9340  -18.6823  -49.7608 C.ar      23 UNK        -0.1150 
     13 C13         3.1431  -18.1891  -49.2624 C.ar      23 UNK        -0.0193 
     14 C14         4.0484  -17.5900  -50.1448 C.ar      23 UNK        -0.1150 
     15 C15         3.4420  -18.2714  -47.7695 C.3       23 UNK        -0.0205 
     16 S16         4.1924  -19.8619  -47.2721 S.3       23 UNK        -0.2404 
     17 C17         2.9071  -21.0554  -47.7694 C.3       23 UNK        -0.0398 
     18 CA          2.8060  -22.3139  -46.8766 C.3       11 UNK         0.1400 
     19 N           2.2108  -22.0138  -45.5723 N.am      11 UNK        -0.5000 
     20 C           2.1447  -22.8606  -44.5358 C.2       10 UNK         0.5000 
     21 O           2.6510  -23.9829  -44.5309 O.2       10 UNK        -0.5000 
     22 CA          1.3586  -22.3789  -43.3030 C.3       10 UNK         0.1400 
     23 CB          2.2118  -21.4470  -42.4286 C.3       10 UNK        -0.1800 
     24 N           0.1143  -21.7098  -43.6869 N.am      10 UNK        -0.5000 
     25 C          -0.9739  -22.3588  -44.1232 C.2       9 UNK         0.5000 
     26 O          -1.0653  -23.5844  -44.1413 O.2       9 UNK        -0.5000 
     27 CA         -2.1623  -21.5214  -44.6304 C.3       9 UNK         0.1400 
     28 CB         -3.2205  -21.3522  -43.5308 C.3       9 UNK        -0.1800 
     29 N          -1.7827  -20.2060  -45.1414 N.am      9 UNK        -0.5000 
     30 C          -1.1085  -19.9987  -46.2799 C.2       8 UNK         0.5000 
     31 O          -0.7441  -20.8970  -47.0362 O.2       8 UNK        -0.5000 
     32 CA         -0.7167  -18.5442  -46.5911 C.3       8 UNK         0.1400 
     33 CB         -1.9001  -17.7725  -47.1919 C.3       8 UNK        -0.1800 
     34 N          -0.1917  -17.8403  -45.4201 N.am      8 UNK        -0.5000 
     35 C           0.8759  -18.2367  -44.7106 C.2       7 UNK         0.5000 
     36 O           1.5595  -19.2186  -44.9964 O.2       7 UNK        -0.5000 
     37 CA          1.1959  -17.4403  -43.4367 C.3       7 UNK         0.1400 
     38 CB          1.9625  -16.1517  -43.7715 C.3       7 UNK        -0.1800 
     39 N          -0.0219  -17.1258  -42.6891 N.am      7 UNK        -0.5000 
     40 C          -0.7375  -18.0322  -42.0062 C.2       6 UNK         0.5000 
     41 O          -0.4082  -19.2114  -41.8853 O.2       6 UNK        -0.5000 
     42 CA         -2.0617  -17.5493  -41.3855 C.3       6 UNK         0.1400 
     43 CB         -1.8136  -16.9109  -40.0108 C.3       6 UNK        -0.1800 
     44 N          -2.7706  -16.5963  -42.2403 N.am      6 UNK        -0.5000 
     45 C          -3.3009  -16.8954  -43.4350 C.2       5 UNK         0.5000 
     46 O          -3.2949  -18.0262  -43.9192 O.2       5 UNK        -0.5000 
     47 CA         -3.8806  -15.7196  -44.2474 C.3       5 UNK         0.1400 
     48 CB         -5.3603  -15.5022  -43.8998 C.3       5 UNK        -0.1800 
     49 N          -3.1422  -14.4662  -44.0535 N.am      5 UNK        -0.5000 
     50 C          -1.8485  -14.2971  -44.3569 C.2       4 UNK         0.5000 
     51 O          -1.1503  -15.1750  -44.8739 O.2       4 UNK        -0.5000 
     52 CA         -1.2133  -12.9581  -43.9558 C.3       4 UNK         0.1400 
     53 CB         -1.1500  -12.8292  -42.4196 C.3       4 UNK        -0.1800 
     54 N           0.1314  -12.9126  -44.5180 N.am      4 UNK        -0.5000 
     55 C           0.9399  -11.8506  -44.5898 C.2       3 UNK         0.5000 
     56 O           0.6281  -10.7244  -44.2006 O.2       3 UNK        -0.5000 
     57 CA          2.3422  -12.0850  -45.1876 C.3       3 UNK         0.1400 
     58 CB          3.3724  -12.2812  -44.0644 C.3       3 UNK        -0.1800 
     59 N           2.4147  -13.2324  -46.0981 N.am      3 UNK        -0.5000 
     60 C           1.8842  -13.2523  -47.3267 C.2       2 UNK         0.5000 
     61 O           1.2507  -12.3140  -47.8150 O.2       2 UNK        -0.5000 
     62 CA          2.0817  -14.5390  -48.1452 C.3       2 UNK         0.1400 
     63 CB          0.7740  -15.3389  -48.2045 C.3       2 UNK        -0.1800 
     64 N           2.5174  -14.1879  -49.4955 N.am      2 UNK        -0.5000 
     65 C           3.7889  -13.9012  -49.8097 C.2       1 UNK         0.5000 
     66 O           4.7367  -14.1290  -49.0556 O.2       1 UNK        -0.5000 
     67 C           2.0049  -23.4060  -47.6171 C.2       11 UNK         0.5000 
     68 O           2.5467  -24.4717  -47.9140 O.2       11 UNK        -0.5000 
     69 N           0.7334  -23.1122  -47.9164 N.am      12 UNK        -0.5000 
     70 CA         -0.1638  -23.9461  -48.7088 C.3       12 UNK         0.1400 
     71 CB         -0.9268  -23.0506  -49.7036 C.3       12 UNK        -0.1800 
     72 C          -1.1016  -24.7215  -47.7735 C.2       12 UNK         0.5000 
     73 O          -2.3168  -24.5210  -47.8044 O.2       12 UNK        -0.5000 
     74 N          -0.5173  -25.5999  -46.9496 N.am      13 UNK        -0.5000 
     75 CA         -1.2133  -26.4015  -45.9374 C.3       13 UNK         0.1400 
     76 CB         -0.1717  -27.1348  -45.0796 C.3       13 UNK        -0.1800 
     77 C          -2.2504  -27.3895  -46.5050 C.2       13 UNK         0.5000 
     78 O          -3.2076  -27.7246  -45.8070 O.2       13 UNK        -0.5000 
     79 N          -2.0611  -27.8183  -47.7606 N.am      14 UNK        -0.5000 
     80 CA         -3.0018  -28.6656  -48.4956 C.3       14 UNK         0.1400 
     81 CB         -2.3036  -29.2263  -49.7440 C.3       14 UNK        -0.1800 
     82 C          -4.2953  -27.9238  -48.8876 C.2       14 UNK         0.5000 
     83 O          -5.3591  -28.5433  -48.9263 O.2       14 UNK        -0.5000 
     84 N          -4.1809  -26.6186  -49.1684 N.am      15 UNK        -0.5000 
     85 CA         -5.3020  -25.7419  -49.5099 C.3       15 UNK         0.1400 
     86 CB         -4.8183  -24.6909  -50.5209 C.3       15 UNK        -0.1800 
     87 C          -5.8922  -25.0542  -48.2652 C.2       15 UNK         0.5000 
     88 O          -7.0908  -24.7739  -48.2455 O.2       15 UNK        -0.5000 
     89 N          -5.0355  -24.7982  -47.2634 N.am      16 UNK        -0.5000 
     90 CA         -5.2791  -24.0267  -46.0425 C.3       16 UNK         0.1400 
     91 CB         -6.3219  -24.7164  -45.1392 C.3       16 UNK        -0.1800 
     92 C          -5.6178  -22.5615  -46.3798 C.2       16 UNK         0.5000 
     93 O          -6.6461  -22.0437  -45.9409 O.2       16 UNK        -0.5000 
     94 N          -4.7429  -21.9460  -47.1924 N.am      17 UNK        -0.5000 
     95 CA         -4.9160  -20.6514  -47.8584 C.3       17 UNK         0.1400 
     96 CB         -5.0672  -19.4971  -46.8396 C.3       17 UNK        -0.1800 
     97 C          -6.0595  -20.7570  -48.8871 C.2       17 UNK         0.5000 
     98 O          -5.9817  -21.6250  -49.7575 O.2       17 UNK        -0.5000 
     99 N          -7.0922  -19.9104  -48.7602 N.am      18 UNK        -0.5000 
    100 CA        -8.3660  -19.9365  -49.4871 C.3       18 UNK         0.1400 
    101 CB        -9.2340  -21.1088  -48.9777 C.3       18 UNK        -0.1800 
    102 C         -8.2009  -19.9286  -51.0213 C.2       18 UNK         0.5000 
    103 O         -8.0862  -18.8554  -51.6140 O.2       18 UNK        -0.5000 
    104 N         -8.1976  -21.1220  -51.6289 N.am      19 UNK        -0.5000 
    105 CA        -8.0240  -21.3516  -53.0618 C.3       19 UNK         0.1400 
    106 CB        -8.4388  -22.7974  -53.3777 C.3       19 UNK        -0.1800 
    107 C         -6.5941  -21.0810  -53.5716 C.2       19 UNK         0.5000 
    108 O         -6.4203  -20.9026  -54.7782 O.2       19 UNK        -0.5000 
    109 N         -5.5987  -21.0709  -52.6718 N.am      20 UNK        -0.5000 
    110 CA        -4.1993  -20.7799  -52.9848 C.3       20 UNK         0.1400 
    111 CB        -3.3315  -21.0575  -51.7480 C.3       20 UNK        -0.1800 
    112 C         -4.0181  -19.3307  -53.4795 C.2       20 UNK         0.5000 
    113 O         -4.3676  -18.3880  -52.7652 O.2       20 UNK        -0.5000 
    114 N         -3.4800  -19.1790  -54.6956 N.am      21 UNK        -0.5000 
    115 CA        -3.2586  -17.8994  -55.3709 C.3       21 UNK         0.1400 
    116 CB        -3.2944  -18.1336  -56.8921 C.3       21 UNK        -0.1800 
    117 C         -1.9460  -17.2419  -54.9008 C.2       21 UNK         0.5000 
    118 O         -0.9956  -17.1217  -55.6761 O.2       21 UNK        -0.5000 
    119 N         -1.9084  -16.8639  -53.6197 N.am      22 UNK        -0.5000 
    120 CA        -0.7288  -16.3061  -52.9375 C.3       22 UNK         0.1400 
    121 C         -0.4125  -14.8160  -53.2537 C.2       22 UNK         0.5000 
    122 N         -1.2560  -14.0920  -53.9786 N.am      22 UNK        -0.7600 
    123 O          0.6229  -14.3089  -52.8323 O.2       22 UNK        -0.5000 
    124 C124       -0.7883  -16.5357  -51.4065 C.3       23 UNK        -0.0398 
    125 S125       -1.1210  -18.2632  -50.9131 S.3       23 UNK        -0.2404 
    126 C126        0.3027  -19.1523  -51.6240 C.3       23 UNK        -0.0205 
    127 H127        0.9385  -10.0430  -52.3860 H         1 UNK         0.0600 
    128 H128        0.1417  -11.4048  -51.5877 H         1 UNK         0.0600 
    129 H129        0.9152  -11.6242  -53.1638 H         1 UNK         0.0600 
    130 H130        2.3355  -13.3061  -52.3811 H         1 UNK         0.3000 
    131 H131        4.6806  -12.3317  -50.8769 H         1 UNK         0.0600 
    132 H132        5.3960  -13.3361  -52.8365 H         1 UNK         0.0800 
    133 H133        5.7744  -14.4745  -51.5939 H         1 UNK         0.0800 
    134 H134        5.6974  -16.7023  -52.0260 H         1 UNK         0.0800 
    135 H135        4.8743  -17.5202  -53.3234 H         1 UNK         0.0800 
    136 H136        2.3189  -17.9531  -53.0453 H         1 UNK         0.1150 
    137 H137        1.2027  -19.1175  -49.1018 H         1 UNK         0.1150 
    138 H138        4.9784  -17.1880  -49.7681 H         1 UNK         0.1150 
    139 H139        4.1177  -17.4643  -47.4833 H         1 UNK         0.0800 
    140 H140        2.5258  -18.1072  -47.2039 H         1 UNK         0.0800 
    141 H141        3.1081  -21.3191  -48.8101 H         1 UNK         0.0800 
    142 H142        1.9412  -20.5557  -47.7522 H         1 UNK         0.0800 
    143 H143        3.8131  -22.7015  -46.7095 H         1 UNK         0.0600 
    144 H144        1.8225  -21.0815  -45.4581 H         1 UNK         0.3000 
    145 H145        1.1079  -23.2561  -42.7025 H         1 UNK         0.0600 
    146 H146        1.6629  -21.1256  -41.5434 H         1 UNK         0.0600 
    147 H147        3.1130  -21.9563  -42.0855 H         1 UNK         0.0600 
    148 H148        2.5285  -20.5552  -42.9681 H         1 UNK         0.0600 
    149 H149        0.1093  -20.6988  -43.6635 H         1 UNK         0.3000 
    150 H150       -2.6115  -22.0811  -45.4516 H         1 UNK         0.0600 
    151 H151       -3.5418  -22.3196  -43.1427 H         1 UNK         0.0600 
    152 H152       -4.1069  -20.8446  -43.9120 H         1 UNK         0.0600 
    153 H153       -2.8359  -20.7700  -42.6924 H         1 UNK         0.0600 
    154 H154       -2.0913  -19.4021  -44.6016 H         1 UNK         0.3000 
    155 H155        0.0781  -18.5674  -47.3337 H         1 UNK         0.0600 
    156 H156       -2.7168  -17.6724  -46.4810 H         1 UNK         0.0600 
    157 H157       -2.2935  -18.2852  -48.0703 H         1 UNK         0.0600 
    158 H158       -1.6102  -16.7709  -47.5051 H         1 UNK         0.0600 
    159 H159       -0.6780  -16.9939  -45.1376 H         1 UNK         0.3000 
    160 H160        1.8368  -18.0583  -42.8042 H         1 UNK         0.0600 
    161 H161        1.4069  -15.5146  -44.4570 H         1 UNK         0.0600 
    162 H162        2.9171  -16.3838  -44.2454 H         1 UNK         0.0600 
    163 H163        2.1772  -15.5740  -42.8724 H         1 UNK         0.0600 
    164 H164       -0.3890  -16.1918  -42.7887 H         1 UNK         0.3000 
    165 H165       -2.7023  -18.4231  -41.2476 H         1 UNK         0.0600 
    166 H166       -2.7520  -16.6352  -39.5291 H         1 UNK         0.0600 
    167 H167       -1.3000  -17.6059  -39.3452 H         1 UNK         0.0600 
    168 H168       -1.1984  -16.0134  -40.0869 H         1 UNK         0.0600 
    169 H169       -2.8267  -15.6433  -41.9140 H         1 UNK         0.3000 
    170 H170       -3.8169  -15.9822  -45.3046 H         1 UNK         0.0600 
    171 H171       -5.9357  -16.4155  -44.0579 H         1 UNK         0.0600 
    172 H172       -5.4914  -15.2072  -42.8580 H         1 UNK         0.0600 
    173 H173       -5.8033  -14.7285  -44.5271 H         1 UNK         0.0600 
    174 H174       -3.6525  -13.7036  -43.6316 H         1 UNK         0.3000 
    175 H175       -1.8090  -12.1476  -44.3797 H         1 UNK         0.0600 
    176 H176       -0.5529  -13.6262  -41.9746 H         1 UNK         0.0600 
    177 H177       -0.7121  -11.8787  -42.1154 H         1 UNK         0.0600 
    178 H178       -2.1441  -12.8738  -41.9738 H         1 UNK         0.0600 
    179 H179        0.4309  -13.7931  -44.9155 H         1 UNK         0.3000 
    180 H180        2.6148  -11.1867  -45.7458 H         1 UNK         0.0600 
    181 H181        3.1613  -13.1744  -43.4752 H         1 UNK         0.0600 
    182 H182        3.3723  -11.4307  -43.3811 H         1 UNK         0.0600 
    183 H183        4.3820  -12.3728  -44.4654 H         1 UNK         0.0600 
    184 H184        2.9412  -14.0299  -45.7732 H         1 UNK         0.3000 
    185 H185        2.8381  -15.1637  -47.6656 H         1 UNK         0.0600 
    186 H186        0.4216  -15.5697  -47.1990 H         1 UNK         0.0600 
    187 H187       -0.0184  -14.7879  -48.7125 H         1 UNK         0.0600 
    188 H188        0.9126  -16.2863  -48.7214 H         1 UNK         0.0600 
    189 H189        1.7968  -13.9225  -50.1512 H         1 UNK         0.3000 
    190 H190        0.3197  -22.2484  -47.5670 H         1 UNK         0.3000 
    191 H191        0.4039  -24.6763  -49.2890 H         1 UNK         0.0600 
    192 H192       -1.5779  -23.6462  -50.3441 H         1 UNK         0.0600 
    193 H193       -0.2388  -22.5112  -50.3542 H         1 UNK         0.0600 
    194 H194       -1.5503  -22.3137  -49.1958 H         1 UNK         0.0600 
    195 H195        0.4897  -25.6834  -46.9777 H         1 UNK         0.3000 
    196 H196       -1.7663  -25.7176  -45.2933 H         1 UNK         0.0600 
    197 H197       -0.6526  -27.7232  -44.2970 H         1 UNK         0.0600 
    198 H198        0.4976  -26.4281  -44.5876 H         1 UNK         0.0600 
    199 H199        0.4357  -27.8149  -45.6778 H         1 UNK         0.0600 
    200 H200       -1.2368  -27.5106  -48.2549 H         1 UNK         0.3000 
    201 H201       -3.2807  -29.5053  -47.8554 H         1 UNK         0.0600 
    202 H202       -1.4253  -29.8132  -49.4747 H         1 UNK         0.0600 
    203 H203       -1.9834  -28.4315  -50.4189 H         1 UNK         0.0600 
    204 H204       -2.9722  -29.8822  -50.3033 H         1 UNK         0.0600 
    205 H205       -3.2767  -26.1781  -49.0725 H         1 UNK         0.3000 
    206 H206       -6.0957  -26.3238  -49.9833 H         1 UNK         0.0600 
    207 H207       -4.3812  -25.1584  -51.4032 H         1 UNK         0.0600 
    208 H208       -5.6470  -24.0688  -50.8610 H         1 UNK         0.0600 
    209 H209       -4.0701  -24.0292  -50.0834 H         1 UNK         0.0600 
    210 H210       -4.0550  -25.0023  -47.4365 H         1 UNK         0.3000 
    211 H211       -4.3344  -24.0103  -45.4966 H         1 UNK         0.0600 
    212 H212       -7.3125  -24.7316  -45.5941 H         1 UNK         0.0600 
    213 H213       -6.4104  -24.1972  -44.1843 H         1 UNK         0.0600 
    214 H214       -6.0349  -25.7460  -44.9247 H         1 UNK         0.0600 
    215 H215       -3.9651  -22.4966  -47.5309 H         1 UNK         0.3000 
    216 H216       -4.0009  -20.4738  -48.4253 H         1 UNK         0.0600 
    217 H217       -5.0332  -18.5281  -47.3387 H         1 UNK         0.0600 
    218 H218       -4.2576  -19.5113  -46.1129 H         1 UNK         0.0600 
    219 H219       -6.0000  -19.5478  -46.2781 H         1 UNK         0.0600 
    220 H220       -7.0345  -19.2195  -48.0261 H         1 UNK         0.3000 
    221 H221       -8.8868  -19.0124  -49.2317 H         1 UNK         0.0600 
    222 H222       -8.7362  -22.0731  -49.0881 H         1 UNK         0.0600 
    223 H223       -9.4682  -20.9851  -47.9203 H         1 UNK         0.0600 
    224 H224      -10.1827  -21.1595  -49.5136 H         1 UNK         0.0600 
    225 H225       -8.2389  -21.9448  -51.0447 H         1 UNK         0.3000 
    226 H226       -8.6948  -20.6771  -53.5978 H         1 UNK         0.0600 
    227 H227       -8.3573  -23.0041  -54.4456 H         1 UNK         0.0600 
    228 H228       -9.4740  -22.9831  -53.0908 H         1 UNK         0.0600 
    229 H229       -7.8096  -23.5188  -52.8545 H         1 UNK         0.0600 
    230 H230       -5.8238  -21.2252  -51.6935 H         1 UNK         0.3000 
    231 H231       -3.8875  -21.4679  -53.7733 H         1 UNK         0.0600 
    232 H232       -2.2737  -20.9308  -51.9791 H         1 UNK         0.0600 
    233 H233       -3.4650  -22.0781  -51.3918 H         1 UNK         0.0600 
    234 H234       -3.5721  -20.3817  -50.9269 H         1 UNK         0.0600 
    235 H235       -3.2037  -20.0021  -55.2109 H         1 UNK         0.3000 
    236 H236       -4.0744  -17.2164  -55.1241 H         1 UNK         0.0600 
    237 H237       -2.5143  -18.8245  -57.2144 H         1 UNK         0.0600 
    238 H238       -4.2550  -18.5445  -57.2038 H         1 UNK         0.0600 
    239 H239       -3.1514  -17.1985  -57.4351 H         1 UNK         0.0600 
    240 H240       -2.7175  -17.0562  -53.0400 H         1 UNK         0.3000 
    241 H241        0.1398  -16.8488  -53.3110 H         1 UNK         0.0600 
    242 H242       -1.0367  -13.1301  -54.1809 H         1 UNK         0.3800 
    243 H243       -2.1078  -14.4977  -54.3304 H         1 UNK         0.3800 
    244 H244       -1.5648  -15.9113  -50.9617 H         1 UNK         0.0800 
    245 H245        0.1496  -16.2249  -50.9450 H         1 UNK         0.0800 
    246 H246        0.2268  -20.2056  -51.3520 H         1 UNK         0.0800 
    247 H247        0.2497  -19.1165  -52.7128 H         1 UNK         0.0800 
@<TRIPOS>BOND
     1    1    2 1    
     2    1  127 1    
     3    1  128 1    
     4    1  129 1    
     5    2    3 2    
     6    2    4 am   BACKBONE|DICT|INTERRES
     7    4    5 1    
     8    4  130 1    
     9    5    6 1    
    10    5   65 1    
    11    5  131 1    
    12    6    7 1    
    13    6  132 1    
    14    6  133 1    
    15    7    8 1    
    16    8    9 1    
    17    8  134 1    
    18    8  135 1    
    19    9   10 ar   
    20    9   14 ar   
    21   10   11 ar   
    22   10  136 1    
    23   11   12 ar   
    24   11  126 1    
    25   12   13 ar   
    26   12  137 1    
    27   13   14 ar   
    28   13   15 1    
    29   14  138 1    
    30   15   16 1    
    31   15  139 1    
    32   15  140 1    
    33   16   17 1    
    34   17   18 1    
    35   17  141 1    
    36   17  142 1    
    37   18   19 1    
    38   18   67 1    
    39   18  143 1    
    40   19   20 am   BACKBONE|DICT|INTERRES
    41   19  144 1    
    42   20   21 2    
    43   20   22 1    
    44   22   23 1    
    45   22   24 1    
    46   22  145 1    
    47   23  146 1    
    48   23  147 1    
    49   23  148 1    
    50   24   25 am   BACKBONE|DICT|INTERRES
    51   24  149 1    
    52   25   26 2    
    53   25   27 1    
    54   27   28 1    
    55   27   29 1    
    56   27  150 1    
    57   28  151 1    
    58   28  152 1    
    59   28  153 1    
    60   29   30 am   BACKBONE|DICT|INTERRES
    61   29  154 1    
    62   30   31 2    
    63   30   32 1    
    64   32   33 1    
    65   32   34 1    
    66   32  155 1    
    67   33  156 1    
    68   33  157 1    
    69   33  158 1    
    70   34   35 am   BACKBONE|DICT|INTERRES
    71   34  159 1    
    72   35   36 2    
    73   35   37 1    
    74   37   38 1    
    75   37   39 1    
    76   37  160 1    
    77   38  161 1    
    78   38  162 1    
    79   38  163 1    
    80   39   40 am   BACKBONE|DICT|INTERRES
    81   39  164 1    
    82   40   41 2    
    83   40   42 1    
    84   42   43 1    
    85   42   44 1    
    86   42  165 1    
    87   43  166 1    
    88   43  167 1    
    89   43  168 1    
    90   44   45 am   BACKBONE|DICT|INTERRES
    91   44  169 1    
    92   45   46 2    
    93   45   47 1    
    94   47   48 1    
    95   47   49 1    
    96   47  170 1    
    97   48  171 1    
    98   48  172 1    
    99   48  173 1    
   100   49   50 am   BACKBONE|DICT|INTERRES
   101   49  174 1    
   102   50   51 2    
   103   50   52 1    
   104   52   53 1    
   105   52   54 1    
   106   52  175 1    
   107   53  176 1    
   108   53  177 1    
   109   53  178 1    
   110   54   55 am   BACKBONE|DICT|INTERRES
   111   54  179 1    
   112   55   56 2    
   113   55   57 1    
   114   57   58 1    
   115   57   59 1    
   116   57  180 1    
   117   58  181 1    
   118   58  182 1    
   119   58  183 1    
   120   59   60 am   BACKBONE|DICT|INTERRES
   121   59  184 1    
   122   60   61 2    
   123   60   62 1    
   124   62   63 1    
   125   62   64 1    
   126   62  185 1    
   127   63  186 1    
   128   63  187 1    
   129   63  188 1    
   130   64   65 am   BACKBONE|DICT|INTERRES
   131   64  189 1    
   132   65   66 2    
   133   67   68 2    
   134   67   69 am   BACKBONE|DICT|INTERRES
   135   69   70 1    
   136   69  190 1    
   137   70   71 1    
   138   70   72 1    
   139   70  191 1    
   140   71  192 1    
   141   71  193 1    
   142   71  194 1    
   143   72   73 2    
   144   72   74 am   BACKBONE|DICT|INTERRES
   145   74   75 1    
   146   74  195 1    
   147   75   76 1    
   148   75   77 1    
   149   75  196 1    
   150   76  197 1    
   151   76  198 1    
   152   76  199 1    
   153   77   78 2    
   154   77   79 am   BACKBONE|DICT|INTERRES
   155   79   80 1    
   156   79  200 1    
   157   80   81 1    
   158   80   82 1    
   159   80  201 1    
   160   81  202 1    
   161   81  203 1    
   162   81  204 1    
   163   82   83 2    
   164   82   84 am   BACKBONE|DICT|INTERRES
   165   84   85 1    
   166   84  205 1    
   167   85   86 1    
   168   85   87 1    
   169   85  206 1    
   170   86  207 1    
   171   86  208 1    
   172   86  209 1    
   173   87   88 2    
   174   87   89 am   BACKBONE|DICT|INTERRES
   175   89   90 1    
   176   89  210 1    
   177   90   91 1    
   178   90   92 1    
   179   90  211 1    
   180   91  212 1    
   181   91  213 1    
   182   91  214 1    
   183   92   93 2    
   184   92   94 am   BACKBONE|DICT|INTERRES
   185   94   95 1    
   186   94  215 1    
   187   95   96 1    
   188   95   97 1    
   189   95  216 1    
   190   96  217 1    
   191   96  218 1    
   192   96  219 1    
   193   97   98 2    
   194   97   99 am   BACKBONE|DICT|INTERRES
   195   99  100 1    
   196   99  220 1    
   197  100  101 1    
   198  100  102 1    
   199  100  221 1    
   200  101  222 1    
   201  101  223 1    
   202  101  224 1    
   203  102  103 2    
   204  102  104 am   BACKBONE|DICT|INTERRES
   205  104  105 1    
   206  104  225 1    
   207  105  106 1    
   208  105  107 1    
   209  105  226 1    
   210  106  227 1    
   211  106  228 1    
   212  106  229 1    
   213  107  108 2    
   214  107  109 am   BACKBONE|DICT|INTERRES
   215  109  110 1    
   216  109  230 1    
   217  110  111 1    
   218  110  112 1    
   219  110  231 1    
   220  111  232 1    
   221  111  233 1    
   222  111  234 1    
   223  112  113 2    
   224  112  114 am   BACKBONE|DICT|INTERRES
   225  114  115 1    
   226  114  235 1    
   227  115  116 1    
   228  115  117 1    
   229  115  236 1    
   230  116  237 1    
   231  116  238 1    
   232  116  239 1    
   233  117  118 2    
   234  117  119 am   BACKBONE|DICT|INTERRES
   235  119  120 1    
   236  119  240 1    
   237  120  121 1    
   238  120  124 1    
   239  120  241 1    
   240  121  122 am   BACKBONE|DICT|INTERRES
   241  121  123 2    
   242  122  242 1    
   243  122  243 1    
   244  124  125 1    
   245  124  244 1    
   246  124  245 1    
   247  125  126 1    
   248  126  246 1    
   249  126  247 1    
@<TRIPOS>SUBSTRUCTURE
     1 UNK         1 GROUP             0       ****    0 ROOT    
