@<TRIPOS>MOLECULE
3R540
247   249    1
SMALL
USER_CHARGES


@<TRIPOS>ATOM
      1 CA         -0.5240  -12.3240  -53.5359 C.3       0 UNK        -0.1800 
      2 C          -0.1498  -12.3784  -52.0626 C.2       0 UNK         0.5000 
      3 O           0.1022  -11.3392  -51.4513 O.2       0 UNK        -0.5000 
      4 N          -0.1134  -13.5872  -51.4892 N.am      1 UNK        -0.5000 
      5 CA          0.2442  -13.8671  -50.0930 C.3       1 UNK         0.1400 
      6 C6          0.7474  -15.3206  -49.9134 C.3       23 UNK        -0.0398 
      7 S7          2.2189  -15.6603  -50.9395 S.3       23 UNK        -0.2404 
      8 C8          1.6449  -17.0648  -51.9611 C.3       23 UNK        -0.0205 
      9 C9          1.5850  -18.4257  -51.2612 C.ar      23 UNK        -0.0193 
     10 C10         1.0551  -19.5095  -51.9677 C.ar      23 UNK        -0.1150 
     11 C11         0.9945  -20.7839  -51.3950 C.ar      23 UNK        -0.0193 
     12 C12         1.4618  -20.9736  -50.0925 C.ar      23 UNK        -0.1150 
     13 C13         2.0086  -19.9064  -49.3761 C.ar      23 UNK        -0.0193 
     14 C14         2.0670  -18.6403  -49.9632 C.ar      23 UNK        -0.1150 
     15 C15         2.5283  -20.1056  -47.9629 C.3       23 UNK        -0.0205 
     16 S16         4.0521  -21.0984  -47.9064 S.3       23 UNK        -0.2404 
     17 C17         3.4192  -22.7332  -47.3992 C.3       23 UNK        -0.0398 
     18 CA          4.1460  -23.2903  -46.1492 C.3       11 UNK         0.1400 
     19 N           3.9971  -22.4236  -44.9702 N.am      11 UNK        -0.5000 
     20 C           4.8069  -22.4655  -43.9018 C.2       10 UNK         0.5000 
     21 O           5.7834  -23.2107  -43.8137 O.2       10 UNK        -0.5000 
     22 CA          4.4545  -21.5432  -42.7221 C.3       10 UNK         0.1400 
     23 CB          4.9885  -20.1206  -42.9527 C.3       10 UNK        -0.1800 
     24 N           3.0121  -21.5017  -42.4802 N.am      10 UNK        -0.5000 
     25 C           2.3335  -22.4522  -41.8211 C.2       9 UNK         0.5000 
     26 O           2.8648  -23.4444  -41.3221 O.2       9 UNK        -0.5000 
     27 CA          0.8055  -22.2830  -41.7001 C.3       9 UNK         0.1400 
     28 CB          0.4509  -21.5576  -40.3934 C.3       9 UNK        -0.1800 
     29 N           0.1979  -21.5652  -42.8194 N.am      9 UNK        -0.5000 
     30 C           0.1843  -21.9898  -44.0899 C.2       8 UNK         0.5000 
     31 O           0.6587  -23.0601  -44.4675 O.2       8 UNK        -0.5000 
     32 CA         -0.4047  -21.0236  -45.1277 C.3       8 UNK         0.1400 
     33 CB         -1.9287  -21.1547  -45.1588 C.3       8 UNK        -0.1800 
     34 N          -0.0359  -19.6234  -44.9016 N.am      8 UNK        -0.5000 
     35 C           1.2172  -19.1569  -44.8005 C.2       7 UNK         0.5000 
     36 O           2.2176  -19.8719  -44.8516 O.2       7 UNK        -0.5000 
     37 CA          1.3757  -17.6482  -44.5633 C.3       7 UNK         0.1400 
     38 CB          1.1599  -16.8509  -45.8604 C.3       7 UNK        -0.1800 
     39 N           0.4521  -17.1878  -43.5286 N.am      7 UNK        -0.5000 
     40 C           0.6542  -17.3673  -42.2153 C.2       6 UNK         0.5000 
     41 O           1.6905  -17.8332  -41.7408 O.2       6 UNK        -0.5000 
     42 CA         -0.5045  -16.9944  -41.2714 C.3       6 UNK         0.1400 
     43 CB         -0.3785  -15.5384  -40.8003 C.3       6 UNK        -0.1800 
     44 N          -1.8206  -17.1998  -41.8786 N.am      6 UNK        -0.5000 
     45 C          -2.3445  -18.4064  -42.1413 C.2       5 UNK         0.5000 
     46 O          -1.7753  -19.4676  -41.8837 O.2       5 UNK        -0.5000 
     47 CA         -3.7133  -18.4369  -42.8511 C.3       5 UNK         0.1400 
     48 CB         -4.8533  -18.4375  -41.8228 C.3       5 UNK        -0.1800 
     49 N          -3.9224  -17.3404  -43.7991 N.am      5 UNK        -0.5000 
     50 C          -3.1324  -17.0551  -44.8431 C.2       4 UNK         0.5000 
     51 O          -2.1081  -17.6849  -45.1065 O.2       4 UNK        -0.5000 
     52 CA         -3.5230  -15.8558  -45.7274 C.3       4 UNK         0.1400 
     53 CB         -4.9326  -15.2910  -45.4431 C.3       4 UNK        -0.1800 
     54 N          -2.5295  -14.7850  -45.6780 N.am      4 UNK        -0.5000 
     55 C          -2.1207  -14.1019  -44.5971 C.2       3 UNK         0.5000 
     56 O          -2.4230  -14.4022  -43.4410 O.2       3 UNK        -0.5000 
     57 CA         -1.2552  -12.8460  -44.8485 C.3       3 UNK         0.1400 
     58 CB          0.2131  -13.1016  -44.4804 C.3       3 UNK        -0.1800 
     59 N          -1.3206  -12.3586  -46.2303 N.am      3 UNK        -0.5000 
     60 C          -2.4151  -11.8547  -46.8185 C.2       2 UNK         0.5000 
     61 O          -3.4570  -11.6064  -46.2107 O.2       2 UNK        -0.5000 
     62 CA         -2.3609  -11.6146  -48.3414 C.3       2 UNK         0.1400 
     63 CB         -2.3745  -10.1094  -48.6505 C.3       2 UNK        -0.1800 
     64 N          -1.2234  -12.2211  -49.0419 N.am      2 UNK        -0.5000 
     65 C          -0.9324  -13.5242  -49.1512 C.2       1 UNK         0.5000 
     66 O          -1.5589  -14.4196  -48.5791 O.2       1 UNK        -0.5000 
     67 C           3.6750  -24.7368  -45.8810 C.2       11 UNK         0.5000 
     68 O           4.0817  -25.6419  -46.6104 O.2       11 UNK        -0.5000 
     69 N           2.8026  -24.9150  -44.8766 N.am      12 UNK        -0.5000 
     70 CA          2.0112  -26.1144  -44.5803 C.3       12 UNK         0.1400 
     71 CB          2.9092  -27.3067  -44.1896 C.3       12 UNK        -0.1800 
     72 C           1.0226  -26.4286  -45.7245 C.2       12 UNK         0.5000 
     73 O           0.8550  -27.5871  -46.1109 O.2       12 UNK        -0.5000 
     74 N           0.4096  -25.3681  -46.2657 N.am      13 UNK        -0.5000 
     75 CA         -0.5416  -25.4204  -47.3715 C.3       13 UNK         0.1400 
     76 CB         -0.5751  -24.0472  -48.0609 C.3       13 UNK        -0.1800 
     77 C          -1.9446  -25.8166  -46.8823 C.2       13 UNK         0.5000 
     78 O          -2.3386  -25.4452  -45.7739 O.2       13 UNK        -0.5000 
     79 N          -2.6812  -26.5450  -47.7315 N.am      14 UNK        -0.5000 
     80 CA         -4.0752  -26.9261  -47.4897 C.3       14 UNK         0.1400 
     81 CB         -4.4414  -28.1135  -48.3937 C.3       14 UNK        -0.1800 
     82 C          -5.0451  -25.7511  -47.7163 C.2       14 UNK         0.5000 
     83 O          -6.0393  -25.6331  -46.9988 O.2       14 UNK        -0.5000 
     84 N          -4.7288  -24.8997  -48.7004 N.am      15 UNK        -0.5000 
     85 CA         -5.4108  -23.6347  -48.9580 C.3       15 UNK         0.1400 
     86 CB         -5.2209  -23.2602  -50.4355 C.3       15 UNK        -0.1800 
     87 C          -4.8272  -22.5359  -48.0578 C.2       15 UNK         0.5000 
     88 O          -3.6339  -22.5700  -47.7495 O.2       15 UNK        -0.5000 
     89 N          -5.6533  -21.5467  -47.6973 N.am      16 UNK        -0.5000 
     90 CA         -5.2823  -20.3935  -46.8707 C.3       16 UNK         0.1400 
     91 CB         -6.5536  -19.8119  -46.2257 C.3       16 UNK        -0.1800 
     92 C          -4.4708  -19.3331  -47.6518 C.2       16 UNK         0.5000 
     93 O          -4.8358  -18.1578  -47.6412 O.2       16 UNK        -0.5000 
     94 N          -3.3952  -19.7808  -48.3160 N.am      17 UNK        -0.5000 
     95 CA         -2.4623  -19.0296  -49.1602 C.3       17 UNK         0.1400 
     96 CB         -1.4400  -18.2711  -48.2897 C.3       17 UNK        -0.1800 
     97 C          -3.1829  -18.1625  -50.2189 C.2       17 UNK         0.5000 
     98 O          -4.0759  -18.6771  -50.8938 O.2       17 UNK        -0.5000 
     99 N          -2.7871  -16.8862  -50.3427 N.am      18 UNK        -0.5000 
    100 CA        -3.2949  -15.8737  -51.2761 C.3       18 UNK         0.1400 
    101 CB        -4.7874  -15.5901  -51.0054 C.3       18 UNK        -0.1800 
    102 C         -3.0318  -16.1904  -52.7653 C.2       18 UNK         0.5000 
    103 O         -2.5375  -17.2655  -53.1181 O.2       18 UNK        -0.5000 
    104 N         -3.3472  -15.2150  -53.6263 N.am      19 UNK        -0.5000 
    105 CA        -3.3289  -15.3623  -55.0813 C.3       19 UNK         0.1400 
    106 CB        -3.3860  -13.9709  -55.7304 C.3       19 UNK        -0.1800 
    107 C         -4.5171  -16.2174  -55.5555 C.2       19 UNK         0.5000 
    108 O         -5.5925  -16.1492  -54.9550 O.2       19 UNK        -0.5000 
    109 N         -4.3008  -16.9967  -56.6237 N.am      20 UNK        -0.5000 
    110 CA        -5.2377  -17.8989  -57.3144 C.3       20 UNK         0.1400 
    111 CB        -6.4464  -17.1302  -57.8818 C.3       20 UNK        -0.1800 
    112 C         -5.6933  -19.1207  -56.4893 C.2       20 UNK         0.5000 
    113 O         -5.7375  -20.2272  -57.0278 O.2       20 UNK        -0.5000 
    114 N         -5.9991  -18.9143  -55.2029 N.am      21 UNK        -0.5000 
    115 CA        -6.3458  -19.9519  -54.2303 C.3       21 UNK         0.1400 
    116 CB        -6.9220  -19.2844  -52.9727 C.3       21 UNK        -0.1800 
    117 C         -5.1529  -20.8587  -53.8698 C.2       21 UNK         0.5000 
    118 O         -5.3598  -22.0252  -53.5358 O.2       21 UNK        -0.5000 
    119 N         -3.9353  -20.3174  -53.9743 N.am      22 UNK        -0.5000 
    120 CA        -2.6678  -21.0264  -53.7869 C.3       22 UNK         0.1400 
    121 C         -1.6058  -20.4735  -54.7696 C.2       22 UNK         0.5000 
    122 N         -1.3923  -19.1629  -54.8252 N.am      22 UNK        -0.7600 
    123 O         -0.9869  -21.2327  -55.5094 O.2       22 UNK        -0.5000 
    124 C124       -2.1950  -20.9809  -52.3112 C.3       23 UNK        -0.0398 
    125 S125       -1.2304  -22.4353  -51.7828 S.3       23 UNK        -0.2404 
    126 C126        0.4784  -21.9657  -52.2034 C.3       23 UNK        -0.0205 
    127 H127        0.2290  -11.7683  -54.0947 H         1 UNK         0.0600 
    128 H128       -1.4832  -11.8217  -53.6605 H         1 UNK         0.0600 
    129 H129       -0.5985  -13.3217  -53.9690 H         1 UNK         0.0600 
    130 H130       -0.3056  -14.3983  -52.0569 H         1 UNK         0.3000 
    131 H131        1.0693  -13.2078  -49.8135 H         1 UNK         0.0600 
    132 H132        1.0134  -15.5104  -48.8719 H         1 UNK         0.0800 
    133 H133       -0.0393  -16.0309  -50.1649 H         1 UNK         0.0800 
    134 H134        2.3226  -17.1546  -52.8111 H         1 UNK         0.0800 
    135 H135        0.6644  -16.8278  -52.3774 H         1 UNK         0.0800 
    136 H136        0.7034  -19.3627  -52.9789 H         1 UNK         0.1150 
    137 H137        1.4214  -21.9562  -49.6458 H         1 UNK         0.1150 
    138 H138        2.4991  -17.8298  -49.3964 H         1 UNK         0.1150 
    139 H139        2.7518  -19.1438  -47.5032 H         1 UNK         0.0800 
    140 H140        1.7438  -20.5543  -47.3584 H         1 UNK         0.0800 
    141 H141        2.3444  -22.6888  -47.2192 H         1 UNK         0.0800 
    142 H142        3.5527  -23.4041  -48.2500 H         1 UNK         0.0800 
    143 H143        5.2101  -23.3488  -46.3888 H         1 UNK         0.0600 
    144 H144        3.2509  -21.7373  -44.9897 H         1 UNK         0.3000 
    145 H145        4.9457  -21.9378  -41.8299 H         1 UNK         0.0600 
    146 H146        4.7233  -19.4603  -42.1268 H         1 UNK         0.0600 
    147 H147        4.6008  -19.6801  -43.8710 H         1 UNK         0.0600 
    148 H148        6.0762  -20.1248  -43.0305 H         1 UNK         0.0600 
    149 H149        2.5027  -20.7444  -42.9188 H         1 UNK         0.3000 
    150 H150        0.3663  -23.2822  -41.6685 H         1 UNK         0.0600 
    151 H151        0.8804  -22.0685  -39.5307 H         1 UNK         0.0600 
    152 H152       -0.6284  -21.5202  -40.2443 H         1 UNK         0.0600 
    153 H153        0.8242  -20.5324  -40.3905 H         1 UNK         0.0600 
    154 H154       -0.2634  -20.6889  -42.5977 H         1 UNK         0.3000 
    155 H155       -0.0217  -21.3093  -46.1077 H         1 UNK         0.0600 
    156 H156       -2.2274  -22.1541  -45.4776 H         1 UNK         0.0600 
    157 H157       -2.3610  -20.4397  -45.8542 H         1 UNK         0.0600 
    158 H158       -2.3676  -20.9829  -44.1773 H         1 UNK         0.0600 
    159 H159       -0.8010  -18.9525  -44.8771 H         1 UNK         0.3000 
    160 H160        2.4020  -17.4731  -44.2329 H         1 UNK         0.0600 
    161 H161        0.1192  -16.8554  -46.1821 H         1 UNK         0.0600 
    162 H162        1.7560  -17.2534  -46.6784 H         1 UNK         0.0600 
    163 H163        1.4670  -15.8155  -45.7318 H         1 UNK         0.0600 
    164 H164       -0.4564  -16.8714  -43.8410 H         1 UNK         0.3000 
    165 H165       -0.4325  -17.6397  -40.3932 H         1 UNK         0.0600 
    166 H166       -1.1579  -15.2879  -40.0806 H         1 UNK         0.0600 
    167 H167        0.5820  -15.3679  -40.3123 H         1 UNK         0.0600 
    168 H168       -0.4527  -14.8378  -41.6313 H         1 UNK         0.0600 
    169 H169       -2.3267  -16.3713  -42.1664 H         1 UNK         0.3000 
    170 H170       -3.7731  -19.3668  -43.4169 H         1 UNK         0.0600 
    171 H171       -4.8780  -17.5103  -41.2489 H         1 UNK         0.0600 
    172 H172       -5.8222  -18.5597  -42.3074 H         1 UNK         0.0600 
    173 H173       -4.7401  -19.2596  -41.1147 H         1 UNK         0.0600 
    174 H174       -4.7260  -16.7517  -43.6363 H         1 UNK         0.3000 
    175 H175       -3.5169  -16.2071  -46.7571 H         1 UNK         0.0600 
    176 H176       -5.0189  -14.8742  -44.4390 H         1 UNK         0.0600 
    177 H177       -5.1781  -14.4968  -46.1484 H         1 UNK         0.0600 
    178 H178       -5.6949  -16.0632  -45.5562 H         1 UNK         0.0600 
    179 H179       -2.1720  -14.4976  -46.5825 H         1 UNK         0.3000 
    180 H180       -1.6375  -12.0604  -44.1936 H         1 UNK         0.0600 
    181 H181        0.7906  -12.1775  -44.5100 H         1 UNK         0.0600 
    182 H182        0.6791  -13.8061  -45.1662 H         1 UNK         0.0600 
    183 H183        0.3062  -13.5080  -43.4731 H         1 UNK         0.0600 
    184 H184       -0.5070  -12.5155  -46.8057 H         1 UNK         0.3000 
    185 H185       -3.2680  -12.0556  -48.7595 H         1 UNK         0.0600 
    186 H186       -2.4384   -9.9274  -49.7237 H         1 UNK         0.0600 
    187 H187       -3.2326   -9.6193  -48.1885 H         1 UNK         0.0600 
    188 H188       -1.4750   -9.6166  -48.2795 H         1 UNK         0.0600 
    189 H189       -0.6738  -11.5885  -49.6153 H         1 UNK         0.3000 
    190 H190        2.4904  -24.0810  -44.3936 H         1 UNK         0.3000 
    191 H191        1.4004  -25.8659  -43.7110 H         1 UNK         0.0600 
    192 H192        2.3083  -28.1422  -43.8292 H         1 UNK         0.0600 
    193 H193        3.5988  -27.0342  -43.3906 H         1 UNK         0.0600 
    194 H194        3.4975  -27.6704  -45.0321 H         1 UNK         0.0600 
    195 H195        0.5275  -24.4703  -45.8066 H         1 UNK         0.3000 
    196 H196       -0.1965  -26.1606  -48.0967 H         1 UNK         0.0600 
    197 H197       -1.2716  -24.0445  -48.9004 H         1 UNK         0.0600 
    198 H198        0.4053  -23.7800  -48.4532 H         1 UNK         0.0600 
    199 H199       -0.8912  -23.2605  -47.3755 H         1 UNK         0.0600 
    200 H200       -2.2819  -26.8270  -48.6151 H         1 UNK         0.3000 
    201 H201       -4.1763  -27.2480  -46.4508 H         1 UNK         0.0600 
    202 H202       -3.7991  -28.9720  -48.1962 H         1 UNK         0.0600 
    203 H203       -4.3498  -27.8609  -49.4508 H         1 UNK         0.0600 
    204 H204       -5.4702  -28.4320  -48.2205 H         1 UNK         0.0600 
    205 H205       -3.8629  -25.0451  -49.1964 H         1 UNK         0.3000 
    206 H206       -6.4784  -23.7415  -48.7542 H         1 UNK         0.0600 
    207 H207       -5.6433  -24.0192  -51.0941 H         1 UNK         0.0600 
    208 H208       -5.7168  -22.3170  -50.6690 H         1 UNK         0.0600 
    209 H209       -4.1669  -23.1453  -50.6918 H         1 UNK         0.0600 
    210 H210       -6.6065  -21.5628  -48.0301 H         1 UNK         0.3000 
    211 H211       -4.6489  -20.7471  -46.0562 H         1 UNK         0.0600 
    212 H212       -7.2453  -19.4264  -46.9758 H         1 UNK         0.0600 
    213 H213       -6.3090  -18.9914  -45.5495 H         1 UNK         0.0600 
    214 H214       -7.0790  -20.5656  -45.6390 H         1 UNK         0.0600 
    215 H215       -3.2239  -20.7809  -48.2587 H         1 UNK         0.3000 
    216 H216       -1.9020  -19.7828  -49.7141 H         1 UNK         0.0600 
    217 H217       -0.6104  -17.9020  -48.8909 H         1 UNK         0.0600 
    218 H218       -1.0084  -18.9265  -47.5338 H         1 UNK         0.0600 
    219 H219       -1.8863  -17.4222  -47.7758 H         1 UNK         0.0600 
    220 H220       -2.0829  -16.5538  -49.6999 H         1 UNK         0.3000 
    221 H221       -2.7419  -14.9617  -51.0538 H         1 UNK         0.0600 
    222 H222       -5.4210  -16.4245  -51.3075 H         1 UNK         0.0600 
    223 H223       -4.9651  -15.4030  -49.9460 H         1 UNK         0.0600 
    224 H224       -5.1315  -14.7098  -51.5486 H         1 UNK         0.0600 
    225 H225       -3.7821  -14.3749  -53.2750 H         1 UNK         0.3000 
    226 H226       -2.3960  -15.8484  -55.3753 H         1 UNK         0.0600 
    227 H227       -2.5301  -13.3621  -55.4431 H         1 UNK         0.0600 
    228 H228       -3.3753  -14.0466  -56.8185 H         1 UNK         0.0600 
    229 H229       -4.2915  -13.4315  -55.4491 H         1 UNK         0.0600 
    230 H230       -3.3712  -16.9887  -57.0205 H         1 UNK         0.3000 
    231 H231       -4.6812  -18.2952  -58.1654 H         1 UNK         0.0600 
    232 H232       -7.0726  -17.7858  -58.4882 H         1 UNK         0.0600 
    233 H233       -6.1256  -16.3065  -58.5196 H         1 UNK         0.0600 
    234 H234       -7.0775  -16.7186  -57.0939 H         1 UNK         0.0600 
    235 H235       -5.9553  -17.9559  -54.8645 H         1 UNK         0.3000 
    236 H236       -7.1204  -20.5850  -54.6679 H         1 UNK         0.0600 
    237 H237       -6.2116  -18.5855  -52.5302 H         1 UNK         0.0600 
    238 H238       -7.8341  -18.7334  -53.2019 H         1 UNK         0.0600 
    239 H239       -7.1703  -20.0263  -52.2125 H         1 UNK         0.0600 
    240 H240       -3.8567  -19.3539  -54.2652 H         1 UNK         0.3000 
    241 H241       -2.8306  -22.0704  -54.0632 H         1 UNK         0.0600 
    242 H242       -0.7100  -18.8135  -55.4782 H         1 UNK         0.3800 
    243 H243       -1.8393  -18.5140  -54.1775 H         1 UNK         0.3800 
    244 H244       -3.0682  -20.9762  -51.6585 H         1 UNK         0.0800 
    245 H245       -1.6636  -20.0559  -52.0890 H         1 UNK         0.0800 
    246 H246        1.1241  -22.8266  -52.0242 H         1 UNK         0.0800 
    247 H247        0.5522  -21.7611  -53.2715 H         1 UNK         0.0800 
@<TRIPOS>BOND
     1    1    2 1    
     2    1  127 1    
     3    1  128 1    
     4    1  129 1    
     5    2    3 2    
     6    2    4 am   BACKBONE|DICT|INTERRES
     7    4    5 1    
     8    4  130 1    
     9    5    6 1    
    10    5   65 1    
    11    5  131 1    
    12    6    7 1    
    13    6  132 1    
    14    6  133 1    
    15    7    8 1    
    16    8    9 1    
    17    8  134 1    
    18    8  135 1    
    19    9   10 ar   
    20    9   14 ar   
    21   10   11 ar   
    22   10  136 1    
    23   11   12 ar   
    24   11  126 1    
    25   12   13 ar   
    26   12  137 1    
    27   13   14 ar   
    28   13   15 1    
    29   14  138 1    
    30   15   16 1    
    31   15  139 1    
    32   15  140 1    
    33   16   17 1    
    34   17   18 1    
    35   17  141 1    
    36   17  142 1    
    37   18   19 1    
    38   18   67 1    
    39   18  143 1    
    40   19   20 am   BACKBONE|DICT|INTERRES
    41   19  144 1    
    42   20   21 2    
    43   20   22 1    
    44   22   23 1    
    45   22   24 1    
    46   22  145 1    
    47   23  146 1    
    48   23  147 1    
    49   23  148 1    
    50   24   25 am   BACKBONE|DICT|INTERRES
    51   24  149 1    
    52   25   26 2    
    53   25   27 1    
    54   27   28 1    
    55   27   29 1    
    56   27  150 1    
    57   28  151 1    
    58   28  152 1    
    59   28  153 1    
    60   29   30 am   BACKBONE|DICT|INTERRES
    61   29  154 1    
    62   30   31 2    
    63   30   32 1    
    64   32   33 1    
    65   32   34 1    
    66   32  155 1    
    67   33  156 1    
    68   33  157 1    
    69   33  158 1    
    70   34   35 am   BACKBONE|DICT|INTERRES
    71   34  159 1    
    72   35   36 2    
    73   35   37 1    
    74   37   38 1    
    75   37   39 1    
    76   37  160 1    
    77   38  161 1    
    78   38  162 1    
    79   38  163 1    
    80   39   40 am   BACKBONE|DICT|INTERRES
    81   39  164 1    
    82   40   41 2    
    83   40   42 1    
    84   42   43 1    
    85   42   44 1    
    86   42  165 1    
    87   43  166 1    
    88   43  167 1    
    89   43  168 1    
    90   44   45 am   BACKBONE|DICT|INTERRES
    91   44  169 1    
    92   45   46 2    
    93   45   47 1    
    94   47   48 1    
    95   47   49 1    
    96   47  170 1    
    97   48  171 1    
    98   48  172 1    
    99   48  173 1    
   100   49   50 am   BACKBONE|DICT|INTERRES
   101   49  174 1    
   102   50   51 2    
   103   50   52 1    
   104   52   53 1    
   105   52   54 1    
   106   52  175 1    
   107   53  176 1    
   108   53  177 1    
   109   53  178 1    
   110   54   55 am   BACKBONE|DICT|INTERRES
   111   54  179 1    
   112   55   56 2    
   113   55   57 1    
   114   57   58 1    
   115   57   59 1    
   116   57  180 1    
   117   58  181 1    
   118   58  182 1    
   119   58  183 1    
   120   59   60 am   BACKBONE|DICT|INTERRES
   121   59  184 1    
   122   60   61 2    
   123   60   62 1    
   124   62   63 1    
   125   62   64 1    
   126   62  185 1    
   127   63  186 1    
   128   63  187 1    
   129   63  188 1    
   130   64   65 am   BACKBONE|DICT|INTERRES
   131   64  189 1    
   132   65   66 2    
   133   67   68 2    
   134   67   69 am   BACKBONE|DICT|INTERRES
   135   69   70 1    
   136   69  190 1    
   137   70   71 1    
   138   70   72 1    
   139   70  191 1    
   140   71  192 1    
   141   71  193 1    
   142   71  194 1    
   143   72   73 2    
   144   72   74 am   BACKBONE|DICT|INTERRES
   145   74   75 1    
   146   74  195 1    
   147   75   76 1    
   148   75   77 1    
   149   75  196 1    
   150   76  197 1    
   151   76  198 1    
   152   76  199 1    
   153   77   78 2    
   154   77   79 am   BACKBONE|DICT|INTERRES
   155   79   80 1    
   156   79  200 1    
   157   80   81 1    
   158   80   82 1    
   159   80  201 1    
   160   81  202 1    
   161   81  203 1    
   162   81  204 1    
   163   82   83 2    
   164   82   84 am   BACKBONE|DICT|INTERRES
   165   84   85 1    
   166   84  205 1    
   167   85   86 1    
   168   85   87 1    
   169   85  206 1    
   170   86  207 1    
   171   86  208 1    
   172   86  209 1    
   173   87   88 2    
   174   87   89 am   BACKBONE|DICT|INTERRES
   175   89   90 1    
   176   89  210 1    
   177   90   91 1    
   178   90   92 1    
   179   90  211 1    
   180   91  212 1    
   181   91  213 1    
   182   91  214 1    
   183   92   93 2    
   184   92   94 am   BACKBONE|DICT|INTERRES
   185   94   95 1    
   186   94  215 1    
   187   95   96 1    
   188   95   97 1    
   189   95  216 1    
   190   96  217 1    
   191   96  218 1    
   192   96  219 1    
   193   97   98 2    
   194   97   99 am   BACKBONE|DICT|INTERRES
   195   99  100 1    
   196   99  220 1    
   197  100  101 1    
   198  100  102 1    
   199  100  221 1    
   200  101  222 1    
   201  101  223 1    
   202  101  224 1    
   203  102  103 2    
   204  102  104 am   BACKBONE|DICT|INTERRES
   205  104  105 1    
   206  104  225 1    
   207  105  106 1    
   208  105  107 1    
   209  105  226 1    
   210  106  227 1    
   211  106  228 1    
   212  106  229 1    
   213  107  108 2    
   214  107  109 am   BACKBONE|DICT|INTERRES
   215  109  110 1    
   216  109  230 1    
   217  110  111 1    
   218  110  112 1    
   219  110  231 1    
   220  111  232 1    
   221  111  233 1    
   222  111  234 1    
   223  112  113 2    
   224  112  114 am   BACKBONE|DICT|INTERRES
   225  114  115 1    
   226  114  235 1    
   227  115  116 1    
   228  115  117 1    
   229  115  236 1    
   230  116  237 1    
   231  116  238 1    
   232  116  239 1    
   233  117  118 2    
   234  117  119 am   BACKBONE|DICT|INTERRES
   235  119  120 1    
   236  119  240 1    
   237  120  121 1    
   238  120  124 1    
   239  120  241 1    
   240  121  122 am   BACKBONE|DICT|INTERRES
   241  121  123 2    
   242  122  242 1    
   243  122  243 1    
   244  124  125 1    
   245  124  244 1    
   246  124  245 1    
   247  125  126 1    
   248  126  246 1    
   249  126  247 1    
@<TRIPOS>SUBSTRUCTURE
     1 UNK         1 GROUP             0       ****    0 ROOT    
