@<TRIPOS>MOLECULE
3R540
247   249    1
SMALL
USER_CHARGES


@<TRIPOS>ATOM
      1 CA          1.9928  -17.2035  -50.5606 C.3       0 UNK        -0.1800 
      2 C           0.8555  -17.0514  -49.5610 C.2       0 UNK         0.5000 
      3 O           0.5788  -17.9818  -48.8055 O.2       0 UNK        -0.5000 
      4 N           0.1844  -15.8949  -49.5709 N.am      1 UNK        -0.5000 
      5 CA         -0.8740  -15.5270  -48.6225 C.3       1 UNK         0.1400 
      6 C6         -1.7981  -14.4308  -49.2116 C.3       23 UNK        -0.0398 
      7 S7         -2.7496  -15.0418  -50.6459 S.3       23 UNK        -0.2404 
      8 C8         -4.4754  -14.9571  -50.0562 C.3       23 UNK        -0.0205 
      9 C9         -4.9209  -16.2288  -49.3438 C.ar      23 UNK        -0.0193 
     10 C10        -5.8487  -17.0868  -49.9435 C.ar      23 UNK        -0.1150 
     11 C11        -6.2909  -18.2360  -49.2788 C.ar      23 UNK        -0.0193 
     12 C12        -5.7710  -18.5406  -48.0173 C.ar      23 UNK        -0.1150 
     13 C13        -4.8211  -17.7100  -47.4159 C.ar      23 UNK        -0.0193 
     14 C14        -4.4313  -16.5372  -48.0723 C.ar      23 UNK        -0.1150 
     15 C15        -4.2330  -18.0895  -46.0596 C.3       23 UNK        -0.0205 
     16 S16        -2.4281  -17.8342  -45.9860 S.3       23 UNK        -0.2404 
     17 C17        -1.8908  -19.1097  -44.8075 C.3       23 UNK        -0.0398 
     18 CA         -1.1195  -20.2512  -45.5132 C.3       11 UNK         0.1400 
     19 N          -0.2154  -20.9408  -44.5884 N.am      11 UNK        -0.5000 
     20 C           0.6691  -21.8889  -44.9268 C.2       10 UNK         0.5000 
     21 O           0.8401  -22.2853  -46.0765 O.2       10 UNK        -0.5000 
     22 CA          1.4508  -22.5478  -43.7790 C.3       10 UNK         0.1400 
     23 CB          2.6600  -21.6934  -43.3663 C.3       10 UNK        -0.1800 
     24 N           0.5879  -22.7915  -42.6236 N.am      10 UNK        -0.5000 
     25 C          -0.3700  -23.7297  -42.5900 C.2       9 UNK         0.5000 
     26 O          -0.5648  -24.5405  -43.4959 O.2       9 UNK        -0.5000 
     27 CA         -1.2902  -23.7327  -41.3546 C.3       9 UNK         0.1400 
     28 CB         -0.6570  -24.5376  -40.2099 C.3       9 UNK        -0.1800 
     29 N          -1.6041  -22.3825  -40.8811 N.am      9 UNK        -0.5000 
     30 C          -2.3334  -21.4880  -41.5639 C.2       8 UNK         0.5000 
     31 O          -2.8538  -21.7216  -42.6539 O.2       8 UNK        -0.5000 
     32 CA         -2.4526  -20.0775  -40.9537 C.3       8 UNK         0.1400 
     33 CB         -3.6467  -20.0057  -39.9911 C.3       8 UNK        -0.1800 
     34 N          -1.2378  -19.6407  -40.2577 N.am      8 UNK        -0.5000 
     35 C          -0.0399  -19.4950  -40.8383 C.2       7 UNK         0.5000 
     36 O           0.1668  -19.7027  -42.0374 O.2       7 UNK        -0.5000 
     37 CA          1.1273  -19.1141  -39.9190 C.3       7 UNK         0.1400 
     38 CB          1.4808  -20.2858  -38.9808 C.3       7 UNK        -0.1800 
     39 N           2.2804  -18.7758  -40.7461 N.am      7 UNK        -0.5000 
     40 C           3.3745  -18.1217  -40.3432 C.2       6 UNK         0.5000 
     41 O           3.5240  -17.6809  -39.2027 O.2       6 UNK        -0.5000 
     42 CA          4.5070  -17.9437  -41.3736 C.3       6 UNK         0.1400 
     43 CB          5.5979  -19.0024  -41.1473 C.3       6 UNK        -0.1800 
     44 N           4.0669  -18.0186  -42.7697 N.am      6 UNK        -0.5000 
     45 C           3.3972  -17.0497  -43.4057 C.2       5 UNK         0.5000 
     46 O           3.0054  -16.0158  -42.8609 O.2       5 UNK        -0.5000 
     47 CA          3.1123  -17.2908  -44.9005 C.3       5 UNK         0.1400 
     48 CB          1.7153  -17.8976  -45.0953 C.3       5 UNK        -0.1800 
     49 N           3.2200  -16.0641  -45.6903 N.am      5 UNK        -0.5000 
     50 C           4.3556  -15.3837  -45.9025 C.2       4 UNK         0.5000 
     51 O           5.4537  -15.7372  -45.4701 O.2       4 UNK        -0.5000 
     52 CA          4.2601  -14.1017  -46.7471 C.3       4 UNK         0.1400 
     53 CB          4.2772  -14.4496  -48.2448 C.3       4 UNK        -0.1800 
     54 N           3.0420  -13.3486  -46.4510 N.am      4 UNK        -0.5000 
     55 C           2.9900  -12.1773  -45.8025 C.2       3 UNK         0.5000 
     56 O           3.9831  -11.5890  -45.3723 O.2       3 UNK        -0.5000 
     57 CA          1.5981  -11.5361  -45.6110 C.3       3 UNK         0.1400 
     58 CB          1.3375  -10.4885  -46.7044 C.3       3 UNK        -0.1800 
     59 N           0.5073  -12.5118  -45.6246 N.am      3 UNK        -0.5000 
     60 C           0.2467  -13.3719  -44.6316 C.2       2 UNK         0.5000 
     61 O           0.8176  -13.3392  -43.5418 O.2       2 UNK        -0.5000 
     62 CA         -0.8170  -14.4605  -44.8926 C.3       2 UNK         0.1400 
     63 CB         -2.1230  -14.1262  -44.1558 C.3       2 UNK        -0.1800 
     64 N          -1.1354  -14.7347  -46.3011 N.am      2 UNK        -0.5000 
     65 C          -0.2733  -15.1130  -47.2565 C.2       1 UNK         0.5000 
     66 O           0.9467  -15.1291  -47.0827 O.2       1 UNK        -0.5000 
     67 C          -2.0769  -21.2237  -46.2349 C.2       11 UNK         0.5000 
     68 O          -2.2880  -21.0910  -47.4381 O.2       11 UNK        -0.5000 
     69 N          -2.6023  -22.2118  -45.4977 N.am      12 UNK        -0.5000 
     70 CA         -3.4488  -23.2807  -46.0266 C.3       12 UNK         0.1400 
     71 CB         -4.0154  -24.1003  -44.8583 C.3       12 UNK        -0.1800 
     72 C          -2.7237  -24.1961  -47.0330 C.2       12 UNK         0.5000 
     73 O          -3.3597  -24.6800  -47.9695 O.2       12 UNK        -0.5000 
     74 N          -1.4174  -24.4143  -46.8358 N.am      13 UNK        -0.5000 
     75 CA         -0.5703  -25.1683  -47.7591 C.3       13 UNK         0.1400 
     76 CB          0.6583  -25.6991  -47.0038 C.3       13 UNK        -0.1800 
     77 C          -0.1463  -24.3229  -48.9751 C.2       13 UNK         0.5000 
     78 O          -0.1039  -24.8451  -50.0893 O.2       13 UNK        -0.5000 
     79 N           0.1710  -23.0455  -48.7298 N.am      14 UNK        -0.5000 
     80 CA          0.6045  -22.0606  -49.7145 C.3       14 UNK         0.1400 
     81 CB          1.5448  -21.0547  -49.0247 C.3       14 UNK        -0.1800 
     82 C          -0.5988  -21.4156  -50.4335 C.2       14 UNK         0.5000 
     83 O          -1.2588  -22.1018  -51.2138 O.2       14 UNK        -0.5000 
     84 N          -0.8309  -20.1083  -50.2234 N.am      15 UNK        -0.5000 
     85 CA         -1.8301  -19.2609  -50.8970 C.3       15 UNK         0.1400 
     86 CB         -3.2620  -19.7259  -50.5755 C.3       15 UNK        -0.1800 
     87 C          -1.5867  -19.1244  -52.4164 C.2       15 UNK         0.5000 
     88 O          -2.5323  -18.9052  -53.1789 O.2       15 UNK        -0.5000 
     89 N          -0.3230  -19.3047  -52.8279 N.am      16 UNK        -0.5000 
     90 CA          0.1485  -19.3688  -54.2101 C.3       16 UNK         0.1400 
     91 CB          1.6692  -19.5836  -54.2026 C.3       16 UNK        -0.1800 
     92 C          -0.2165  -18.1268  -55.0403 C.2       16 UNK         0.5000 
     93 O          -0.2082  -17.0113  -54.5152 O.2       16 UNK        -0.5000 
     94 N          -0.5452  -18.3597  -56.3181 N.am      17 UNK        -0.5000 
     95 CA         -1.0066  -17.4106  -57.3422 C.3       17 UNK         0.1400 
     96 CB          0.0301  -16.2997  -57.5978 C.3       17 UNK        -0.1800 
     97 C          -2.4081  -16.8189  -57.0841 C.2       17 UNK         0.5000 
     98 O          -3.1651  -16.6382  -58.0385 O.2       17 UNK        -0.5000 
     99 N          -2.7405  -16.5424  -55.8176 N.am      18 UNK        -0.5000 
    100 CA        -4.0352  -16.0265  -55.3795 C.3       18 UNK         0.1400 
    101 CB        -3.9148  -15.5202  -53.9361 C.3       18 UNK        -0.1800 
    102 C         -5.1581  -17.0715  -55.4885 C.2       18 UNK         0.5000 
    103 O         -6.2634  -16.7255  -55.9086 O.2       18 UNK        -0.5000 
    104 N         -4.8574  -18.3225  -55.1168 N.am      19 UNK        -0.5000 
    105 CA        -5.8100  -19.4335  -55.1319 C.3       19 UNK         0.1400 
    106 CB        -6.7619  -19.3285  -53.9278 C.3       19 UNK        -0.1800 
    107 C         -5.1096  -20.8005  -55.1701 C.2       19 UNK         0.5000 
    108 O         -5.5512  -21.6701  -55.9212 O.2       19 UNK        -0.5000 
    109 N         -4.0246  -20.9389  -54.3936 N.am      20 UNK        -0.5000 
    110 CA        -3.1724  -22.1150  -54.1926 C.3       20 UNK         0.1400 
    111 CB        -2.5360  -22.5892  -55.5134 C.3       20 UNK        -0.1800 
    112 C         -3.8717  -23.2712  -53.4470 C.2       20 UNK         0.5000 
    113 O         -4.8821  -23.7963  -53.9171 O.2       20 UNK        -0.5000 
    114 N         -3.2749  -23.6766  -52.3170 N.am      21 UNK        -0.5000 
    115 CA        -3.6429  -24.8104  -51.4624 C.3       21 UNK         0.1400 
    116 CB        -3.3778  -26.1449  -52.1896 C.3       21 UNK        -0.1800 
    117 C         -5.0749  -24.6977  -50.9004 C.2       21 UNK         0.5000 
    118 O         -5.9055  -25.5831  -51.1164 O.2       21 UNK        -0.5000 
    119 N         -5.3355  -23.5874  -50.2012 N.am      22 UNK        -0.5000 
    120 CA        -6.6259  -23.2642  -49.5688 C.3       22 UNK         0.1400 
    121 C         -7.0486  -24.1878  -48.3874 C.2       22 UNK         0.5000 
    122 N         -6.1622  -24.9790  -47.7987 N.am      22 UNK        -0.7600 
    123 O         -8.2151  -24.1926  -48.0039 O.2       22 UNK        -0.5000 
    124 C124       -6.6810  -21.7764  -49.1446 C.3       23 UNK        -0.0398 
    125 S125       -6.6385  -20.6674  -50.5901 S.3       23 UNK        -0.2404 
    126 C126       -7.3461  -19.1314  -49.9148 C.3       23 UNK        -0.0205 
    127 H127        2.9402  -17.3099  -50.0323 H         1 UNK         0.0600 
    128 H128        2.0668  -16.3422  -51.2250 H         1 UNK         0.0600 
    129 H129        1.8420  -18.0917  -51.1727 H         1 UNK         0.0600 
    130 H130        0.4618  -15.1699  -50.2157 H         1 UNK         0.3000 
    131 H131       -1.4805  -16.4150  -48.4358 H         1 UNK         0.0600 
    132 H132       -2.4976  -14.0469  -48.4695 H         1 UNK         0.0800 
    133 H133       -1.2100  -13.5693  -49.5324 H         1 UNK         0.0800 
    134 H134       -5.1146  -14.7749  -50.9213 H         1 UNK         0.0800 
    135 H135       -4.6149  -14.0958  -49.4018 H         1 UNK         0.0800 
    136 H136       -6.2401  -16.8523  -50.9235 H         1 UNK         0.1150 
    137 H137       -6.1049  -19.4300  -47.5038 H         1 UNK         0.1150 
    138 H138       -3.7297  -15.8712  -47.5969 H         1 UNK         0.1150 
    139 H139       -4.7130  -17.4990  -45.2785 H         1 UNK         0.0800 
    140 H140       -4.4535  -19.1362  -45.8446 H         1 UNK         0.0800 
    141 H141       -1.2403  -18.6076  -44.0904 H         1 UNK         0.0800 
    142 H142       -2.7367  -19.4852  -44.2303 H         1 UNK         0.0800 
    143 H143       -0.4789  -19.8077  -46.2792 H         1 UNK         0.0600 
    144 H144       -0.2472  -20.6408  -43.6182 H         1 UNK         0.3000 
    145 H145        1.8256  -23.5090  -44.1381 H         1 UNK         0.0600 
    146 H146        3.2309  -22.1754  -42.5725 H         1 UNK         0.0600 
    147 H147        3.3358  -21.5474  -44.2099 H         1 UNK         0.0600 
    148 H148        2.3636  -20.7075  -43.0133 H         1 UNK         0.0600 
    149 H149        0.6530  -22.1359  -41.8598 H         1 UNK         0.3000 
    150 H150       -2.2260  -24.2188  -41.6389 H         1 UNK         0.0600 
    151 H151       -0.4271  -25.5550  -40.5293 H         1 UNK         0.0600 
    152 H152       -1.3336  -24.6109  -39.3584 H         1 UNK         0.0600 
    153 H153        0.2725  -24.0842  -39.8629 H         1 UNK         0.0600 
    154 H154       -1.2175  -22.1090  -39.9901 H         1 UNK         0.3000 
    155 H155       -2.6346  -19.3784  -41.7720 H         1 UNK         0.0600 
    156 H156       -3.5110  -20.6611  -39.1298 H         1 UNK         0.0600 
    157 H157       -3.7952  -18.9909  -39.6216 H         1 UNK         0.0600 
    158 H158       -4.5690  -20.3061  -40.4903 H         1 UNK         0.0600 
    159 H159       -1.3290  -19.4563  -39.2689 H         1 UNK         0.3000 
    160 H160        0.8339  -18.2402  -39.3341 H         1 UNK         0.0600 
    161 H161        1.7831  -21.1712  -39.5418 H         1 UNK         0.0600 
    162 H162        0.6329  -20.5655  -38.3549 H         1 UNK         0.0600 
    163 H163        2.2977  -20.0252  -38.3079 H         1 UNK         0.0600 
    164 H164        2.1895  -19.0513  -41.7148 H         1 UNK         0.3000 
    165 H165        4.9493  -16.9593  -41.2055 H         1 UNK         0.0600 
    166 H166        6.4467  -18.8440  -41.8129 H         1 UNK         0.0600 
    167 H167        5.9773  -18.9615  -40.1253 H         1 UNK         0.0600 
    168 H168        5.2203  -20.0118  -41.3166 H         1 UNK         0.0600 
    169 H169        4.3583  -18.8359  -43.2857 H         1 UNK         0.3000 
    170 H170        3.8484  -17.9984  -45.2877 H         1 UNK         0.0600 
    171 H171        0.9319  -17.2281  -44.7429 H         1 UNK         0.0600 
    172 H172        1.6177  -18.8316  -44.5433 H         1 UNK         0.0600 
    173 H173        1.5200  -18.1168  -46.1454 H         1 UNK         0.0600 
    174 H174        2.3598  -15.7198  -46.1086 H         1 UNK         0.3000 
    175 H175        5.1441  -13.4979  -46.5320 H         1 UNK         0.0600 
    176 H176        5.1729  -15.0149  -48.5052 H         1 UNK         0.0600 
    177 H177        3.4134  -15.0518  -48.5296 H         1 UNK         0.0600 
    178 H178        4.2719  -13.5479  -48.8573 H         1 UNK         0.0600 
    179 H179        2.1717  -13.7944  -46.7279 H         1 UNK         0.3000 
    180 H180        1.5978  -11.0274  -44.6445 H         1 UNK         0.0600 
    181 H181        1.3167  -10.9395  -47.6973 H         1 UNK         0.0600 
    182 H182        2.1165   -9.7249  -46.7071 H         1 UNK         0.0600 
    183 H183        0.3865   -9.9799  -46.5453 H         1 UNK         0.0600 
    184 H184       -0.0162  -12.5991  -46.4824 H         1 UNK         0.3000 
    185 H185       -0.4250  -15.3854  -44.4679 H         1 UNK         0.0600 
    186 H186       -1.9418  -13.9499  -43.0946 H         1 UNK         0.0600 
    187 H187       -2.5946  -13.2305  -44.5619 H         1 UNK         0.0600 
    188 H188       -2.8378  -14.9465  -44.2276 H         1 UNK         0.0600 
    189 H189       -2.1210  -14.7454  -46.5129 H         1 UNK         0.3000 
    190 H190       -2.4423  -22.2113  -44.4946 H         1 UNK         0.3000 
    191 H191       -4.2845  -22.8135  -46.5518 H         1 UNK         0.0600 
    192 H192       -3.2226  -24.5661  -44.2722 H         1 UNK         0.0600 
    193 H193       -4.6692  -24.8958  -45.2170 H         1 UNK         0.0600 
    194 H194       -4.6035  -23.4743  -44.1869 H         1 UNK         0.0600 
    195 H195       -0.9631  -23.9821  -46.0428 H         1 UNK         0.3000 
    196 H196       -1.1311  -26.0293  -48.1296 H         1 UNK         0.0600 
    197 H197        1.2890  -26.2995  -47.6604 H         1 UNK         0.0600 
    198 H198        0.3624  -26.3323  -46.1671 H         1 UNK         0.0600 
    199 H199        1.2733  -24.8905  -46.6084 H         1 UNK         0.0600 
    200 H200        0.1500  -22.7235  -47.7661 H         1 UNK         0.3000 
    201 H201        1.1877  -22.5704  -50.4840 H         1 UNK         0.0600 
    202 H202        2.4165  -21.5607  -48.6094 H         1 UNK         0.0600 
    203 H203        1.0510  -20.5343  -48.2035 H         1 UNK         0.0600 
    204 H204        1.9147  -20.3075  -49.7274 H         1 UNK         0.0600 
    205 H205       -0.2521  -19.6152  -49.5487 H         1 UNK         0.3000 
    206 H206       -1.7187  -18.2585  -50.4831 H         1 UNK         0.0600 
    207 H207       -3.4304  -19.7685  -49.4999 H         1 UNK         0.0600 
    208 H208       -3.9952  -19.0319  -50.9863 H         1 UNK         0.0600 
    209 H209       -3.4802  -20.7094  -50.9906 H         1 UNK         0.0600 
    210 H210        0.3710  -19.4732  -52.1174 H         1 UNK         0.3000 
    211 H211       -0.3224  -20.2421  -54.6657 H         1 UNK         0.0600 
    212 H212        2.1893  -18.7520  -53.7252 H         1 UNK         0.0600 
    213 H213        2.0575  -19.6729  -55.2180 H         1 UNK         0.0600 
    214 H214        1.9378  -20.4977  -53.6725 H         1 UNK         0.0600 
    215 H215       -0.5252  -19.3200  -56.6318 H         1 UNK         0.3000 
    216 H216       -1.0859  -17.9940  -58.2609 H         1 UNK         0.0600 
    217 H217       -0.2655  -15.6831  -58.4475 H         1 UNK         0.0600 
    218 H218        1.0099  -16.7191  -57.8260 H         1 UNK         0.0600 
    219 H219        0.1398  -15.6354  -56.7403 H         1 UNK         0.0600 
    220 H220       -2.0356  -16.6942  -55.1024 H         1 UNK         0.3000 
    221 H221       -4.2990  -15.1798  -56.0168 H         1 UNK         0.0600 
    222 H222       -3.6407  -16.3243  -53.2519 H         1 UNK         0.0600 
    223 H223       -3.1603  -14.7379  -53.8526 H         1 UNK         0.0600 
    224 H224       -4.8592  -15.1010  -53.5872 H         1 UNK         0.0600 
    225 H225       -3.9237  -18.5184  -54.7752 H         1 UNK         0.3000 
    226 H226       -6.4057  -19.3668  -56.0451 H         1 UNK         0.0600 
    227 H227       -7.4443  -18.4854  -54.0331 H         1 UNK         0.0600 
    228 H228       -7.3706  -20.2271  -53.8189 H         1 UNK         0.0600 
    229 H229       -6.2037  -19.1875  -53.0028 H         1 UNK         0.0600 
    230 H230       -3.7493  -20.1440  -53.8232 H         1 UNK         0.3000 
    231 H231       -2.3535  -21.7636  -53.5659 H         1 UNK         0.0600 
    232 H232       -1.7989  -23.3710  -55.3265 H         1 UNK         0.0600 
    233 H233       -2.0239  -21.7724  -56.0216 H         1 UNK         0.0600 
    234 H234       -3.2764  -23.0011  -56.1994 H         1 UNK         0.0600 
    235 H235       -2.4695  -23.1447  -51.9838 H         1 UNK         0.3000 
    236 H236       -2.9695  -24.7718  -50.6056 H         1 UNK         0.0600 
    237 H237       -4.0178  -26.2673  -53.0639 H         1 UNK         0.0600 
    238 H238       -2.3411  -26.2120  -52.5197 H         1 UNK         0.0600 
    239 H239       -3.5621  -26.9914  -51.5272 H         1 UNK         0.0600 
    240 H240       -4.5977  -22.9103  -50.0776 H         1 UNK         0.3000 
    241 H241       -7.3919  -23.4155  -50.3321 H         1 UNK         0.0600 
    242 H242       -6.4629  -25.5847  -47.0528 H         1 UNK         0.3800 
    243 H243       -5.1829  -24.9609  -48.0726 H         1 UNK         0.3800 
    244 H244       -7.5939  -21.5685  -48.5838 H         1 UNK         0.0800 
    245 H245       -5.8459  -21.5383  -48.4842 H         1 UNK         0.0800 
    246 H246       -7.8410  -18.6007  -50.7295 H         1 UNK         0.0800 
    247 H247       -8.1284  -19.3583  -49.1897 H         1 UNK         0.0800 
@<TRIPOS>BOND
     1    1    2 1    
     2    1  127 1    
     3    1  128 1    
     4    1  129 1    
     5    2    3 2    
     6    2    4 am   BACKBONE|DICT|INTERRES
     7    4    5 1    
     8    4  130 1    
     9    5    6 1    
    10    5   65 1    
    11    5  131 1    
    12    6    7 1    
    13    6  132 1    
    14    6  133 1    
    15    7    8 1    
    16    8    9 1    
    17    8  134 1    
    18    8  135 1    
    19    9   10 ar   
    20    9   14 ar   
    21   10   11 ar   
    22   10  136 1    
    23   11   12 ar   
    24   11  126 1    
    25   12   13 ar   
    26   12  137 1    
    27   13   14 ar   
    28   13   15 1    
    29   14  138 1    
    30   15   16 1    
    31   15  139 1    
    32   15  140 1    
    33   16   17 1    
    34   17   18 1    
    35   17  141 1    
    36   17  142 1    
    37   18   19 1    
    38   18   67 1    
    39   18  143 1    
    40   19   20 am   BACKBONE|DICT|INTERRES
    41   19  144 1    
    42   20   21 2    
    43   20   22 1    
    44   22   23 1    
    45   22   24 1    
    46   22  145 1    
    47   23  146 1    
    48   23  147 1    
    49   23  148 1    
    50   24   25 am   BACKBONE|DICT|INTERRES
    51   24  149 1    
    52   25   26 2    
    53   25   27 1    
    54   27   28 1    
    55   27   29 1    
    56   27  150 1    
    57   28  151 1    
    58   28  152 1    
    59   28  153 1    
    60   29   30 am   BACKBONE|DICT|INTERRES
    61   29  154 1    
    62   30   31 2    
    63   30   32 1    
    64   32   33 1    
    65   32   34 1    
    66   32  155 1    
    67   33  156 1    
    68   33  157 1    
    69   33  158 1    
    70   34   35 am   BACKBONE|DICT|INTERRES
    71   34  159 1    
    72   35   36 2    
    73   35   37 1    
    74   37   38 1    
    75   37   39 1    
    76   37  160 1    
    77   38  161 1    
    78   38  162 1    
    79   38  163 1    
    80   39   40 am   BACKBONE|DICT|INTERRES
    81   39  164 1    
    82   40   41 2    
    83   40   42 1    
    84   42   43 1    
    85   42   44 1    
    86   42  165 1    
    87   43  166 1    
    88   43  167 1    
    89   43  168 1    
    90   44   45 am   BACKBONE|DICT|INTERRES
    91   44  169 1    
    92   45   46 2    
    93   45   47 1    
    94   47   48 1    
    95   47   49 1    
    96   47  170 1    
    97   48  171 1    
    98   48  172 1    
    99   48  173 1    
   100   49   50 am   BACKBONE|DICT|INTERRES
   101   49  174 1    
   102   50   51 2    
   103   50   52 1    
   104   52   53 1    
   105   52   54 1    
   106   52  175 1    
   107   53  176 1    
   108   53  177 1    
   109   53  178 1    
   110   54   55 am   BACKBONE|DICT|INTERRES
   111   54  179 1    
   112   55   56 2    
   113   55   57 1    
   114   57   58 1    
   115   57   59 1    
   116   57  180 1    
   117   58  181 1    
   118   58  182 1    
   119   58  183 1    
   120   59   60 am   BACKBONE|DICT|INTERRES
   121   59  184 1    
   122   60   61 2    
   123   60   62 1    
   124   62   63 1    
   125   62   64 1    
   126   62  185 1    
   127   63  186 1    
   128   63  187 1    
   129   63  188 1    
   130   64   65 am   BACKBONE|DICT|INTERRES
   131   64  189 1    
   132   65   66 2    
   133   67   68 2    
   134   67   69 am   BACKBONE|DICT|INTERRES
   135   69   70 1    
   136   69  190 1    
   137   70   71 1    
   138   70   72 1    
   139   70  191 1    
   140   71  192 1    
   141   71  193 1    
   142   71  194 1    
   143   72   73 2    
   144   72   74 am   BACKBONE|DICT|INTERRES
   145   74   75 1    
   146   74  195 1    
   147   75   76 1    
   148   75   77 1    
   149   75  196 1    
   150   76  197 1    
   151   76  198 1    
   152   76  199 1    
   153   77   78 2    
   154   77   79 am   BACKBONE|DICT|INTERRES
   155   79   80 1    
   156   79  200 1    
   157   80   81 1    
   158   80   82 1    
   159   80  201 1    
   160   81  202 1    
   161   81  203 1    
   162   81  204 1    
   163   82   83 2    
   164   82   84 am   BACKBONE|DICT|INTERRES
   165   84   85 1    
   166   84  205 1    
   167   85   86 1    
   168   85   87 1    
   169   85  206 1    
   170   86  207 1    
   171   86  208 1    
   172   86  209 1    
   173   87   88 2    
   174   87   89 am   BACKBONE|DICT|INTERRES
   175   89   90 1    
   176   89  210 1    
   177   90   91 1    
   178   90   92 1    
   179   90  211 1    
   180   91  212 1    
   181   91  213 1    
   182   91  214 1    
   183   92   93 2    
   184   92   94 am   BACKBONE|DICT|INTERRES
   185   94   95 1    
   186   94  215 1    
   187   95   96 1    
   188   95   97 1    
   189   95  216 1    
   190   96  217 1    
   191   96  218 1    
   192   96  219 1    
   193   97   98 2    
   194   97   99 am   BACKBONE|DICT|INTERRES
   195   99  100 1    
   196   99  220 1    
   197  100  101 1    
   198  100  102 1    
   199  100  221 1    
   200  101  222 1    
   201  101  223 1    
   202  101  224 1    
   203  102  103 2    
   204  102  104 am   BACKBONE|DICT|INTERRES
   205  104  105 1    
   206  104  225 1    
   207  105  106 1    
   208  105  107 1    
   209  105  226 1    
   210  106  227 1    
   211  106  228 1    
   212  106  229 1    
   213  107  108 2    
   214  107  109 am   BACKBONE|DICT|INTERRES
   215  109  110 1    
   216  109  230 1    
   217  110  111 1    
   218  110  112 1    
   219  110  231 1    
   220  111  232 1    
   221  111  233 1    
   222  111  234 1    
   223  112  113 2    
   224  112  114 am   BACKBONE|DICT|INTERRES
   225  114  115 1    
   226  114  235 1    
   227  115  116 1    
   228  115  117 1    
   229  115  236 1    
   230  116  237 1    
   231  116  238 1    
   232  116  239 1    
   233  117  118 2    
   234  117  119 am   BACKBONE|DICT|INTERRES
   235  119  120 1    
   236  119  240 1    
   237  120  121 1    
   238  120  124 1    
   239  120  241 1    
   240  121  122 am   BACKBONE|DICT|INTERRES
   241  121  123 2    
   242  122  242 1    
   243  122  243 1    
   244  124  125 1    
   245  124  244 1    
   246  124  245 1    
   247  125  126 1    
   248  126  246 1    
   249  126  247 1    
@<TRIPOS>SUBSTRUCTURE
     1 UNK         1 GROUP             0       ****    0 ROOT    
