@<TRIPOS>MOLECULE
3R540
247   249    1
SMALL
USER_CHARGES


@<TRIPOS>ATOM
      1 CA         -1.7692  -10.6585  -48.2835 C.3       0 UNK        -0.1800 
      2 C          -0.8294  -11.1737  -47.2034 C.2       0 UNK         0.5000 
      3 O          -0.9480  -10.7758  -46.0441 O.2       0 UNK        -0.5000 
      4 N           0.0933  -12.0740  -47.5700 N.am      1 UNK        -0.5000 
      5 CA          1.0970  -12.6675  -46.6742 C.3       1 UNK         0.1400 
      6 C6          2.2217  -13.3893  -47.4529 C.3       23 UNK        -0.0398 
      7 S7          1.6560  -14.8149  -48.4470 S.3       23 UNK        -0.2404 
      8 C8          2.8382  -14.7372  -49.8220 C.3       23 UNK        -0.0205 
      9 C9          2.7774  -15.9856  -50.6864 C.ar      23 UNK        -0.0193 
     10 C10         1.9784  -16.0156  -51.8330 C.ar      23 UNK        -0.1150 
     11 C11         1.9752  -17.1395  -52.6645 C.ar      23 UNK        -0.0193 
     12 C12         2.7708  -18.2413  -52.3360 C.ar      23 UNK        -0.1150 
     13 C13         3.5650  -18.2275  -51.1852 C.ar      23 UNK        -0.0193 
     14 C14         3.5593  -17.0977  -50.3621 C.ar      23 UNK        -0.1150 
     15 C15         4.4725  -19.4064  -50.8586 C.3       23 UNK        -0.0205 
     16 S16         3.5608  -20.9566  -50.5782 S.3       23 UNK        -0.2404 
     17 C17         2.6635  -20.5923  -49.0329 C.3       23 UNK        -0.0398 
     18 CA          1.2484  -21.2188  -49.0228 C.3       11 UNK         0.1400 
     19 N           0.7612  -21.4268  -47.6593 N.am      11 UNK        -0.5000 
     20 C          -0.2721  -22.2175  -47.3420 C.2       10 UNK         0.5000 
     21 O          -0.8478  -22.9434  -48.1507 O.2       10 UNK        -0.5000 
     22 CA         -0.7601  -22.1696  -45.8836 C.3       10 UNK         0.1400 
     23 CB         -0.0165  -23.2000  -45.0218 C.3       10 UNK        -0.1800 
     24 N          -0.6345  -20.8422  -45.2785 N.am      10 UNK        -0.5000 
     25 C          -1.3070  -19.7546  -45.6793 C.2       9 UNK         0.5000 
     26 O          -2.1419  -19.7584  -46.5847 O.2       9 UNK        -0.5000 
     27 CA         -0.9722  -18.4306  -44.9745 C.3       9 UNK         0.1400 
     28 CB         -1.6733  -18.3466  -43.6095 C.3       9 UNK        -0.1800 
     29 N           0.4671  -18.2163  -44.8167 N.am      9 UNK        -0.5000 
     30 C           1.3369  -18.1379  -45.8353 C.2       8 UNK         0.5000 
     31 O           1.0115  -18.2018  -47.0187 O.2       8 UNK        -0.5000 
     32 CA          2.8280  -18.0607  -45.4713 C.3       8 UNK         0.1400 
     33 CB          3.2424  -16.6294  -45.0999 C.3       8 UNK        -0.1800 
     34 N           3.1584  -18.9795  -44.3826 N.am      8 UNK        -0.5000 
     35 C           3.1537  -20.3157  -44.5001 C.2       7 UNK         0.5000 
     36 O           2.9288  -20.9080  -45.5554 O.2       7 UNK        -0.5000 
     37 CA          3.3951  -21.1230  -43.2113 C.3       7 UNK         0.1400 
     38 CB          4.8990  -21.2623  -42.9328 C.3       7 UNK        -0.1800 
     39 N           2.7393  -20.5247  -42.0473 N.am      7 UNK        -0.5000 
     40 C           1.4108  -20.4334  -41.8891 C.2       6 UNK         0.5000 
     41 O           0.5973  -20.9029  -42.6829 O.2       6 UNK        -0.5000 
     42 CA          0.9084  -19.6404  -40.6673 C.3       6 UNK         0.1400 
     43 CB          0.7334  -20.5685  -39.4566 C.3       6 UNK        -0.1800 
     44 N           1.7933  -18.5292  -40.3060 N.am      6 UNK        -0.5000 
     45 C           2.0299  -17.4649  -41.0842 C.2       5 UNK         0.5000 
     46 O           1.5071  -17.2968  -42.1884 O.2       5 UNK        -0.5000 
     47 CA          3.1034  -16.4862  -40.5762 C.3       5 UNK         0.1400 
     48 CB          4.4939  -16.9498  -41.0402 C.3       5 UNK        -0.1800 
     49 N           2.8964  -15.1137  -41.0348 N.am      5 UNK        -0.5000 
     50 C           1.9069  -14.3041  -40.6365 C.2       4 UNK         0.5000 
     51 O           1.0317  -14.6469  -39.8391 O.2       4 UNK        -0.5000 
     52 CA          1.9206  -12.8563  -41.1717 C.3       4 UNK         0.1400 
     53 CB          3.1109  -12.5320  -42.0991 C.3       4 UNK        -0.1800 
     54 N           0.6753  -12.5724  -41.8789 N.am      4 UNK        -0.5000 
     55 C          -0.4113  -12.0041  -41.3346 C.2       3 UNK         0.5000 
     56 O          -0.4591  -11.6001  -40.1716 O.2       3 UNK        -0.5000 
     57 CA         -1.6567  -11.8319  -42.2321 C.3       3 UNK         0.1400 
     58 CB         -1.8078  -10.3655  -42.6656 C.3       3 UNK        -0.1800 
     59 N          -1.6323  -12.6731  -43.4284 N.am      3 UNK        -0.5000 
     60 C          -1.7984  -14.0036  -43.4290 C.2       2 UNK         0.5000 
     61 O          -2.1180  -14.6485  -42.4307 O.2       2 UNK        -0.5000 
     62 CA         -1.5415  -14.7477  -44.7556 C.3       2 UNK         0.1400 
     63 CB         -2.8668  -15.1816  -45.4012 C.3       2 UNK        -0.1800 
     64 N          -0.7656  -13.9856  -45.7344 N.am      2 UNK        -0.5000 
     65 C           0.4962  -13.5635  -45.5675 C.2       1 UNK         0.5000 
     66 O           1.1629  -13.8130  -44.5641 O.2       1 UNK        -0.5000 
     67 C           0.2388  -20.4056  -49.8637 C.2       11 UNK         0.5000 
     68 O           0.0094  -20.7440  -51.0243 O.2       11 UNK        -0.5000 
     69 N          -0.3570  -19.3709  -49.2532 N.am      12 UNK        -0.5000 
     70 CA         -1.3356  -18.4838  -49.8735 C.3       12 UNK         0.1400 
     71 CB         -1.5625  -17.2502  -48.9849 C.3       12 UNK        -0.1800 
     72 C          -2.6669  -19.1799  -50.2110 C.2       12 UNK         0.5000 
     73 O          -3.0893  -19.1176  -51.3659 O.2       12 UNK        -0.5000 
     74 N          -3.3121  -19.8078  -49.2134 N.am      13 UNK        -0.5000 
     75 CA         -4.6163  -20.4627  -49.3824 C.3       13 UNK         0.1400 
     76 CB         -5.7174  -19.4239  -49.6968 C.3       13 UNK        -0.1800 
     77 C          -5.0811  -21.3372  -48.2036 C.2       13 UNK         0.5000 
     78 O          -5.9674  -22.1692  -48.4157 O.2       13 UNK        -0.5000 
     79 N          -4.5452  -21.1367  -46.9909 N.am      14 UNK        -0.5000 
     80 CA         -4.9918  -21.8275  -45.7752 C.3       14 UNK         0.1400 
     81 CB         -4.4023  -21.1298  -44.5375 C.3       14 UNK        -0.1800 
     82 C          -4.6640  -23.3345  -45.7747 C.2       14 UNK         0.5000 
     83 O          -3.9283  -23.8149  -46.6378 O.2       14 UNK        -0.5000 
     84 N          -5.2425  -24.0605  -44.8069 N.am      15 UNK        -0.5000 
     85 CA         -5.1489  -25.5193  -44.6400 C.3       15 UNK         0.1400 
     86 CB         -3.7082  -25.9414  -44.2787 C.3       15 UNK        -0.1800 
     87 C          -5.7238  -26.2979  -45.8461 C.2       15 UNK         0.5000 
     88 O          -5.2404  -27.3824  -46.1747 O.2       15 UNK        -0.5000 
     89 N          -6.7479  -25.7071  -46.4819 N.am      16 UNK        -0.5000 
     90 CA         -7.4599  -26.1752  -47.6750 C.3       16 UNK         0.1400 
     91 CB         -8.1963  -27.5025  -47.3942 C.3       16 UNK        -0.1800 
     92 C          -6.5913  -26.2287  -48.9517 C.2       16 UNK         0.5000 
     93 O          -6.9280  -26.9667  -49.8796 O.2       16 UNK        -0.5000 
     94 N          -5.5080  -25.4375  -49.0025 N.am      17 UNK        -0.5000 
     95 CA         -4.6524  -25.3000  -50.1845 C.3       17 UNK         0.1400 
     96 CB         -3.3399  -24.6056  -49.7931 C.3       17 UNK        -0.1800 
     97 C          -5.3496  -24.5421  -51.3310 C.2       17 UNK         0.5000 
     98 O          -5.1590  -24.9032  -52.4933 O.2       17 UNK        -0.5000 
     99 N          -6.1602  -23.5351  -50.9652 N.am      18 UNK        -0.5000 
    100 CA        -6.9311  -22.6243  -51.8186 C.3       18 UNK         0.1400 
    101 CB        -7.9402  -23.4067  -52.6849 C.3       18 UNK        -0.1800 
    102 C         -6.0532  -21.6885  -52.6753 C.2       18 UNK         0.5000 
    103 O         -4.8360  -21.8579  -52.7573 O.2       18 UNK        -0.5000 
    104 N         -6.6961  -20.7065  -53.3235 N.am      19 UNK        -0.5000 
    105 CA        -6.0519  -19.7129  -54.1944 C.3       19 UNK         0.1400 
    106 CB        -7.1001  -18.6855  -54.6455 C.3       19 UNK        -0.1800 
    107 C         -5.3296  -20.3203  -55.4156 C.2       19 UNK         0.5000 
    108 O         -4.4199  -19.6941  -55.9610 O.2       19 UNK        -0.5000 
    109 N         -5.7054  -21.5528  -55.7859 N.am      20 UNK        -0.5000 
    110 CA        -5.0500  -22.3954  -56.7873 C.3       20 UNK         0.1400 
    111 CB        -5.8692  -23.6847  -56.9529 C.3       20 UNK        -0.1800 
    112 C         -3.5766  -22.7307  -56.4680 C.2       20 UNK         0.5000 
    113 O         -2.8360  -23.0859  -57.3855 O.2       20 UNK        -0.5000 
    114 N         -3.1646  -22.5949  -55.1972 N.am      21 UNK        -0.5000 
    115 CA        -1.7703  -22.7006  -54.7639 C.3       21 UNK         0.1400 
    116 CB        -1.7194  -22.7502  -53.2301 C.3       21 UNK        -0.1800 
    117 C         -0.8864  -21.5557  -55.3018 C.2       21 UNK         0.5000 
    118 O          0.3008  -21.7790  -55.5441 O.2       21 UNK        -0.5000 
    119 N         -1.4807  -20.3724  -55.5039 N.am      22 UNK        -0.5000 
    120 CA        -0.8417  -19.2055  -56.1303 C.3       22 UNK         0.1400 
    121 C         -1.2407  -19.0584  -57.6227 C.2       22 UNK         0.5000 
    122 N         -2.4878  -19.3174  -57.9967 N.am      22 UNK        -0.7600 
    123 O         -0.4071  -18.7089  -58.4538 O.2       22 UNK        -0.5000 
    124 C124       -1.1456  -17.8943  -55.3645 C.3       23 UNK        -0.0398 
    125 S125       -0.4818  -17.9108  -53.6669 S.3       23 UNK        -0.2404 
    126 C126        1.1454  -17.1504  -53.9381 C.3       23 UNK        -0.0205 
    127 H127       -2.8022  -10.8875  -48.0220 H         1 UNK         0.0600 
    128 H128       -1.5559  -11.1070  -49.2541 H         1 UNK         0.0600 
    129 H129       -1.6723   -9.5771  -48.3794 H         1 UNK         0.0600 
    130 H130        0.1330  -12.3843  -48.5309 H         1 UNK         0.3000 
    131 H131        1.5687  -11.8347  -46.1478 H         1 UNK         0.0600 
    132 H132        2.7096  -12.6697  -48.1120 H         1 UNK         0.0800 
    133 H133        3.0013  -13.7279  -46.7688 H         1 UNK         0.0800 
    134 H134        3.8480  -14.6173  -49.4259 H         1 UNK         0.0800 
    135 H135        2.6360  -13.8498  -50.4238 H         1 UNK         0.0800 
    136 H136        1.3734  -15.1568  -52.0881 H         1 UNK         0.1150 
    137 H137        2.7769  -19.1097  -52.9800 H         1 UNK         0.1150 
    138 H138        4.1805  -17.0717  -49.4778 H         1 UNK         0.1150 
    139 H139        5.0891  -19.1953  -49.9834 H         1 UNK         0.0800 
    140 H140        5.1639  -19.5542  -51.6892 H         1 UNK         0.0800 
    141 H141        2.6200  -19.5173  -48.8505 H         1 UNK         0.0800 
    142 H142        3.2632  -21.0081  -48.2225 H         1 UNK         0.0800 
    143 H143        1.3210  -22.2095  -49.4778 H         1 UNK         0.0600 
    144 H144        1.2167  -20.8993  -46.9245 H         1 UNK         0.3000 
    145 H145       -1.8166  -22.4343  -45.8886 H         1 UNK         0.0600 
    146 H146       -0.4199  -23.2302  -44.0095 H         1 UNK         0.0600 
    147 H147       -0.1147  -24.2022  -45.4408 H         1 UNK         0.0600 
    148 H148        1.0477  -22.9726  -44.9527 H         1 UNK         0.0600 
    149 H149       -0.0168  -20.7674  -44.4742 H         1 UNK         0.3000 
    150 H150       -1.3501  -17.6285  -45.6079 H         1 UNK         0.0600 
    151 H151       -1.4284  -19.1973  -42.9746 H         1 UNK         0.0600 
    152 H152       -2.7567  -18.3360  -43.7325 H         1 UNK         0.0600 
    153 H153       -1.3983  -17.4417  -43.0681 H         1 UNK         0.0600 
    154 H154        0.8183  -18.1104  -43.8698 H         1 UNK         0.3000 
    155 H155        3.4021  -18.3573  -46.3520 H         1 UNK         0.0600 
    156 H156        2.6785  -16.2431  -44.2512 H         1 UNK         0.0600 
    157 H157        3.0679  -15.9543  -45.9366 H         1 UNK         0.0600 
    158 H158        4.3027  -16.5742  -44.8539 H         1 UNK         0.0600 
    159 H159        3.2954  -18.5715  -43.4706 H         1 UNK         0.3000 
    160 H160        2.9797  -22.1219  -43.3605 H         1 UNK         0.0600 
    161 H161        5.3680  -20.2948  -42.7490 H         1 UNK         0.0600 
    162 H162        5.4114  -21.7201  -43.7800 H         1 UNK         0.0600 
    163 H163        5.0818  -21.8948  -42.0638 H         1 UNK         0.0600 
    164 H164        3.3373  -20.1246  -41.3402 H         1 UNK         0.3000 
    165 H165       -0.0678  -19.2229  -40.9215 H         1 UNK         0.0600 
    166 H166        0.3047  -20.0342  -38.6086 H         1 UNK         0.0600 
    167 H167        1.6830  -21.0000  -39.1375 H         1 UNK         0.0600 
    168 H168        0.0604  -21.3941  -39.6925 H         1 UNK         0.0600 
    169 H169        2.2674  -18.6036  -39.4172 H         1 UNK         0.3000 
    170 H170        3.0824  -16.4835  -39.4843 H         1 UNK         0.0600 
    171 H171        4.7094  -17.9618  -40.6953 H         1 UNK         0.0600 
    172 H172        4.5776  -16.9482  -42.1278 H         1 UNK         0.0600 
    173 H173        5.2770  -16.3028  -40.6443 H         1 UNK         0.0600 
    174 H174        3.5528  -14.7651  -41.7171 H         1 UNK         0.3000 
    175 H175        2.0068  -12.2032  -40.3010 H         1 UNK         0.0600 
    176 H176        3.1358  -13.1711  -42.9818 H         1 UNK         0.0600 
    177 H177        3.0631  -11.4991  -42.4444 H         1 UNK         0.0600 
    178 H178        4.0609  -12.6469  -41.5755 H         1 UNK         0.0600 
    179 H179        0.6246  -12.9228  -42.8296 H         1 UNK         0.3000 
    180 H180       -2.5309  -12.1040  -41.6370 H         1 UNK         0.0600 
    181 H181       -0.9579  -10.0348  -43.2642 H         1 UNK         0.0600 
    182 H182       -1.8768   -9.7057  -41.7998 H         1 UNK         0.0600 
    183 H183       -2.7113  -10.2195  -43.2580 H         1 UNK         0.0600 
    184 H184       -1.3854  -12.2131  -44.2962 H         1 UNK         0.3000 
    185 H185       -0.9557  -15.6321  -44.5084 H         1 UNK         0.0600 
    186 H186       -2.6983  -15.7444  -46.3192 H         1 UNK         0.0600 
    187 H187       -3.4382  -15.8219  -44.7278 H         1 UNK         0.0600 
    188 H188       -3.4919  -14.3222  -45.6468 H         1 UNK         0.0600 
    189 H189       -1.2393  -13.7258  -46.5868 H         1 UNK         0.3000 
    190 H190       -0.0592  -19.1231  -48.3142 H         1 UNK         0.3000 
    191 H191       -0.8988  -18.1314  -50.8086 H         1 UNK         0.0600 
    192 H192       -2.2550  -16.5525  -49.4568 H         1 UNK         0.0600 
    193 H193       -0.6293  -16.7150  -48.8126 H         1 UNK         0.0600 
    194 H194       -1.9771  -17.5175  -48.0140 H         1 UNK         0.0600 
    195 H195       -2.8787  -19.8388  -48.2942 H         1 UNK         0.3000 
    196 H196       -4.5212  -21.1417  -50.2298 H         1 UNK         0.0600 
    197 H197       -5.7511  -18.6405  -48.9392 H         1 UNK         0.0600 
    198 H198       -5.5668  -18.9477  -50.6650 H         1 UNK         0.0600 
    199 H199       -6.7047  -19.8864  -49.7319 H         1 UNK         0.0600 
    200 H200       -3.7680  -20.4937  -46.8748 H         1 UNK         0.3000 
    201 H201       -6.0783  -21.7276  -45.7296 H         1 UNK         0.0600 
    202 H202       -3.3423  -21.3450  -44.4143 H         1 UNK         0.0600 
    203 H203       -4.9016  -21.4621  -43.6270 H         1 UNK         0.0600 
    204 H204       -4.5250  -20.0480  -44.5928 H         1 UNK         0.0600 
    205 H205       -5.8315  -23.5863  -44.1361 H         1 UNK         0.3000 
    206 H206       -5.7852  -25.7711  -43.7904 H         1 UNK         0.0600 
    207 H207       -3.3315  -25.3713  -43.4296 H         1 UNK         0.0600 
    208 H208       -3.6675  -26.9960  -44.0041 H         1 UNK         0.0600 
    209 H209       -3.0197  -25.7957  -45.1116 H         1 UNK         0.0600 
    210 H210       -7.0513  -24.8115  -46.1269 H         1 UNK         0.3000 
    211 H211       -8.2223  -25.4213  -47.8762 H         1 UNK         0.0600 
    212 H212       -8.8638  -27.7622  -48.2167 H         1 UNK         0.0600 
    213 H213       -8.8075  -27.4324  -46.4945 H         1 UNK         0.0600 
    214 H214       -7.5017  -28.3329  -47.2651 H         1 UNK         0.0600 
    215 H215       -5.2706  -24.8654  -48.2012 H         1 UNK         0.3000 
    216 H216       -4.4073  -26.3011  -50.5454 H         1 UNK         0.0600 
    217 H217       -3.5075  -23.5869  -49.4434 H         1 UNK         0.0600 
    218 H218       -2.6576  -24.5505  -50.6413 H         1 UNK         0.0600 
    219 H219       -2.8264  -25.1475  -48.9986 H         1 UNK         0.0600 
    220 H220       -6.1875  -23.3043  -49.9760 H         1 UNK         0.3000 
    221 H221       -7.4946  -21.9887  -51.1341 H         1 UNK         0.0600 
    222 H222       -8.5259  -24.0979  -52.0785 H         1 UNK         0.0600 
    223 H223       -7.4458  -23.9849  -53.4661 H         1 UNK         0.0600 
    224 H224       -8.6452  -22.7357  -53.1762 H         1 UNK         0.0600 
    225 H225       -7.6964  -20.6201  -53.2151 H         1 UNK         0.3000 
    226 H226       -5.2958  -19.1945  -53.6003 H         1 UNK         0.0600 
    227 H227       -7.8990  -19.1528  -55.2225 H         1 UNK         0.0600 
    228 H228       -7.5514  -18.1807  -53.7911 H         1 UNK         0.0600 
    229 H229       -6.6482  -17.9162  -55.2733 H         1 UNK         0.0600 
    230 H230       -6.4581  -21.9822  -55.2696 H         1 UNK         0.3000 
    231 H231       -5.0617  -21.8532  -57.7349 H         1 UNK         0.0600 
    232 H232       -5.9112  -24.2546  -56.0235 H         1 UNK         0.0600 
    233 H233       -5.4323  -24.3313  -57.7152 H         1 UNK         0.0600 
    234 H234       -6.8919  -23.4671  -57.2614 H         1 UNK         0.0600 
    235 H235       -3.8346  -22.3279  -54.4822 H         1 UNK         0.3000 
    236 H236       -1.3688  -23.6407  -55.1475 H         1 UNK         0.0600 
    237 H237       -2.3271  -23.5674  -52.8421 H         1 UNK         0.0600 
    238 H238       -0.6988  -22.9024  -52.8768 H         1 UNK         0.0600 
    239 H239       -2.0827  -21.8223  -52.7853 H         1 UNK         0.0600 
    240 H240       -2.4710  -20.2851  -55.3163 H         1 UNK         0.3000 
    241 H241        0.2419  -19.3379  -56.1163 H         1 UNK         0.0600 
    242 H242       -2.7427  -19.2256  -58.9669 H         1 UNK         0.3800 
    243 H243       -3.2036  -19.5290  -57.3053 H         1 UNK         0.3800 
    244 H244       -2.2232  -17.7309  -55.3060 H         1 UNK         0.0800 
    245 H245       -0.7372  -17.0304  -55.8923 H         1 UNK         0.0800 
    246 H246        1.0135  -16.1331  -54.3098 H         1 UNK         0.0800 
    247 H247        1.6768  -17.6980  -54.7179 H         1 UNK         0.0800 
@<TRIPOS>BOND
     1    1    2 1    
     2    1  127 1    
     3    1  128 1    
     4    1  129 1    
     5    2    3 2    
     6    2    4 am   BACKBONE|DICT|INTERRES
     7    4    5 1    
     8    4  130 1    
     9    5    6 1    
    10    5   65 1    
    11    5  131 1    
    12    6    7 1    
    13    6  132 1    
    14    6  133 1    
    15    7    8 1    
    16    8    9 1    
    17    8  134 1    
    18    8  135 1    
    19    9   10 ar   
    20    9   14 ar   
    21   10   11 ar   
    22   10  136 1    
    23   11   12 ar   
    24   11  126 1    
    25   12   13 ar   
    26   12  137 1    
    27   13   14 ar   
    28   13   15 1    
    29   14  138 1    
    30   15   16 1    
    31   15  139 1    
    32   15  140 1    
    33   16   17 1    
    34   17   18 1    
    35   17  141 1    
    36   17  142 1    
    37   18   19 1    
    38   18   67 1    
    39   18  143 1    
    40   19   20 am   BACKBONE|DICT|INTERRES
    41   19  144 1    
    42   20   21 2    
    43   20   22 1    
    44   22   23 1    
    45   22   24 1    
    46   22  145 1    
    47   23  146 1    
    48   23  147 1    
    49   23  148 1    
    50   24   25 am   BACKBONE|DICT|INTERRES
    51   24  149 1    
    52   25   26 2    
    53   25   27 1    
    54   27   28 1    
    55   27   29 1    
    56   27  150 1    
    57   28  151 1    
    58   28  152 1    
    59   28  153 1    
    60   29   30 am   BACKBONE|DICT|INTERRES
    61   29  154 1    
    62   30   31 2    
    63   30   32 1    
    64   32   33 1    
    65   32   34 1    
    66   32  155 1    
    67   33  156 1    
    68   33  157 1    
    69   33  158 1    
    70   34   35 am   BACKBONE|DICT|INTERRES
    71   34  159 1    
    72   35   36 2    
    73   35   37 1    
    74   37   38 1    
    75   37   39 1    
    76   37  160 1    
    77   38  161 1    
    78   38  162 1    
    79   38  163 1    
    80   39   40 am   BACKBONE|DICT|INTERRES
    81   39  164 1    
    82   40   41 2    
    83   40   42 1    
    84   42   43 1    
    85   42   44 1    
    86   42  165 1    
    87   43  166 1    
    88   43  167 1    
    89   43  168 1    
    90   44   45 am   BACKBONE|DICT|INTERRES
    91   44  169 1    
    92   45   46 2    
    93   45   47 1    
    94   47   48 1    
    95   47   49 1    
    96   47  170 1    
    97   48  171 1    
    98   48  172 1    
    99   48  173 1    
   100   49   50 am   BACKBONE|DICT|INTERRES
   101   49  174 1    
   102   50   51 2    
   103   50   52 1    
   104   52   53 1    
   105   52   54 1    
   106   52  175 1    
   107   53  176 1    
   108   53  177 1    
   109   53  178 1    
   110   54   55 am   BACKBONE|DICT|INTERRES
   111   54  179 1    
   112   55   56 2    
   113   55   57 1    
   114   57   58 1    
   115   57   59 1    
   116   57  180 1    
   117   58  181 1    
   118   58  182 1    
   119   58  183 1    
   120   59   60 am   BACKBONE|DICT|INTERRES
   121   59  184 1    
   122   60   61 2    
   123   60   62 1    
   124   62   63 1    
   125   62   64 1    
   126   62  185 1    
   127   63  186 1    
   128   63  187 1    
   129   63  188 1    
   130   64   65 am   BACKBONE|DICT|INTERRES
   131   64  189 1    
   132   65   66 2    
   133   67   68 2    
   134   67   69 am   BACKBONE|DICT|INTERRES
   135   69   70 1    
   136   69  190 1    
   137   70   71 1    
   138   70   72 1    
   139   70  191 1    
   140   71  192 1    
   141   71  193 1    
   142   71  194 1    
   143   72   73 2    
   144   72   74 am   BACKBONE|DICT|INTERRES
   145   74   75 1    
   146   74  195 1    
   147   75   76 1    
   148   75   77 1    
   149   75  196 1    
   150   76  197 1    
   151   76  198 1    
   152   76  199 1    
   153   77   78 2    
   154   77   79 am   BACKBONE|DICT|INTERRES
   155   79   80 1    
   156   79  200 1    
   157   80   81 1    
   158   80   82 1    
   159   80  201 1    
   160   81  202 1    
   161   81  203 1    
   162   81  204 1    
   163   82   83 2    
   164   82   84 am   BACKBONE|DICT|INTERRES
   165   84   85 1    
   166   84  205 1    
   167   85   86 1    
   168   85   87 1    
   169   85  206 1    
   170   86  207 1    
   171   86  208 1    
   172   86  209 1    
   173   87   88 2    
   174   87   89 am   BACKBONE|DICT|INTERRES
   175   89   90 1    
   176   89  210 1    
   177   90   91 1    
   178   90   92 1    
   179   90  211 1    
   180   91  212 1    
   181   91  213 1    
   182   91  214 1    
   183   92   93 2    
   184   92   94 am   BACKBONE|DICT|INTERRES
   185   94   95 1    
   186   94  215 1    
   187   95   96 1    
   188   95   97 1    
   189   95  216 1    
   190   96  217 1    
   191   96  218 1    
   192   96  219 1    
   193   97   98 2    
   194   97   99 am   BACKBONE|DICT|INTERRES
   195   99  100 1    
   196   99  220 1    
   197  100  101 1    
   198  100  102 1    
   199  100  221 1    
   200  101  222 1    
   201  101  223 1    
   202  101  224 1    
   203  102  103 2    
   204  102  104 am   BACKBONE|DICT|INTERRES
   205  104  105 1    
   206  104  225 1    
   207  105  106 1    
   208  105  107 1    
   209  105  226 1    
   210  106  227 1    
   211  106  228 1    
   212  106  229 1    
   213  107  108 2    
   214  107  109 am   BACKBONE|DICT|INTERRES
   215  109  110 1    
   216  109  230 1    
   217  110  111 1    
   218  110  112 1    
   219  110  231 1    
   220  111  232 1    
   221  111  233 1    
   222  111  234 1    
   223  112  113 2    
   224  112  114 am   BACKBONE|DICT|INTERRES
   225  114  115 1    
   226  114  235 1    
   227  115  116 1    
   228  115  117 1    
   229  115  236 1    
   230  116  237 1    
   231  116  238 1    
   232  116  239 1    
   233  117  118 2    
   234  117  119 am   BACKBONE|DICT|INTERRES
   235  119  120 1    
   236  119  240 1    
   237  120  121 1    
   238  120  124 1    
   239  120  241 1    
   240  121  122 am   BACKBONE|DICT|INTERRES
   241  121  123 2    
   242  122  242 1    
   243  122  243 1    
   244  124  125 1    
   245  124  244 1    
   246  124  245 1    
   247  125  126 1    
   248  126  246 1    
   249  126  247 1    
@<TRIPOS>SUBSTRUCTURE
     1 UNK         1 GROUP             0       ****    0 ROOT    
