@<TRIPOS>MOLECULE
3R540
247   249    1
SMALL
USER_CHARGES


@<TRIPOS>ATOM
      1 CA         -5.6383  -11.5664  -48.6322 C.3       0 UNK        -0.1800 
      2 C          -4.7098  -12.7000  -48.2207 C.2       0 UNK         0.5000 
      3 O          -3.5089  -12.6326  -48.4808 O.2       0 UNK        -0.5000 
      4 N          -5.2607  -13.7356  -47.5737 N.am      1 UNK        -0.5000 
      5 CA         -4.5314  -14.9286  -47.1203 C.3       1 UNK         0.1400 
      6 C6         -5.4876  -16.1030  -46.7923 C.3       23 UNK        -0.0398 
      7 S7         -6.3890  -16.6920  -48.2672 S.3       23 UNK        -0.2404 
      8 C8         -5.3911  -18.1341  -48.7637 C.3       23 UNK        -0.0205 
      9 C9         -3.9725  -17.7374  -49.1427 C.ar      23 UNK        -0.0193 
     10 C10        -3.7074  -17.1793  -50.3959 C.ar      23 UNK        -0.1150 
     11 C11        -2.4235  -16.7242  -50.7123 C.ar      23 UNK        -0.0193 
     12 C12        -1.4038  -16.8290  -49.7624 C.ar      23 UNK        -0.1150 
     13 C13        -1.6497  -17.4146  -48.5173 C.ar      23 UNK        -0.0193 
     14 C14        -2.9328  -17.8797  -48.2197 C.ar      23 UNK        -0.1150 
     15 C15        -0.5523  -17.4996  -47.4667 C.3       23 UNK        -0.0205 
     16 S16         0.9707  -18.3045  -48.0613 S.3       23 UNK        -0.2404 
     17 C17         0.3915  -19.9782  -48.5265 C.3       23 UNK        -0.0398 
     18 CA          0.4424  -21.0349  -47.3884 C.3       11 UNK         0.1400 
     19 N           1.7061  -21.0342  -46.6580 N.am      11 UNK        -0.5000 
     20 C           2.8323  -21.6146  -47.0867 C.2       10 UNK         0.5000 
     21 O           2.9070  -22.2538  -48.1368 O.2       10 UNK        -0.5000 
     22 CA          4.0886  -21.4700  -46.2114 C.3       10 UNK         0.1400 
     23 CB          4.9836  -20.3440  -46.7513 C.3       10 UNK        -0.1800 
     24 N           3.7558  -21.1737  -44.8183 N.am      10 UNK        -0.5000 
     25 C           3.9653  -21.9991  -43.7855 C.2       9 UNK         0.5000 
     26 O           4.4485  -23.1270  -43.8910 O.2       9 UNK        -0.5000 
     27 CA          3.5546  -21.4819  -42.4003 C.3       9 UNK         0.1400 
     28 CB          4.4921  -20.3571  -41.9357 C.3       9 UNK        -0.1800 
     29 N           2.1772  -20.9925  -42.4260 N.am      9 UNK        -0.5000 
     30 C           1.1900  -21.4386  -41.6379 C.2       8 UNK         0.5000 
     31 O           1.3491  -22.2996  -40.7707 O.2       8 UNK        -0.5000 
     32 CA         -0.2204  -20.8559  -41.8722 C.3       8 UNK         0.1400 
     33 CB         -1.0377  -20.7113  -40.5712 C.3       8 UNK        -0.1800 
     34 N          -0.2278  -19.6146  -42.6521 N.am      8 UNK        -0.5000 
     35 C           0.2306  -18.4103  -42.2894 C.2       7 UNK         0.5000 
     36 O           0.7121  -18.1485  -41.1855 O.2       7 UNK        -0.5000 
     37 CA          0.1583  -17.3171  -43.3700 C.3       7 UNK         0.1400 
     38 CB         -0.6946  -16.1284  -42.9053 C.3       7 UNK        -0.1800 
     39 N           1.4855  -16.8346  -43.7395 N.am      7 UNK        -0.5000 
     40 C           2.4496  -17.5754  -44.3023 C.2       6 UNK         0.5000 
     41 O           2.3340  -18.7764  -44.5614 O.2       6 UNK        -0.5000 
     42 CA          3.7723  -16.8567  -44.6257 C.3       6 UNK         0.1400 
     43 CB          3.7732  -16.3721  -46.0830 C.3       6 UNK        -0.1800 
     44 N           4.0407  -15.7236  -43.7344 N.am      6 UNK        -0.5000 
     45 C           4.4490  -15.8578  -42.4628 C.2       5 UNK         0.5000 
     46 O           4.6541  -16.9486  -41.9318 O.2       5 UNK        -0.5000 
     47 CA          4.6921  -14.5801  -41.6344 C.3       5 UNK         0.1400 
     48 CB          6.1991  -14.3197  -41.4820 C.3       5 UNK        -0.1800 
     49 N           4.0633  -13.3745  -42.1732 N.am      5 UNK        -0.5000 
     50 C           2.7473  -13.1306  -42.1945 C.2       4 UNK         0.5000 
     51 O           1.9004  -13.9299  -41.7926 O.2       4 UNK        -0.5000 
     52 CA          2.2899  -11.7734  -42.7729 C.3       4 UNK         0.1400 
     53 CB          3.4455  -10.8407  -43.2021 C.3       4 UNK        -0.1800 
     54 N           1.3468  -11.9429  -43.8797 N.am      4 UNK        -0.5000 
     55 C           1.5237  -12.6622  -44.9955 C.2       3 UNK         0.5000 
     56 O           2.5500  -13.3013  -45.2370 O.2       3 UNK        -0.5000 
     57 CA          0.3450  -12.6707  -45.9934 C.3       3 UNK         0.1400 
     58 CB          0.6235  -13.5504  -47.2248 C.3       3 UNK        -0.1800 
     59 N          -0.9087  -13.1118  -45.3774 N.am      3 UNK        -0.5000 
     60 C          -1.6990  -12.3899  -44.5734 C.2       2 UNK         0.5000 
     61 O          -1.4322  -11.2369  -44.2279 O.2       2 UNK        -0.5000 
     62 CA         -2.9995  -13.0695  -44.0881 C.3       2 UNK         0.1400 
     63 CB         -3.8605  -12.1444  -43.2095 C.3       2 UNK        -0.1800 
     64 N          -3.8175  -13.5463  -45.2043 N.am      2 UNK        -0.5000 
     65 C          -3.5895  -14.6501  -45.9292 C.2       1 UNK         0.5000 
     66 O          -2.6609  -15.4256  -45.6980 O.2       1 UNK        -0.5000 
     67 C          -0.7244  -20.8898  -46.4021 C.2       11 UNK         0.5000 
     68 O          -0.5523  -20.3288  -45.3178 O.2       11 UNK        -0.5000 
     69 N          -1.8965  -21.3870  -46.8045 N.am      12 UNK        -0.5000 
     70 CA         -3.1531  -21.3293  -46.0708 C.3       12 UNK         0.1400 
     71 CB         -3.1314  -22.3132  -44.8858 C.3       12 UNK        -0.1800 
     72 C          -4.2772  -21.6962  -47.0456 C.2       12 UNK         0.5000 
     73 O          -4.0263  -22.3954  -48.0313 O.2       12 UNK        -0.5000 
     74 N          -5.5060  -21.2676  -46.7339 N.am      13 UNK        -0.5000 
     75 CA         -6.7068  -21.6092  -47.5039 C.3       13 UNK         0.1400 
     76 CB         -7.8789  -20.7333  -47.0364 C.3       13 UNK        -0.1800 
     77 C          -7.0660  -23.1042  -47.3996 C.2       13 UNK         0.5000 
     78 O          -7.5614  -23.6817  -48.3666 O.2       13 UNK        -0.5000 
     79 N          -6.7632  -23.7086  -46.2412 N.am      14 UNK        -0.5000 
     80 CA         -6.9437  -25.1335  -45.9582 C.3       14 UNK         0.1400 
     81 CB         -6.7874  -25.3627  -44.4471 C.3       14 UNK        -0.1800 
     82 C          -5.9758  -26.0421  -46.7418 C.2       14 UNK         0.5000 
     83 O          -6.3051  -27.2043  -46.9816 O.2       14 UNK        -0.5000 
     84 N          -4.8098  -25.5050  -47.1333 N.am      15 UNK        -0.5000 
     85 CA         -3.8255  -26.1974  -47.9689 C.3       15 UNK         0.1400 
     86 CB         -2.4624  -25.4999  -47.8387 C.3       15 UNK        -0.1800 
     87 C          -4.2602  -26.2698  -49.4450 C.2       15 UNK         0.5000 
     88 O          -3.8529  -27.1955  -50.1477 O.2       15 UNK        -0.5000 
     89 N          -5.0818  -25.2990  -49.8743 N.am      16 UNK        -0.5000 
     90 CA         -5.7189  -25.1260  -51.1842 C.3       16 UNK         0.1400 
     91 CB         -6.6711  -26.2933  -51.5053 C.3       16 UNK        -0.1800 
     92 C          -4.7320  -24.8660  -52.3355 C.2       16 UNK         0.5000 
     93 O          -4.8018  -23.8114  -52.9654 O.2       16 UNK        -0.5000 
     94 N          -3.8112  -25.8059  -52.5770 N.am      17 UNK        -0.5000 
     95 CA         -2.7919  -25.7409  -53.6255 C.3       17 UNK         0.1400 
     96 CB         -2.0399  -27.0782  -53.6874 C.3       17 UNK        -0.1800 
     97 C          -1.8101  -24.5730  -53.4294 C.2       17 UNK         0.5000 
     98 O          -1.4368  -23.9200  -54.4025 O.2       17 UNK        -0.5000 
     99 N          -1.4508  -24.3004  -52.1678 N.am      18 UNK        -0.5000 
    100 CA        -0.5769  -23.1922  -51.7815 C.3       18 UNK         0.1400 
    101 CB        -0.1136  -23.4010  -50.3339 C.3       18 UNK        -0.1800 
    102 C         -1.2418  -21.8116  -51.9475 C.2       18 UNK         0.5000 
    103 O         -0.5360  -20.8303  -52.1726 O.2       18 UNK        -0.5000 
    104 N         -2.5776  -21.7634  -51.8490 N.am      19 UNK        -0.5000 
    105 CA        -3.3795  -20.5709  -52.1180 C.3       19 UNK         0.1400 
    106 CB        -4.7171  -20.6746  -51.3707 C.3       19 UNK        -0.1800 
    107 C         -3.6030  -20.3748  -53.6281 C.2       19 UNK         0.5000 
    108 O         -3.5372  -19.2460  -54.1117 O.2       19 UNK        -0.5000 
    109 N         -3.8323  -21.4765  -54.3588 N.am      20 UNK        -0.5000 
    110 CA        -3.9735  -21.4962  -55.8178 C.3       20 UNK         0.1400 
    111 CB        -4.4185  -22.8946  -56.2700 C.3       20 UNK        -0.1800 
    112 C         -2.6863  -21.0701  -56.5504 C.2       20 UNK         0.5000 
    113 O         -2.7645  -20.4055  -57.5854 O.2       20 UNK        -0.5000 
    114 N         -1.5261  -21.4099  -55.9693 N.am      21 UNK        -0.5000 
    115 CA        -0.1867  -21.0331  -56.4301 C.3       21 UNK         0.1400 
    116 CB         0.8616  -21.7217  -55.5424 C.3       21 UNK        -0.1800 
    117 C          0.0725  -19.5122  -56.4898 C.2       21 UNK         0.5000 
    118 O          1.0030  -19.0940  -57.1805 O.2       21 UNK        -0.5000 
    119 N         -0.7517  -18.7115  -55.7999 N.am      22 UNK        -0.5000 
    120 CA        -0.7662  -17.2434  -55.8996 C.3       22 UNK         0.1400 
    121 C         -1.2762  -16.7040  -57.2708 C.2       22 UNK         0.5000 
    122 N         -1.9425  -17.5005  -58.1008 N.am      22 UNK        -0.7600 
    123 O         -1.0594  -15.5378  -57.5884 O.2       22 UNK        -0.5000 
    124 C124       -1.5669  -16.5845  -54.7478 C.3       23 UNK        -0.0398 
    125 S125       -1.0497  -17.1230  -53.0841 S.3       23 UNK        -0.2404 
    126 C126       -2.1475  -16.0890  -52.0656 C.3       23 UNK        -0.0205 
    127 H127       -5.3195  -10.6331  -48.1682 H         1 UNK         0.0600 
    128 H128       -6.6699  -11.7588  -48.3363 H         1 UNK         0.0600 
    129 H129       -5.6139  -11.4363  -49.7141 H         1 UNK         0.0600 
    130 H130       -6.2572  -13.7432  -47.4079 H         1 UNK         0.3000 
    131 H131       -3.8827  -15.2354  -47.9421 H         1 UNK         0.0600 
    132 H132       -4.9476  -16.9432  -46.3529 H         1 UNK         0.0800 
    133 H133       -6.2193  -15.7984  -46.0423 H         1 UNK         0.0800 
    134 H134       -5.8805  -18.6227  -49.6056 H         1 UNK         0.0800 
    135 H135       -5.3800  -18.8586  -47.9515 H         1 UNK         0.0800 
    136 H136       -4.5096  -17.0742  -51.1128 H         1 UNK         0.1150 
    137 H137       -0.4151  -16.4595  -49.9960 H         1 UNK         0.1150 
    138 H138       -3.1327  -18.3070  -47.2478 H         1 UNK         0.1150 
    139 H139       -0.3117  -16.4896  -47.1413 H         1 UNK         0.0800 
    140 H140       -0.9086  -18.0149  -46.5762 H         1 UNK         0.0800 
    141 H141       -0.6028  -19.9209  -48.9725 H         1 UNK         0.0800 
    142 H142        1.0398  -20.3112  -49.3376 H         1 UNK         0.0800 
    143 H143        0.3251  -22.0238  -47.8334 H         1 UNK         0.0600 
    144 H144        1.6965  -20.4981  -45.7988 H         1 UNK         0.3000 
    145 H145        4.6436  -22.4074  -46.2844 H         1 UNK         0.0600 
    146 H146        4.4727  -19.3820  -46.7275 H         1 UNK         0.0600 
    147 H147        5.8989  -20.2527  -46.1663 H         1 UNK         0.0600 
    148 H148        5.2748  -20.5362  -47.7847 H         1 UNK         0.0600 
    149 H149        3.3343  -20.2634  -44.6500 H         1 UNK         0.3000 
    150 H150        3.6565  -22.3139  -41.7006 H         1 UNK         0.0600 
    151 H151        5.5245  -20.7047  -41.8835 H         1 UNK         0.0600 
    152 H152        4.2168  -19.9988  -40.9437 H         1 UNK         0.0600 
    153 H153        4.4666  -19.5054  -42.6150 H         1 UNK         0.0600 
    154 H154        1.9594  -20.2801  -43.1124 H         1 UNK         0.3000 
    155 H155       -0.7335  -21.5904  -42.4929 H         1 UNK         0.0600 
    156 H156       -2.0268  -20.2990  -40.7705 H         1 UNK         0.0600 
    157 H157       -0.5415  -20.0632  -39.8486 H         1 UNK         0.0600 
    158 H158       -1.1828  -21.6797  -40.0914 H         1 UNK         0.0600 
    159 H159       -0.5094  -19.7407  -43.6247 H         1 UNK         0.3000 
    160 H160       -0.3039  -17.7308  -44.2680 H         1 UNK         0.0600 
    161 H161       -0.2958  -15.6736  -41.9977 H         1 UNK         0.0600 
    162 H162       -1.7190  -16.4400  -42.6984 H         1 UNK         0.0600 
    163 H163       -0.7358  -15.3579  -43.6731 H         1 UNK         0.0600 
    164 H164        1.7000  -15.8780  -43.4956 H         1 UNK         0.3000 
    165 H165        4.5787  -17.5848  -44.5143 H         1 UNK         0.0600 
    166 H166        2.9660  -15.6658  -46.2739 H         1 UNK         0.0600 
    167 H167        4.7144  -15.8861  -46.3395 H         1 UNK         0.0600 
    168 H168        3.6372  -17.2041  -46.7737 H         1 UNK         0.0600 
    169 H169        3.8644  -14.7973  -44.1051 H         1 UNK         0.3000 
    170 H170        4.2766  -14.7591  -40.6404 H         1 UNK         0.0600 
    171 H171        6.7042  -15.1828  -41.0460 H         1 UNK         0.0600 
    172 H172        6.6708  -14.1153  -42.4440 H         1 UNK         0.0600 
    173 H173        6.3894  -13.4699  -40.8261 H         1 UNK         0.0600 
    174 H174        4.6852  -12.6741  -42.5503 H         1 UNK         0.3000 
    175 H175        1.7412  -11.2738  -41.9734 H         1 UNK         0.0600 
    176 H176        4.0425  -11.2681  -44.0088 H         1 UNK         0.0600 
    177 H177        3.0595   -9.8839  -43.5538 H         1 UNK         0.0600 
    178 H178        4.1124  -10.6243  -42.3665 H         1 UNK         0.0600 
    179 H179        0.4433  -11.4922  -43.7677 H         1 UNK         0.3000 
    180 H180        0.2128  -11.6452  -46.3440 H         1 UNK         0.0600 
    181 H181        0.8460  -14.5773  -46.9384 H         1 UNK         0.0600 
    182 H182        1.4816  -13.1763  -47.7845 H         1 UNK         0.0600 
    183 H183       -0.2281  -13.5656  -47.9058 H         1 UNK         0.0600 
    184 H184       -1.2175  -14.0518  -45.6028 H         1 UNK         0.3000 
    185 H185       -2.7089  -13.9251  -43.4760 H         1 UNK         0.0600 
    186 H186       -3.3029  -11.8024  -42.3366 H         1 UNK         0.0600 
    187 H187       -4.1906  -11.2606  -43.7570 H         1 UNK         0.0600 
    188 H188       -4.7469  -12.6621  -42.8424 H         1 UNK         0.0600 
    189 H189       -4.5771  -12.9461  -45.4901 H         1 UNK         0.3000 
    190 H190       -1.9921  -21.8214  -47.7143 H         1 UNK         0.3000 
    191 H191       -3.3128  -20.3114  -45.7096 H         1 UNK         0.0600 
    192 H192       -4.0801  -22.3059  -44.3481 H         1 UNK         0.0600 
    193 H193       -2.3567  -22.0527  -44.1665 H         1 UNK         0.0600 
    194 H194       -2.9473  -23.3363  -45.2164 H         1 UNK         0.0600 
    195 H195       -5.6444  -20.7097  -45.9034 H         1 UNK         0.3000 
    196 H196       -6.5140  -21.3876  -48.5560 H         1 UNK         0.0600 
    197 H197       -8.7816  -20.9534  -47.6079 H         1 UNK         0.0600 
    198 H198       -7.6616  -19.6739  -47.1726 H         1 UNK         0.0600 
    199 H199       -8.1097  -20.8962  -45.9830 H         1 UNK         0.0600 
    200 H200       -6.3684  -23.1492  -45.5002 H         1 UNK         0.3000 
    201 H201       -7.9604  -25.4111  -46.2444 H         1 UNK         0.0600 
    202 H202       -7.5172  -24.7824  -43.8821 H         1 UNK         0.0600 
    203 H203       -5.7922  -25.0838  -44.0980 H         1 UNK         0.0600 
    204 H204       -6.9423  -26.4121  -44.1928 H         1 UNK         0.0600 
    205 H205       -4.6213  -24.5375  -46.9164 H         1 UNK         0.3000 
    206 H206       -3.7170  -27.2212  -47.6044 H         1 UNK         0.0600 
    207 H207       -2.1312  -25.4694  -46.8006 H         1 UNK         0.0600 
    208 H208       -1.6976  -26.0299  -48.4080 H         1 UNK         0.0600 
    209 H209       -2.4942  -24.4770  -48.2105 H         1 UNK         0.0600 
    210 H210       -5.3256  -24.5872  -49.1993 H         1 UNK         0.3000 
    211 H211       -6.3320  -24.2277  -51.0927 H         1 UNK         0.0600 
    212 H212       -6.1435  -27.2426  -51.6003 H         1 UNK         0.0600 
    213 H213       -7.1978  -26.1180  -52.4442 H         1 UNK         0.0600 
    214 H214       -7.4251  -26.4072  -50.7263 H         1 UNK         0.0600 
    215 H215       -3.7854  -26.6045  -51.9484 H         1 UNK         0.3000 
    216 H216       -3.3018  -25.5910  -54.5789 H         1 UNK         0.0600 
    217 H217       -1.5389  -27.3031  -52.7449 H         1 UNK         0.0600 
    218 H218       -1.2798  -27.0635  -54.4697 H         1 UNK         0.0600 
    219 H219       -2.7190  -27.9013  -53.9102 H         1 UNK         0.0600 
    220 H220       -1.8059  -24.8881  -51.4283 H         1 UNK         0.3000 
    221 H221        0.3039  -23.2160  -52.4271 H         1 UNK         0.0600 
    222 H222       -0.9371  -23.2962  -49.6276 H         1 UNK         0.0600 
    223 H223        0.3282  -24.3879  -50.1948 H         1 UNK         0.0600 
    224 H224        0.6504  -22.6695  -50.0709 H         1 UNK         0.0600 
    225 H225       -3.0839  -22.6217  -51.6899 H         1 UNK         0.3000 
    226 H226       -2.8502  -19.6926  -51.7413 H         1 UNK         0.0600 
    227 H227       -4.5599  -20.7251  -50.2932 H         1 UNK         0.0600 
    228 H228       -5.3395  -19.8029  -51.5737 H         1 UNK         0.0600 
    229 H229       -5.2861  -21.5553  -51.6672 H         1 UNK         0.0600 
    230 H230       -3.9536  -22.3638  -53.8794 H         1 UNK         0.3000 
    231 H231       -4.7578  -20.7854  -56.0856 H         1 UNK         0.0600 
    232 H232       -4.5881  -22.9201  -57.3471 H         1 UNK         0.0600 
    233 H233       -5.3500  -23.1889  -55.7861 H         1 UNK         0.0600 
    234 H234       -3.6674  -23.6497  -56.0388 H         1 UNK         0.0600 
    235 H235       -1.5631  -22.0233  -55.1623 H         1 UNK         0.3000 
    236 H236       -0.0747  -21.4150  -57.4466 H         1 UNK         0.0600 
    237 H237        0.7730  -21.4087  -54.5021 H         1 UNK         0.0600 
    238 H238        0.7598  -22.8063  -55.5781 H         1 UNK         0.0600 
    239 H239        1.8736  -21.4825  -55.8717 H         1 UNK         0.0600 
    240 H240       -1.4881  -19.1229  -55.2415 H         1 UNK         0.3000 
    241 H241        0.2684  -16.9076  -55.8076 H         1 UNK         0.0600 
    242 H242       -2.1414  -18.4648  -57.8571 H         1 UNK         0.3800 
    243 H243       -2.2620  -17.1364  -58.9845 H         1 UNK         0.3800 
    244 H244       -1.4693  -15.4983  -54.7944 H         1 UNK         0.0800 
    245 H245       -2.6306  -16.8021  -54.8595 H         1 UNK         0.0800 
    246 H246       -1.6914  -15.1082  -51.9243 H         1 UNK         0.0800 
    247 H247       -3.0860  -15.9194  -52.5957 H         1 UNK         0.0800 
@<TRIPOS>BOND
     1    1    2 1    
     2    1  127 1    
     3    1  128 1    
     4    1  129 1    
     5    2    3 2    
     6    2    4 am   BACKBONE|DICT|INTERRES
     7    4    5 1    
     8    4  130 1    
     9    5    6 1    
    10    5   65 1    
    11    5  131 1    
    12    6    7 1    
    13    6  132 1    
    14    6  133 1    
    15    7    8 1    
    16    8    9 1    
    17    8  134 1    
    18    8  135 1    
    19    9   10 ar   
    20    9   14 ar   
    21   10   11 ar   
    22   10  136 1    
    23   11   12 ar   
    24   11  126 1    
    25   12   13 ar   
    26   12  137 1    
    27   13   14 ar   
    28   13   15 1    
    29   14  138 1    
    30   15   16 1    
    31   15  139 1    
    32   15  140 1    
    33   16   17 1    
    34   17   18 1    
    35   17  141 1    
    36   17  142 1    
    37   18   19 1    
    38   18   67 1    
    39   18  143 1    
    40   19   20 am   BACKBONE|DICT|INTERRES
    41   19  144 1    
    42   20   21 2    
    43   20   22 1    
    44   22   23 1    
    45   22   24 1    
    46   22  145 1    
    47   23  146 1    
    48   23  147 1    
    49   23  148 1    
    50   24   25 am   BACKBONE|DICT|INTERRES
    51   24  149 1    
    52   25   26 2    
    53   25   27 1    
    54   27   28 1    
    55   27   29 1    
    56   27  150 1    
    57   28  151 1    
    58   28  152 1    
    59   28  153 1    
    60   29   30 am   BACKBONE|DICT|INTERRES
    61   29  154 1    
    62   30   31 2    
    63   30   32 1    
    64   32   33 1    
    65   32   34 1    
    66   32  155 1    
    67   33  156 1    
    68   33  157 1    
    69   33  158 1    
    70   34   35 am   BACKBONE|DICT|INTERRES
    71   34  159 1    
    72   35   36 2    
    73   35   37 1    
    74   37   38 1    
    75   37   39 1    
    76   37  160 1    
    77   38  161 1    
    78   38  162 1    
    79   38  163 1    
    80   39   40 am   BACKBONE|DICT|INTERRES
    81   39  164 1    
    82   40   41 2    
    83   40   42 1    
    84   42   43 1    
    85   42   44 1    
    86   42  165 1    
    87   43  166 1    
    88   43  167 1    
    89   43  168 1    
    90   44   45 am   BACKBONE|DICT|INTERRES
    91   44  169 1    
    92   45   46 2    
    93   45   47 1    
    94   47   48 1    
    95   47   49 1    
    96   47  170 1    
    97   48  171 1    
    98   48  172 1    
    99   48  173 1    
   100   49   50 am   BACKBONE|DICT|INTERRES
   101   49  174 1    
   102   50   51 2    
   103   50   52 1    
   104   52   53 1    
   105   52   54 1    
   106   52  175 1    
   107   53  176 1    
   108   53  177 1    
   109   53  178 1    
   110   54   55 am   BACKBONE|DICT|INTERRES
   111   54  179 1    
   112   55   56 2    
   113   55   57 1    
   114   57   58 1    
   115   57   59 1    
   116   57  180 1    
   117   58  181 1    
   118   58  182 1    
   119   58  183 1    
   120   59   60 am   BACKBONE|DICT|INTERRES
   121   59  184 1    
   122   60   61 2    
   123   60   62 1    
   124   62   63 1    
   125   62   64 1    
   126   62  185 1    
   127   63  186 1    
   128   63  187 1    
   129   63  188 1    
   130   64   65 am   BACKBONE|DICT|INTERRES
   131   64  189 1    
   132   65   66 2    
   133   67   68 2    
   134   67   69 am   BACKBONE|DICT|INTERRES
   135   69   70 1    
   136   69  190 1    
   137   70   71 1    
   138   70   72 1    
   139   70  191 1    
   140   71  192 1    
   141   71  193 1    
   142   71  194 1    
   143   72   73 2    
   144   72   74 am   BACKBONE|DICT|INTERRES
   145   74   75 1    
   146   74  195 1    
   147   75   76 1    
   148   75   77 1    
   149   75  196 1    
   150   76  197 1    
   151   76  198 1    
   152   76  199 1    
   153   77   78 2    
   154   77   79 am   BACKBONE|DICT|INTERRES
   155   79   80 1    
   156   79  200 1    
   157   80   81 1    
   158   80   82 1    
   159   80  201 1    
   160   81  202 1    
   161   81  203 1    
   162   81  204 1    
   163   82   83 2    
   164   82   84 am   BACKBONE|DICT|INTERRES
   165   84   85 1    
   166   84  205 1    
   167   85   86 1    
   168   85   87 1    
   169   85  206 1    
   170   86  207 1    
   171   86  208 1    
   172   86  209 1    
   173   87   88 2    
   174   87   89 am   BACKBONE|DICT|INTERRES
   175   89   90 1    
   176   89  210 1    
   177   90   91 1    
   178   90   92 1    
   179   90  211 1    
   180   91  212 1    
   181   91  213 1    
   182   91  214 1    
   183   92   93 2    
   184   92   94 am   BACKBONE|DICT|INTERRES
   185   94   95 1    
   186   94  215 1    
   187   95   96 1    
   188   95   97 1    
   189   95  216 1    
   190   96  217 1    
   191   96  218 1    
   192   96  219 1    
   193   97   98 2    
   194   97   99 am   BACKBONE|DICT|INTERRES
   195   99  100 1    
   196   99  220 1    
   197  100  101 1    
   198  100  102 1    
   199  100  221 1    
   200  101  222 1    
   201  101  223 1    
   202  101  224 1    
   203  102  103 2    
   204  102  104 am   BACKBONE|DICT|INTERRES
   205  104  105 1    
   206  104  225 1    
   207  105  106 1    
   208  105  107 1    
   209  105  226 1    
   210  106  227 1    
   211  106  228 1    
   212  106  229 1    
   213  107  108 2    
   214  107  109 am   BACKBONE|DICT|INTERRES
   215  109  110 1    
   216  109  230 1    
   217  110  111 1    
   218  110  112 1    
   219  110  231 1    
   220  111  232 1    
   221  111  233 1    
   222  111  234 1    
   223  112  113 2    
   224  112  114 am   BACKBONE|DICT|INTERRES
   225  114  115 1    
   226  114  235 1    
   227  115  116 1    
   228  115  117 1    
   229  115  236 1    
   230  116  237 1    
   231  116  238 1    
   232  116  239 1    
   233  117  118 2    
   234  117  119 am   BACKBONE|DICT|INTERRES
   235  119  120 1    
   236  119  240 1    
   237  120  121 1    
   238  120  124 1    
   239  120  241 1    
   240  121  122 am   BACKBONE|DICT|INTERRES
   241  121  123 2    
   242  122  242 1    
   243  122  243 1    
   244  124  125 1    
   245  124  244 1    
   246  124  245 1    
   247  125  126 1    
   248  126  246 1    
   249  126  247 1    
@<TRIPOS>SUBSTRUCTURE
     1 UNK         1 GROUP             0       ****    0 ROOT    
