@<TRIPOS>MOLECULE
3R540
247   249    1
SMALL
USER_CHARGES


@<TRIPOS>ATOM
      1 CA         -6.0168  -16.0635  -47.4139 C.3       0 UNK        -0.1800 
      2 C          -4.7471  -15.2608  -47.1702 C.2       0 UNK         0.5000 
      3 O          -4.7723  -14.2681  -46.4417 O.2       0 UNK        -0.5000 
      4 N          -3.6321  -15.6926  -47.7717 N.am      1 UNK        -0.5000 
      5 CA         -2.3014  -15.0817  -47.6754 C.3       1 UNK         0.1400 
      6 C6         -1.3868  -15.5194  -48.8456 C.3       23 UNK        -0.0398 
      7 S7         -2.0394  -15.0946  -50.4951 S.3       23 UNK        -0.2404 
      8 C8         -0.5378  -15.2550  -51.5182 C.3       23 UNK        -0.0205 
      9 C9          0.1216  -16.6186  -51.3608 C.ar      23 UNK        -0.0193 
     10 C10        -0.3903  -17.7334  -52.0275 C.ar      23 UNK        -0.1150 
     11 C11         0.1876  -18.9957  -51.8603 C.ar      23 UNK        -0.0193 
     12 C12         1.2879  -19.1343  -51.0017 C.ar      23 UNK        -0.1150 
     13 C13         1.8148  -18.0242  -50.3342 C.ar      23 UNK        -0.0193 
     14 C14         1.2331  -16.7687  -50.5284 C.ar      23 UNK        -0.1150 
     15 C15         3.0046  -18.1650  -49.3899 C.3       23 UNK        -0.0205 
     16 S16         2.6819  -19.2143  -47.9287 S.3       23 UNK        -0.2404 
     17 C17         1.0495  -18.6467  -47.3373 C.3       23 UNK        -0.0398 
     18 CA          0.0835  -19.8397  -47.1809 C.3       11 UNK         0.1400 
     19 N           0.4304  -20.6898  -46.0339 N.am      11 UNK        -0.5000 
     20 C          -0.0981  -21.9015  -45.8062 C.2       10 UNK         0.5000 
     21 O          -0.9589  -22.4013  -46.5309 O.2       10 UNK        -0.5000 
     22 CA          0.3507  -22.6591  -44.5410 C.3       10 UNK         0.1400 
     23 CB          0.3633  -24.1896  -44.7363 C.3       10 UNK        -0.1800 
     24 N           1.6133  -22.1795  -43.9730 N.am      10 UNK        -0.5000 
     25 C           2.8502  -22.2836  -44.4859 C.2       9 UNK         0.5000 
     26 O           3.1026  -22.8378  -45.5559 O.2       9 UNK        -0.5000 
     27 CA          4.0038  -21.6586  -43.6703 C.3       9 UNK         0.1400 
     28 CB          4.8304  -20.6857  -44.5296 C.3       9 UNK        -0.1800 
     29 N           3.5172  -20.9463  -42.4863 N.am      9 UNK        -0.5000 
     30 C           3.3565  -21.4828  -41.2684 C.2       8 UNK         0.5000 
     31 O           3.7027  -22.6276  -40.9766 O.2       8 UNK        -0.5000 
     32 CA          2.6585  -20.6096  -40.2048 C.3       8 UNK         0.1400 
     33 CB          3.6938  -19.9698  -39.2677 C.3       8 UNK        -0.1800 
     34 N           1.8139  -19.5598  -40.7845 N.am      8 UNK        -0.5000 
     35 C           0.6485  -19.7818  -41.4135 C.2       7 UNK         0.5000 
     36 O           0.1498  -20.8991  -41.5423 O.2       7 UNK        -0.5000 
     37 CA         -0.0434  -18.5695  -42.0719 C.3       7 UNK         0.1400 
     38 CB         -1.0139  -17.9054  -41.0849 C.3       7 UNK        -0.1800 
     39 N           0.8998  -17.5684  -42.5749 N.am      7 UNK        -0.5000 
     40 C           1.8627  -17.8036  -43.4782 C.2       6 UNK         0.5000 
     41 O           1.9712  -18.8736  -44.0778 O.2       6 UNK        -0.5000 
     42 CA          2.9215  -16.7016  -43.6863 C.3       6 UNK         0.1400 
     43 CB          2.7307  -15.9795  -45.0265 C.3       6 UNK        -0.1800 
     44 N           2.9421  -15.7206  -42.5940 N.am      6 UNK        -0.5000 
     45 C           3.4455  -15.9677  -41.3755 C.2       5 UNK         0.5000 
     46 O           3.9418  -17.0530  -41.0727 O.2       5 UNK        -0.5000 
     47 CA          3.3684  -14.8465  -40.3202 C.3       5 UNK         0.1400 
     48 CB          4.5854  -14.8656  -39.3709 C.3       5 UNK        -0.1800 
     49 N           3.2252  -13.5231  -40.9318 N.am      5 UNK        -0.5000 
     50 C           2.7551  -12.4351  -40.3046 C.2       4 UNK         0.5000 
     51 O           2.3490  -12.4333  -39.1418 O.2       4 UNK        -0.5000 
     52 CA          2.7311  -11.1273  -41.1175 C.3       4 UNK         0.1400 
     53 CB          4.1380  -10.5155  -41.2113 C.3       4 UNK        -0.1800 
     54 N           2.2008  -11.3400  -42.4635 N.am      4 UNK        -0.5000 
     55 C           0.9002  -11.5031  -42.7407 C.2       3 UNK         0.5000 
     56 O           0.0035  -11.3488  -41.9081 O.2       3 UNK        -0.5000 
     57 CA          0.5287  -11.9066  -44.1867 C.3       3 UNK         0.1400 
     58 CB          1.7354  -12.3569  -45.0394 C.3       3 UNK        -0.1800 
     59 N          -0.5194  -12.9325  -44.2320 N.am      3 UNK        -0.5000 
     60 C          -0.5305  -14.1151  -43.5964 C.2       2 UNK         0.5000 
     61 O           0.3685  -14.5168  -42.8563 O.2       2 UNK        -0.5000 
     62 CA         -1.7465  -15.0210  -43.8565 C.3       2 UNK         0.1400 
     63 CB         -2.8745  -14.7202  -42.8591 C.3       2 UNK        -0.1800 
     64 N          -2.2610  -14.9025  -45.2214 N.am      2 UNK        -0.5000 
     65 C          -1.6393  -15.3751  -46.3082 C.2       1 UNK         0.5000 
     66 O          -0.5987  -16.0307  -46.2525 O.2       1 UNK        -0.5000 
     67 C          -1.3827  -19.3681  -47.1402 C.2       11 UNK         0.5000 
     68 O          -1.9935  -19.2227  -48.1972 O.2       11 UNK        -0.5000 
     69 N          -1.9425  -19.1947  -45.9337 N.am      12 UNK        -0.5000 
     70 CA         -3.3584  -18.8926  -45.7215 C.3       12 UNK         0.1400 
     71 CB         -3.6008  -18.5733  -44.2390 C.3       12 UNK        -0.1800 
     72 C          -4.2744  -20.0361  -46.1931 C.2       12 UNK         0.5000 
     73 O          -5.2515  -19.7865  -46.8994 O.2       12 UNK        -0.5000 
     74 N          -3.9104  -21.2715  -45.8228 N.am      13 UNK        -0.5000 
     75 CA         -4.6105  -22.4938  -46.2120 C.3       13 UNK         0.1400 
     76 CB         -4.1072  -23.6701  -45.3617 C.3       13 UNK        -0.1800 
     77 C          -4.4602  -22.7936  -47.7117 C.2       13 UNK         0.5000 
     78 O          -5.4475  -23.1409  -48.3575 O.2       13 UNK        -0.5000 
     79 N          -3.2425  -22.6191  -48.2448 N.am      14 UNK        -0.5000 
     80 CA         -2.9299  -22.7838  -49.6640 C.3       14 UNK         0.1400 
     81 CB         -1.4148  -22.6705  -49.8803 C.3       14 UNK        -0.1800 
     82 C          -3.6912  -21.7843  -50.5509 C.2       14 UNK         0.5000 
     83 O          -4.2538  -22.1889  -51.5655 O.2       14 UNK        -0.5000 
     84 N          -3.7446  -20.5126  -50.1275 N.am      15 UNK        -0.5000 
     85 CA         -4.5259  -19.4582  -50.7724 C.3       15 UNK         0.1400 
     86 CB         -4.2551  -18.1168  -50.0824 C.3       15 UNK        -0.1800 
     87 C          -6.0325  -19.7710  -50.7970 C.2       15 UNK         0.5000 
     88 O          -6.6559  -19.6616  -51.8543 O.2       15 UNK        -0.5000 
     89 N          -6.5724  -20.1954  -49.6441 N.am      16 UNK        -0.5000 
     90 CA         -7.9702  -20.5975  -49.4739 C.3       16 UNK         0.1400 
     91 CB         -8.2532  -20.8498  -47.9857 C.3       16 UNK        -0.1800 
     92 C          -8.3647  -21.8227  -50.3214 C.2       16 UNK         0.5000 
     93 O          -9.4800  -21.8639  -50.8422 O.2       16 UNK        -0.5000 
     94 N          -7.4368  -22.7733  -50.4939 N.am      17 UNK        -0.5000 
     95 CA         -7.5693  -23.9755  -51.3224 C.3       17 UNK         0.1400 
     96 CB         -6.5564  -25.0256  -50.8308 C.3       17 UNK        -0.1800 
     97 C          -7.4315  -23.6888  -52.8363 C.2       17 UNK         0.5000 
     98 O          -6.7131  -24.4040  -53.5378 O.2       17 UNK        -0.5000 
     99 N          -8.1213  -22.6427  -53.3159 N.am      18 UNK        -0.5000 
    100 CA        -8.1680  -22.1556  -54.7003 C.3       18 UNK         0.1400 
    101 CB        -8.9739  -23.1326  -55.5810 C.3       18 UNK        -0.1800 
    102 C         -6.7698  -21.8404  -55.2749 C.2       18 UNK         0.5000 
    103 O         -6.4736  -22.1937  -56.4171 O.2       18 UNK        -0.5000 
    104 N         -5.9242  -21.2202  -54.4399 N.am      19 UNK        -0.5000 
    105 CA        -4.5127  -20.8796  -54.6583 C.3       19 UNK         0.1400 
    106 CB        -4.3330  -19.9722  -55.8914 C.3       19 UNK        -0.1800 
    107 C         -3.5385  -22.0773  -54.6795 C.2       19 UNK         0.5000 
    108 O         -2.3310  -21.8457  -54.6675 O.2       19 UNK        -0.5000 
    109 N         -4.0478  -23.3183  -54.6734 N.am      20 UNK        -0.5000 
    110 CA        -3.3490  -24.6090  -54.6347 C.3       20 UNK         0.1400 
    111 CB        -2.5868  -24.7853  -53.3064 C.3       20 UNK        -0.1800 
    112 C         -2.4389  -24.8955  -55.8483 C.2       20 UNK         0.5000 
    113 O         -2.6435  -25.8981  -56.5337 O.2       20 UNK        -0.5000 
    114 N         -1.4619  -24.0163  -56.0873 N.am      21 UNK        -0.5000 
    115 CA        -0.4641  -24.0517  -57.1574 C.3       21 UNK         0.1400 
    116 CB         0.4548  -25.2836  -57.0284 C.3       21 UNK        -0.1800 
    117 C          0.3793  -22.7650  -57.1428 C.2       21 UNK         0.5000 
    118 O          0.7759  -22.2855  -58.2059 O.2       21 UNK        -0.5000 
    119 N          0.6429  -22.2380  -55.9403 N.am      22 UNK        -0.5000 
    120 CA         1.3307  -20.9656  -55.6773 C.3       22 UNK         0.1400 
    121 C          0.5480  -19.7005  -56.1423 C.2       22 UNK         0.5000 
    122 N          1.2021  -18.5469  -56.1863 N.am      22 UNK        -0.7600 
    123 O         -0.6367  -19.7381  -56.4628 O.2       22 UNK        -0.5000 
    124 C124        1.8113  -20.8638  -54.1975 C.3       23 UNK        -0.0398 
    125 S125        0.6836  -21.5752  -52.9430 S.3       23 UNK        -0.2404 
    126 C126       -0.4398  -20.1813  -52.5900 C.3       23 UNK        -0.0205 
    127 H127       -6.1045  -16.3510  -48.4613 H         1 UNK         0.0600 
    128 H128       -6.0175  -16.9672  -46.8041 H         1 UNK         0.0600 
    129 H129       -6.8975  -15.4761  -47.1539 H         1 UNK         0.0600 
    130 H130       -3.6775  -16.5105  -48.3619 H         1 UNK         0.3000 
    131 H131       -2.4192  -13.9980  -47.7411 H         1 UNK         0.0600 
    132 H132       -0.4043  -15.0551  -48.7434 H         1 UNK         0.0800 
    133 H133       -1.2267  -16.5984  -48.8174 H         1 UNK         0.0800 
    134 H134        0.1614  -14.4594  -51.2562 H         1 UNK         0.0800 
    135 H135       -0.8023  -15.0953  -52.5644 H         1 UNK         0.0800 
    136 H136       -1.2545  -17.6179  -52.6668 H         1 UNK         0.1150 
    137 H137        1.7333  -20.1045  -50.8364 H         1 UNK         0.1150 
    138 H138        1.6310  -15.9076  -50.0100 H         1 UNK         0.1150 
    139 H139        3.8463  -18.5842  -49.9425 H         1 UNK         0.0800 
    140 H140        3.3321  -17.1852  -49.0388 H         1 UNK         0.0800 
    141 H141        0.6452  -17.9044  -48.0234 H         1 UNK         0.0800 
    142 H142        1.1642  -18.1231  -46.3913 H         1 UNK         0.0800 
    143 H143        0.1729  -20.4562  -48.0775 H         1 UNK         0.0600 
    144 H144        1.1258  -20.3215  -45.3942 H         1 UNK         0.3000 
    145 H145       -0.4085  -22.4408  -43.7892 H         1 UNK         0.0600 
    146 H146        0.6836  -24.7010  -43.8286 H         1 UNK         0.0600 
    147 H147       -0.6322  -24.5613  -44.9812 H         1 UNK         0.0600 
    148 H148        1.0282  -24.4911  -45.5459 H         1 UNK         0.0600 
    149 H149        1.5173  -21.6991  -43.0876 H         1 UNK         0.3000 
    150 H150        4.6607  -22.4744  -43.3620 H         1 UNK         0.0600 
    151 H151        5.2939  -21.2043  -45.3696 H         1 UNK         0.0600 
    152 H152        5.6325  -20.2295  -43.9494 H         1 UNK         0.0600 
    153 H153        4.2176  -19.8848  -44.9432 H         1 UNK         0.0600 
    154 H154        3.1671  -20.0122  -42.6552 H         1 UNK         0.3000 
    155 H155        2.0214  -21.2653  -39.6074 H         1 UNK         0.0600 
    156 H156        4.3980  -19.3414  -39.8134 H         1 UNK         0.0600 
    157 H157        4.2742  -20.7347  -38.7502 H         1 UNK         0.0600 
    158 H158        3.2139  -19.3554  -38.5058 H         1 UNK         0.0600 
    159 H159        2.1848  -18.6194  -40.7536 H         1 UNK         0.3000 
    160 H160       -0.6181  -18.9405  -42.9223 H         1 UNK         0.0600 
    161 H161       -1.5883  -17.1138  -41.5631 H         1 UNK         0.0600 
    162 H162       -0.4880  -17.4708  -40.2339 H         1 UNK         0.0600 
    163 H163       -1.7300  -18.6296  -40.6940 H         1 UNK         0.0600 
    164 H164        0.8507  -16.6425  -42.1701 H         1 UNK         0.3000 
    165 H165        3.8945  -17.1968  -43.7171 H         1 UNK         0.0600 
    166 H166        2.8461  -16.6703  -45.8611 H         1 UNK         0.0600 
    167 H167        1.7437  -15.5253  -45.1056 H         1 UNK         0.0600 
    168 H168        3.4766  -15.1965  -45.1614 H         1 UNK         0.0600 
    169 H169        2.3753  -14.8913  -42.7303 H         1 UNK         0.3000 
    170 H170        2.4711  -15.0524  -39.7331 H         1 UNK         0.0600 
    171 H171        4.6871  -15.8318  -38.8751 H         1 UNK         0.0600 
    172 H172        5.5132  -14.6724  -39.9103 H         1 UNK         0.0600 
    173 H173        4.4939  -14.1163  -38.5848 H         1 UNK         0.0600 
    174 H174        3.5532  -13.4369  -41.8825 H         1 UNK         0.3000 
    175 H175        2.0901  -10.4153  -40.5927 H         1 UNK         0.0600 
    176 H176        4.1156   -9.5557  -41.7276 H         1 UNK         0.0600 
    177 H177        4.5526  -10.3394  -40.2179 H         1 UNK         0.0600 
    178 H178        4.8309  -11.1671  -41.7449 H         1 UNK         0.0600 
    179 H179        2.8732  -11.4507  -43.2080 H         1 UNK         0.3000 
    180 H180        0.1057  -11.0156  -44.6526 H         1 UNK         0.0600 
    181 H181        2.2789  -13.1752  -44.5689 H         1 UNK         0.0600 
    182 H182        2.4366  -11.5373  -45.2000 H         1 UNK         0.0600 
    183 H183        1.4149  -12.6975  -46.0242 H         1 UNK         0.0600 
    184 H184       -1.3286  -12.7002  -44.7887 H         1 UNK         0.3000 
    185 H185       -1.4160  -16.0497  -43.7056 H         1 UNK         0.0600 
    186 H186       -3.2709  -13.7129  -42.9922 H         1 UNK         0.0600 
    187 H187       -3.7001  -15.4228  -42.9735 H         1 UNK         0.0600 
    188 H188       -2.5197  -14.7989  -41.8306 H         1 UNK         0.0600 
    189 H189       -3.1512  -14.4305  -45.3520 H         1 UNK         0.3000 
    190 H190       -1.3688  -19.3296  -45.1162 H         1 UNK         0.3000 
    191 H191       -3.6056  -18.0067  -46.3059 H         1 UNK         0.0600 
    192 H192       -3.3510  -19.4166  -43.5940 H         1 UNK         0.0600 
    193 H193       -4.6472  -18.3215  -44.0613 H         1 UNK         0.0600 
    194 H194       -3.0061  -17.7208  -43.9176 H         1 UNK         0.0600 
    195 H195       -3.0634  -21.3883  -45.2884 H         1 UNK         0.3000 
    196 H196       -5.6738  -22.3559  -46.0042 H         1 UNK         0.0600 
    197 H197       -4.6385  -24.5881  -45.6158 H         1 UNK         0.0600 
    198 H198       -4.2672  -23.4859  -44.2993 H         1 UNK         0.0600 
    199 H199       -3.0436  -23.8552  -45.5139 H         1 UNK         0.0600 
    200 H200       -2.4669  -22.3842  -47.6299 H         1 UNK         0.3000 
    201 H201       -3.2382  -23.7903  -49.9540 H         1 UNK         0.0600 
    202 H202       -0.8691  -23.3715  -49.2485 H         1 UNK         0.0600 
    203 H203       -1.0499  -21.6669  -49.6628 H         1 UNK         0.0600 
    204 H204       -1.1567  -22.8975  -50.9148 H         1 UNK         0.0600 
    205 H205       -3.2184  -20.2405  -49.3019 H         1 UNK         0.3000 
    206 H206       -4.1798  -19.3693  -51.8010 H         1 UNK         0.0600 
    207 H207       -3.2039  -17.8440  -50.1729 H         1 UNK         0.0600 
    208 H208       -4.8400  -17.3145  -50.5339 H         1 UNK         0.0600 
    209 H209       -4.5039  -18.1610  -49.0226 H         1 UNK         0.0600 
    210 H210       -5.9873  -20.2398  -48.8165 H         1 UNK         0.3000 
    211 H211       -8.5931  -19.7617  -49.7988 H         1 UNK         0.0600 
    212 H212       -7.6352  -21.6557  -47.5893 H         1 UNK         0.0600 
    213 H213       -9.2962  -21.1265  -47.8270 H         1 UNK         0.0600 
    214 H214       -8.0594  -19.9569  -47.3910 H         1 UNK         0.0600 
    215 H215       -6.5558  -22.6738  -49.9999 H         1 UNK         0.3000 
    216 H216       -8.5690  -24.3871  -51.1710 H         1 UNK         0.0600 
    217 H217       -6.6629  -25.9641  -51.3760 H         1 UNK         0.0600 
    218 H218       -6.7014  -25.2488  -49.7737 H         1 UNK         0.0600 
    219 H219       -5.5299  -24.6812  -50.9621 H         1 UNK         0.0600 
    220 H220       -8.6846  -22.1278  -52.6465 H         1 UNK         0.3000 
    221 H221       -8.7081  -21.2081  -54.6760 H         1 UNK         0.0600 
    222 H222       -8.4717  -24.0956  -55.6801 H         1 UNK         0.0600 
    223 H223       -9.9648  -23.3129  -55.1643 H         1 UNK         0.0600 
    224 H224       -9.1140  -22.7309  -56.5852 H         1 UNK         0.0600 
    225 H225       -6.2703  -20.9911  -53.5142 H         1 UNK         0.3000 
    226 H226       -4.2227  -20.2913  -53.7911 H         1 UNK         0.0600 
    227 H227       -4.5048  -20.5098  -56.8239 H         1 UNK         0.0600 
    228 H228       -3.3186  -19.5746  -55.9326 H         1 UNK         0.0600 
    229 H229       -5.0126  -19.1208  -55.8600 H         1 UNK         0.0600 
    230 H230       -5.0569  -23.3961  -54.6473 H         1 UNK         0.3000 
    231 H231       -4.1377  -25.3628  -54.6535 H         1 UNK         0.0600 
    232 H232       -1.8045  -24.0368  -53.1781 H         1 UNK         0.0600 
    233 H233       -2.1126  -25.7660  -53.2554 H         1 UNK         0.0600 
    234 H234       -3.2642  -24.7072  -52.4560 H         1 UNK         0.0600 
    235 H235       -1.4931  -23.1584  -55.5360 H         1 UNK         0.3000 
    236 H236       -0.9903  -24.0958  -58.1128 H         1 UNK         0.0600 
    237 H237       -0.0921  -26.2141  -57.1772 H         1 UNK         0.0600 
    238 H238        1.2477  -25.2591  -57.7771 H         1 UNK         0.0600 
    239 H239        0.9302  -25.3271  -56.0479 H         1 UNK         0.0600 
    240 H240        0.2748  -22.6896  -55.1159 H         1 UNK         0.3000 
    241 H241        2.2275  -20.9799  -56.2998 H         1 UNK         0.0600 
    242 H242        0.7076  -17.7211  -56.4855 H         1 UNK         0.3800 
    243 H243        2.1784  -18.4765  -55.9456 H         1 UNK         0.3800 
    244 H244        2.7466  -21.4172  -54.1059 H         1 UNK         0.0800 
    245 H245        2.0663  -19.8406  -53.9175 H         1 UNK         0.0800 
    246 H246       -1.2686  -20.5512  -51.9872 H         1 UNK         0.0800 
    247 H247       -0.8792  -19.8490  -53.5313 H         1 UNK         0.0800 
@<TRIPOS>BOND
     1    1    2 1    
     2    1  127 1    
     3    1  128 1    
     4    1  129 1    
     5    2    3 2    
     6    2    4 am   BACKBONE|DICT|INTERRES
     7    4    5 1    
     8    4  130 1    
     9    5    6 1    
    10    5   65 1    
    11    5  131 1    
    12    6    7 1    
    13    6  132 1    
    14    6  133 1    
    15    7    8 1    
    16    8    9 1    
    17    8  134 1    
    18    8  135 1    
    19    9   10 ar   
    20    9   14 ar   
    21   10   11 ar   
    22   10  136 1    
    23   11   12 ar   
    24   11  126 1    
    25   12   13 ar   
    26   12  137 1    
    27   13   14 ar   
    28   13   15 1    
    29   14  138 1    
    30   15   16 1    
    31   15  139 1    
    32   15  140 1    
    33   16   17 1    
    34   17   18 1    
    35   17  141 1    
    36   17  142 1    
    37   18   19 1    
    38   18   67 1    
    39   18  143 1    
    40   19   20 am   BACKBONE|DICT|INTERRES
    41   19  144 1    
    42   20   21 2    
    43   20   22 1    
    44   22   23 1    
    45   22   24 1    
    46   22  145 1    
    47   23  146 1    
    48   23  147 1    
    49   23  148 1    
    50   24   25 am   BACKBONE|DICT|INTERRES
    51   24  149 1    
    52   25   26 2    
    53   25   27 1    
    54   27   28 1    
    55   27   29 1    
    56   27  150 1    
    57   28  151 1    
    58   28  152 1    
    59   28  153 1    
    60   29   30 am   BACKBONE|DICT|INTERRES
    61   29  154 1    
    62   30   31 2    
    63   30   32 1    
    64   32   33 1    
    65   32   34 1    
    66   32  155 1    
    67   33  156 1    
    68   33  157 1    
    69   33  158 1    
    70   34   35 am   BACKBONE|DICT|INTERRES
    71   34  159 1    
    72   35   36 2    
    73   35   37 1    
    74   37   38 1    
    75   37   39 1    
    76   37  160 1    
    77   38  161 1    
    78   38  162 1    
    79   38  163 1    
    80   39   40 am   BACKBONE|DICT|INTERRES
    81   39  164 1    
    82   40   41 2    
    83   40   42 1    
    84   42   43 1    
    85   42   44 1    
    86   42  165 1    
    87   43  166 1    
    88   43  167 1    
    89   43  168 1    
    90   44   45 am   BACKBONE|DICT|INTERRES
    91   44  169 1    
    92   45   46 2    
    93   45   47 1    
    94   47   48 1    
    95   47   49 1    
    96   47  170 1    
    97   48  171 1    
    98   48  172 1    
    99   48  173 1    
   100   49   50 am   BACKBONE|DICT|INTERRES
   101   49  174 1    
   102   50   51 2    
   103   50   52 1    
   104   52   53 1    
   105   52   54 1    
   106   52  175 1    
   107   53  176 1    
   108   53  177 1    
   109   53  178 1    
   110   54   55 am   BACKBONE|DICT|INTERRES
   111   54  179 1    
   112   55   56 2    
   113   55   57 1    
   114   57   58 1    
   115   57   59 1    
   116   57  180 1    
   117   58  181 1    
   118   58  182 1    
   119   58  183 1    
   120   59   60 am   BACKBONE|DICT|INTERRES
   121   59  184 1    
   122   60   61 2    
   123   60   62 1    
   124   62   63 1    
   125   62   64 1    
   126   62  185 1    
   127   63  186 1    
   128   63  187 1    
   129   63  188 1    
   130   64   65 am   BACKBONE|DICT|INTERRES
   131   64  189 1    
   132   65   66 2    
   133   67   68 2    
   134   67   69 am   BACKBONE|DICT|INTERRES
   135   69   70 1    
   136   69  190 1    
   137   70   71 1    
   138   70   72 1    
   139   70  191 1    
   140   71  192 1    
   141   71  193 1    
   142   71  194 1    
   143   72   73 2    
   144   72   74 am   BACKBONE|DICT|INTERRES
   145   74   75 1    
   146   74  195 1    
   147   75   76 1    
   148   75   77 1    
   149   75  196 1    
   150   76  197 1    
   151   76  198 1    
   152   76  199 1    
   153   77   78 2    
   154   77   79 am   BACKBONE|DICT|INTERRES
   155   79   80 1    
   156   79  200 1    
   157   80   81 1    
   158   80   82 1    
   159   80  201 1    
   160   81  202 1    
   161   81  203 1    
   162   81  204 1    
   163   82   83 2    
   164   82   84 am   BACKBONE|DICT|INTERRES
   165   84   85 1    
   166   84  205 1    
   167   85   86 1    
   168   85   87 1    
   169   85  206 1    
   170   86  207 1    
   171   86  208 1    
   172   86  209 1    
   173   87   88 2    
   174   87   89 am   BACKBONE|DICT|INTERRES
   175   89   90 1    
   176   89  210 1    
   177   90   91 1    
   178   90   92 1    
   179   90  211 1    
   180   91  212 1    
   181   91  213 1    
   182   91  214 1    
   183   92   93 2    
   184   92   94 am   BACKBONE|DICT|INTERRES
   185   94   95 1    
   186   94  215 1    
   187   95   96 1    
   188   95   97 1    
   189   95  216 1    
   190   96  217 1    
   191   96  218 1    
   192   96  219 1    
   193   97   98 2    
   194   97   99 am   BACKBONE|DICT|INTERRES
   195   99  100 1    
   196   99  220 1    
   197  100  101 1    
   198  100  102 1    
   199  100  221 1    
   200  101  222 1    
   201  101  223 1    
   202  101  224 1    
   203  102  103 2    
   204  102  104 am   BACKBONE|DICT|INTERRES
   205  104  105 1    
   206  104  225 1    
   207  105  106 1    
   208  105  107 1    
   209  105  226 1    
   210  106  227 1    
   211  106  228 1    
   212  106  229 1    
   213  107  108 2    
   214  107  109 am   BACKBONE|DICT|INTERRES
   215  109  110 1    
   216  109  230 1    
   217  110  111 1    
   218  110  112 1    
   219  110  231 1    
   220  111  232 1    
   221  111  233 1    
   222  111  234 1    
   223  112  113 2    
   224  112  114 am   BACKBONE|DICT|INTERRES
   225  114  115 1    
   226  114  235 1    
   227  115  116 1    
   228  115  117 1    
   229  115  236 1    
   230  116  237 1    
   231  116  238 1    
   232  116  239 1    
   233  117  118 2    
   234  117  119 am   BACKBONE|DICT|INTERRES
   235  119  120 1    
   236  119  240 1    
   237  120  121 1    
   238  120  124 1    
   239  120  241 1    
   240  121  122 am   BACKBONE|DICT|INTERRES
   241  121  123 2    
   242  122  242 1    
   243  122  243 1    
   244  124  125 1    
   245  124  244 1    
   246  124  245 1    
   247  125  126 1    
   248  126  246 1    
   249  126  247 1    
@<TRIPOS>SUBSTRUCTURE
     1 UNK         1 GROUP             0       ****    0 ROOT    
