@<TRIPOS>MOLECULE
3R540
247   249    1
SMALL
USER_CHARGES


@<TRIPOS>ATOM
      1 CA          2.1258   -9.2683  -47.7050 C.3       0 UNK        -0.1800 
      2 C           3.6010   -8.8804  -47.7991 C.2       0 UNK         0.5000 
      3 O           3.9094   -7.6925  -47.7280 O.2       0 UNK        -0.5000 
      4 N           4.5511   -9.8137  -47.9671 N.am      1 UNK        -0.5000 
      5 CA          4.4135  -11.2756  -48.0409 C.3       1 UNK         0.1400 
      6 C6          3.5700  -11.7618  -49.2512 C.3       23 UNK        -0.0398 
      7 S7          4.0896  -13.4067  -49.8497 S.3       23 UNK        -0.2404 
      8 C8          2.5478  -14.3389  -49.6156 C.3       23 UNK        -0.0205 
      9 C9          2.7277  -15.8149  -49.9210 C.ar      23 UNK        -0.0193 
     10 C10         2.7636  -16.2579  -51.2441 C.ar      23 UNK        -0.1150 
     11 C11         2.8812  -17.6192  -51.5303 C.ar      23 UNK        -0.0193 
     12 C12         2.9607  -18.5400  -50.4819 C.ar      23 UNK        -0.1150 
     13 C13         2.9002  -18.1146  -49.1470 C.ar      23 UNK        -0.0193 
     14 C14         2.8087  -16.7449  -48.8816 C.ar      23 UNK        -0.1150 
     15 C15         2.8976  -19.0748  -47.9544 C.3       23 UNK        -0.0205 
     16 S16         2.8855  -20.8600  -48.3422 S.3       23 UNK        -0.2404 
     17 C17         1.2328  -21.1127  -49.0787 C.3       23 UNK        -0.0398 
     18 CA          0.2847  -21.8533  -48.1077 C.3       11 UNK         0.1400 
     19 N          -0.2727  -20.9650  -47.0861 N.am      11 UNK        -0.5000 
     20 C          -0.9048  -21.3861  -45.9819 C.2       10 UNK         0.5000 
     21 O          -1.0420  -22.5703  -45.6787 O.2       10 UNK        -0.5000 
     22 CA         -1.5429  -20.2960  -45.1063 C.3       10 UNK         0.1400 
     23 CB         -0.4780  -19.6338  -44.2233 C.3       10 UNK        -0.1800 
     24 N          -2.2224  -19.2871  -45.9227 N.am      10 UNK        -0.5000 
     25 C          -3.3386  -19.5382  -46.6258 C.2       9 UNK         0.5000 
     26 O          -3.9341  -20.6144  -46.5879 O.2       9 UNK        -0.5000 
     27 CA         -3.8528  -18.4416  -47.5763 C.3       9 UNK         0.1400 
     28 CB         -4.9997  -17.6460  -46.9394 C.3       9 UNK        -0.1800 
     29 N          -2.8019  -17.5319  -48.0286 N.am      9 UNK        -0.5000 
     30 C          -1.8228  -17.8890  -48.8723 C.2       8 UNK         0.5000 
     31 O          -1.7294  -19.0147  -49.3637 O.2       8 UNK        -0.5000 
     32 CA         -0.7422  -16.8410  -49.1929 C.3       8 UNK         0.1400 
     33 CB         -1.0242  -16.1623  -50.5399 C.3       8 UNK        -0.1800 
     34 N          -0.5694  -15.8131  -48.1622 N.am      8 UNK        -0.5000 
     35 C          -0.1678  -16.0421  -46.9042 C.2       7 UNK         0.5000 
     36 O           0.0646  -17.1697  -46.4646 O.2       7 UNK        -0.5000 
     37 CA         -0.0200  -14.8243  -45.9653 C.3       7 UNK         0.1400 
     38 CB         -0.3339  -13.4628  -46.6257 C.3       7 UNK        -0.1800 
     39 N          -0.8087  -14.9850  -44.7400 N.am      7 UNK        -0.5000 
     40 C          -2.1267  -15.2300  -44.6518 C.2       6 UNK         0.5000 
     41 O          -2.8636  -15.3245  -45.6342 O.2       6 UNK        -0.5000 
     42 CA         -2.7310  -15.4171  -43.2430 C.3       6 UNK         0.1400 
     43 CB         -3.4774  -16.7573  -43.1323 C.3       6 UNK        -0.1800 
     44 N          -1.7203  -15.3602  -42.1845 N.am      6 UNK        -0.5000 
     45 C          -1.4208  -14.2710  -41.4644 C.2       5 UNK         0.5000 
     46 O          -2.0011  -13.1909  -41.5774 O.2       5 UNK        -0.5000 
     47 CA         -0.2539  -14.4059  -40.4639 C.3       5 UNK         0.1400 
     48 CB         -0.7800  -14.8032  -39.0762 C.3       5 UNK        -0.1800 
     49 N           0.7789  -15.3639  -40.8790 N.am      5 UNK        -0.5000 
     50 C           1.5298  -15.2395  -41.9802 C.2       4 UNK         0.5000 
     51 O           1.4070  -14.3152  -42.7904 O.2       4 UNK        -0.5000 
     52 CA          2.5529  -16.3505  -42.2514 C.3       4 UNK         0.1400 
     53 CB          1.8630  -17.6059  -42.8064 C.3       4 UNK        -0.1800 
     54 N           3.4880  -15.8368  -43.2379 N.am      4 UNK        -0.5000 
     55 C           4.7463  -16.2295  -43.4508 C.2       3 UNK         0.5000 
     56 O           5.2866  -17.1637  -42.8580 O.2       3 UNK        -0.5000 
     57 CA          5.5349  -15.4254  -44.5040 C.3       3 UNK         0.1400 
     58 CB          5.5330  -16.1632  -45.8521 C.3       3 UNK        -0.1800 
     59 N           4.9882  -14.0803  -44.7046 N.am      3 UNK        -0.5000 
     60 C           5.0887  -13.0622  -43.8403 C.2       2 UNK         0.5000 
     61 O           5.7432  -13.1246  -42.7982 O.2       2 UNK        -0.5000 
     62 CA          4.3262  -11.7682  -44.2090 C.3       2 UNK         0.1400 
     63 CB          4.6606  -10.5927  -43.2732 C.3       2 UNK        -0.1800 
     64 N           4.5580  -11.3453  -45.5929 N.am      2 UNK        -0.5000 
     65 C           4.0086  -11.8958  -46.6837 C.2       1 UNK         0.5000 
     66 O           3.2222  -12.8426  -46.6298 O.2       1 UNK        -0.5000 
     67 C          -0.8267  -22.6139  -48.8593 C.2       11 UNK         0.5000 
     68 O          -0.6584  -23.8034  -49.1230 O.2       11 UNK        -0.5000 
     69 N          -1.9585  -21.9485  -49.1381 N.am      12 UNK        -0.5000 
     70 CA         -3.1515  -22.5612  -49.7315 C.3       12 UNK         0.1400 
     71 CB         -4.2102  -21.4823  -50.0023 C.3       12 UNK        -0.1800 
     72 C          -3.7509  -23.6719  -48.8494 C.2       12 UNK         0.5000 
     73 O          -4.1506  -24.7154  -49.3697 O.2       12 UNK        -0.5000 
     74 N          -3.7989  -23.4272  -47.5331 N.am      13 UNK        -0.5000 
     75 CA         -4.2405  -24.3887  -46.5259 C.3       13 UNK         0.1400 
     76 CB         -4.4717  -23.6682  -45.1896 C.3       13 UNK        -0.1800 
     77 C          -3.2512  -25.5556  -46.3628 C.2       13 UNK         0.5000 
     78 O          -3.6839  -26.7068  -46.3251 O.2       13 UNK        -0.5000 
     79 N          -1.9456  -25.2509  -46.3131 N.am      14 UNK        -0.5000 
     80 CA         -0.8603  -26.2334  -46.2123 C.3       14 UNK         0.1400 
     81 CB          0.4754  -25.5074  -45.9958 C.3       14 UNK        -0.1800 
     82 C          -0.7738  -27.1719  -47.4311 C.2       14 UNK         0.5000 
     83 O          -0.4964  -28.3602  -47.2663 O.2       14 UNK        -0.5000 
     84 N          -1.0550  -26.6321  -48.6245 N.am      15 UNK        -0.5000 
     85 CA         -1.1708  -27.3750  -49.8812 C.3       15 UNK         0.1400 
     86 CB         -1.0894  -26.3779  -51.0488 C.3       15 UNK        -0.1800 
     87 C          -2.4636  -28.2112  -49.9883 C.2       15 UNK         0.5000 
     88 O          -2.5812  -29.0088  -50.9192 O.2       15 UNK        -0.5000 
     89 N          -3.4141  -27.9957  -49.0647 N.am      16 UNK        -0.5000 
     90 CA         -4.7601  -28.5765  -49.0043 C.3       16 UNK         0.1400 
     91 CB         -4.7013  -30.1072  -48.8196 C.3       16 UNK        -0.1800 
     92 C          -5.6648  -28.1436  -50.1779 C.2       16 UNK         0.5000 
     93 O          -6.6364  -28.8332  -50.4925 O.2       16 UNK        -0.5000 
     94 N          -5.3408  -26.9997  -50.7947 N.am      17 UNK        -0.5000 
     95 CA         -6.1198  -26.3788  -51.8615 C.3       17 UNK         0.1400 
     96 CB         -5.1905  -25.5106  -52.7258 C.3       17 UNK        -0.1800 
     97 C          -7.2642  -25.5337  -51.2820 C.2       17 UNK         0.5000 
     98 O          -8.3714  -25.5608  -51.8192 O.2       17 UNK        -0.5000 
     99 N          -6.9615  -24.7978  -50.1987 N.am      18 UNK        -0.5000 
    100 CA        -7.8510  -23.8973  -49.4513 C.3       18 UNK         0.1400 
    101 CB        -8.9318  -24.7058  -48.7060 C.3       18 UNK        -0.1800 
    102 C         -8.4436  -22.7513  -50.3055 C.2       18 UNK         0.5000 
    103 O         -9.5146  -22.2314  -49.9906 O.2       18 UNK        -0.5000 
    104 N         -7.7259  -22.3707  -51.3713 N.am      19 UNK        -0.5000 
    105 CA        -8.1372  -21.3801  -52.3698 C.3       19 UNK         0.1400 
    106 CB        -7.3446  -21.6503  -53.6598 C.3       19 UNK        -0.1800 
    107 C         -7.9490  -19.9166  -51.9200 C.2       19 UNK         0.5000 
    108 O         -8.3422  -19.0100  -52.6542 O.2       19 UNK        -0.5000 
    109 N         -7.3201  -19.7137  -50.7519 N.am      20 UNK        -0.5000 
    110 CA        -6.9241  -18.4313  -50.1525 C.3       20 UNK         0.1400 
    111 CB        -8.1456  -17.5300  -49.8790 C.3       20 UNK        -0.1800 
    112 C         -5.8029  -17.6985  -50.9250 C.2       20 UNK         0.5000 
    113 O         -5.5516  -16.5205  -50.6696 O.2       20 UNK        -0.5000 
    114 N         -5.1256  -18.4159  -51.8264 N.am      21 UNK        -0.5000 
    115 CA        -3.9773  -17.9769  -52.6042 C.3       21 UNK         0.1400 
    116 CB        -4.4474  -17.2683  -53.8849 C.3       21 UNK        -0.1800 
    117 C         -3.1389  -19.2194  -52.9279 C.2       21 UNK         0.5000 
    118 O         -3.6932  -20.3167  -53.0339 O.2       21 UNK        -0.5000 
    119 N         -1.8252  -19.0286  -53.0697 N.am      22 UNK        -0.5000 
    120 CA        -0.8380  -20.1019  -53.2677 C.3       22 UNK         0.1400 
    121 C         -0.8027  -20.7354  -54.6915 C.2       22 UNK         0.5000 
    122 N         -1.5288  -20.2146  -55.6730 N.am      22 UNK        -0.7600 
    123 O         -0.1118  -21.7278  -54.9047 O.2       22 UNK        -0.5000 
    124 C124        0.5659  -19.6584  -52.7839 C.3       23 UNK        -0.0398 
    125 S125        1.2226  -18.1991  -53.6674 S.3       23 UNK        -0.2404 
    126 C126        2.9023  -18.0928  -52.9747 C.3       23 UNK        -0.0205 
    127 H127        1.9566  -10.1056  -47.0307 H         1 UNK         0.0600 
    128 H128        1.7359   -9.5219  -48.6902 H         1 UNK         0.0600 
    129 H129        1.5409   -8.4297  -47.3267 H         1 UNK         0.0600 
    130 H130        5.5055   -9.4885  -48.0384 H         1 UNK         0.3000 
    131 H131        5.4352  -11.6212  -48.2068 H         1 UNK         0.0600 
    132 H132        2.5038  -11.7598  -49.0217 H         1 UNK         0.0800 
    133 H133        3.6940  -11.0743  -50.0889 H         1 UNK         0.0800 
    134 H134        2.1996  -14.2132  -48.5909 H         1 UNK         0.0800 
    135 H135        1.7716  -13.9232  -50.2597 H         1 UNK         0.0800 
    136 H136        2.6887  -15.5430  -52.0516 H         1 UNK         0.1150 
    137 H137        3.0472  -19.5884  -50.7233 H         1 UNK         0.1150 
    138 H138        2.7602  -16.4035  -47.8574 H         1 UNK         0.1150 
    139 H139        3.7829  -18.8699  -47.3510 H         1 UNK         0.0800 
    140 H140        2.0382  -18.8549  -47.3195 H         1 UNK         0.0800 
    141 H141        1.3884  -21.6924  -49.9908 H         1 UNK         0.0800 
    142 H142        0.8015  -20.1622  -49.3948 H         1 UNK         0.0800 
    143 H143        0.8688  -22.6161  -47.5889 H         1 UNK         0.0600 
    144 H144       -0.2249  -19.9733  -47.2670 H         1 UNK         0.3000 
    145 H145       -2.2825  -20.7679  -44.4558 H         1 UNK         0.0600 
    146 H146       -0.8976  -18.8311  -43.6194 H         1 UNK         0.0600 
    147 H147       -0.0372  -20.3591  -43.5384 H         1 UNK         0.0600 
    148 H148        0.3339  -19.2188  -44.8203 H         1 UNK         0.0600 
    149 H149       -1.7519  -18.3979  -46.0388 H         1 UNK         0.3000 
    150 H150       -4.2495  -18.9444  -48.4584 H         1 UNK         0.0600 
    151 H151       -5.8268  -18.3032  -46.6682 H         1 UNK         0.0600 
    152 H152       -5.3904  -16.8952  -47.6266 H         1 UNK         0.0600 
    153 H153       -4.6809  -17.1350  -46.0337 H         1 UNK         0.0600 
    154 H154       -2.7929  -16.6046  -47.6221 H         1 UNK         0.3000 
    155 H155        0.1959  -17.3867  -49.2828 H         1 UNK         0.0600 
    156 H156       -1.9814  -15.6393  -50.5368 H         1 UNK         0.0600 
    157 H157       -1.0458  -16.8969  -51.3438 H         1 UNK         0.0600 
    158 H158       -0.2464  -15.4416  -50.7913 H         1 UNK         0.0600 
    159 H159       -0.7787  -14.8639  -48.4336 H         1 UNK         0.3000 
    160 H160        1.0271  -14.8069  -45.6590 H         1 UNK         0.0600 
    161 H161       -1.3697  -13.3947  -46.9599 H         1 UNK         0.0600 
    162 H162        0.3111  -13.2760  -47.4843 H         1 UNK         0.0600 
    163 H163       -0.1616  -12.6472  -45.9232 H         1 UNK         0.0600 
    164 H164       -0.2812  -14.8921  -43.8807 H         1 UNK         0.3000 
    165 H165       -3.4612  -14.6182  -43.0998 H         1 UNK         0.0600 
    166 H166       -3.8449  -16.9226  -42.1193 H         1 UNK         0.0600 
    167 H167       -4.3454  -16.7750  -43.7904 H         1 UNK         0.0600 
    168 H168       -2.8434  -17.6010  -43.4013 H         1 UNK         0.0600 
    169 H169       -1.1928  -16.2043  -42.0168 H         1 UNK         0.3000 
    170 H170        0.2181  -13.4246  -40.3811 H         1 UNK         0.0600 
    171 H171       -1.5333  -14.0959  -38.7265 H         1 UNK         0.0600 
    172 H172       -1.2391  -15.7926  -39.0876 H         1 UNK         0.0600 
    173 H173        0.0217  -14.8124  -38.3376 H         1 UNK         0.0600 
    174 H174        0.9306  -16.1528  -40.2667 H         1 UNK         0.3000 
    175 H175        3.0819  -16.5831  -41.3250 H         1 UNK         0.0600 
    176 H176        1.3243  -17.3800  -43.7275 H         1 UNK         0.0600 
    177 H177        2.5848  -18.3924  -43.0267 H         1 UNK         0.0600 
    178 H178        1.1473  -18.0140  -42.0921 H         1 UNK         0.0600 
    179 H179        3.1412  -15.0229  -43.7300 H         1 UNK         0.3000 
    180 H180        6.5662  -15.3359  -44.1567 H         1 UNK         0.0600 
    181 H181        6.1175  -15.6254  -46.5988 H         1 UNK         0.0600 
    182 H182        4.5218  -16.2837  -46.2412 H         1 UNK         0.0600 
    183 H183        5.9675  -17.1589  -45.7540 H         1 UNK         0.0600 
    184 H184        4.4162  -13.9328  -45.5304 H         1 UNK         0.3000 
    185 H185        3.2629  -11.9886  -44.0894 H         1 UNK         0.0600 
    186 H186        4.4353  -10.8404  -42.2351 H         1 UNK         0.0600 
    187 H187        5.7161  -10.3235  -43.3269 H         1 UNK         0.0600 
    188 H188        4.0751   -9.7086  -43.5265 H         1 UNK         0.0600 
    189 H189        5.2043  -10.5799  -45.7204 H         1 UNK         0.3000 
    190 H190       -1.9948  -20.9506  -48.9577 H         1 UNK         0.3000 
    191 H191       -2.8535  -23.0015  -50.6853 H         1 UNK         0.0600 
    192 H192       -3.7585  -20.5780  -50.4046 H         1 UNK         0.0600 
    193 H193       -4.9390  -21.8368  -50.7306 H         1 UNK         0.0600 
    194 H194       -4.7551  -21.2041  -49.1003 H         1 UNK         0.0600 
    195 H195       -3.5180  -22.5131  -47.1940 H         1 UNK         0.3000 
    196 H196       -5.1957  -24.8055  -46.8527 H         1 UNK         0.0600 
    197 H197       -4.8206  -24.3640  -44.4256 H         1 UNK         0.0600 
    198 H198       -5.2271  -22.8885  -45.2898 H         1 UNK         0.0600 
    199 H199       -3.5595  -23.2011  -44.8179 H         1 UNK         0.0600 
    200 H200       -1.6718  -24.2720  -46.2970 H         1 UNK         0.3000 
    201 H201       -1.0564  -26.8513  -45.3338 H         1 UNK         0.0600 
    202 H202        0.4471  -24.8849  -45.1014 H         1 UNK         0.0600 
    203 H203        0.7258  -24.8689  -46.8426 H         1 UNK         0.0600 
    204 H204        1.2913  -26.2203  -45.8702 H         1 UNK         0.0600 
    205 H205       -1.1894  -25.6265  -48.6838 H         1 UNK         0.3000 
    206 H206       -0.3270  -28.0636  -49.9569 H         1 UNK         0.0600 
    207 H207       -0.1508  -25.8238  -51.0291 H         1 UNK         0.0600 
    208 H208       -1.1422  -26.8902  -52.0103 H         1 UNK         0.0600 
    209 H209       -1.9056  -25.6549  -51.0163 H         1 UNK         0.0600 
    210 H210       -3.2107  -27.3302  -48.3289 H         1 UNK         0.3000 
    211 H211       -5.2228  -28.1599  -48.1088 H         1 UNK         0.0600 
    212 H212       -4.3325  -30.6116  -49.7129 H         1 UNK         0.0600 
    213 H213       -5.6900  -30.5127  -48.6025 H         1 UNK         0.0600 
    214 H214       -4.0516  -30.3783  -47.9874 H         1 UNK         0.0600 
    215 H215       -4.5664  -26.4605  -50.4251 H         1 UNK         0.3000 
    216 H216       -6.5523  -27.1547  -52.4970 H         1 UNK         0.0600 
    217 H217       -4.4008  -26.1118  -53.1768 H         1 UNK         0.0600 
    218 H218       -4.7148  -24.7188  -52.1457 H         1 UNK         0.0600 
    219 H219       -5.7428  -25.0367  -53.5384 H         1 UNK         0.0600 
    220 H220       -6.0083  -24.8570  -49.8516 H         1 UNK         0.3000 
    221 H221       -7.2261  -23.4149  -48.6981 H         1 UNK         0.0600 
    222 H222       -9.6344  -25.1736  -49.3964 H         1 UNK         0.0600 
    223 H223       -8.4850  -25.4927  -48.0982 H         1 UNK         0.0600 
    224 H224       -9.5079  -24.0678  -48.0349 H         1 UNK         0.0600 
    225 H225       -6.8692  -22.8674  -51.5629 H         1 UNK         0.3000 
    226 H226       -9.1988  -21.5200  -52.5842 H         1 UNK         0.0600 
    227 H227       -7.5144  -22.6646  -54.0217 H         1 UNK         0.0600 
    228 H228       -7.6454  -20.9697  -54.4574 H         1 UNK         0.0600 
    229 H229       -6.2717  -21.5231  -53.5081 H         1 UNK         0.0600 
    230 H230       -7.0611  -20.5372  -50.2297 H         1 UNK         0.3000 
    231 H231       -6.4989  -18.6891  -49.1835 H         1 UNK         0.0600 
    232 H232       -7.8667  -16.6712  -49.2673 H         1 UNK         0.0600 
    233 H233       -8.9231  -18.0713  -49.3400 H         1 UNK         0.0600 
    234 H234       -8.5812  -17.1428  -50.8003 H         1 UNK         0.0600 
    235 H235       -5.3603  -19.3902  -51.9638 H         1 UNK         0.3000 
    236 H236       -3.3762  -17.2923  -52.0036 H         1 UNK         0.0600 
    237 H237       -5.0418  -16.3849  -53.6510 H         1 UNK         0.0600 
    238 H238       -3.5986  -16.9390  -54.4852 H         1 UNK         0.0600 
    239 H239       -5.0573  -17.9261  -54.5057 H         1 UNK         0.0600 
    240 H240       -1.4448  -18.0951  -53.0247 H         1 UNK         0.3000 
    241 H241       -1.1382  -20.9215  -52.6110 H         1 UNK         0.0600 
    242 H242       -1.5027  -20.6360  -56.5880 H         1 UNK         0.3800 
    243 H243       -2.1051  -19.4057  -55.5086 H         1 UNK         0.3800 
    244 H244        1.2796  -20.4800  -52.8661 H         1 UNK         0.0800 
    245 H245        0.5121  -19.4139  -51.7227 H         1 UNK         0.0800 
    246 H246        3.3993  -19.0605  -53.0594 H         1 UNK         0.0800 
    247 H247        3.4884  -17.3967  -53.5766 H         1 UNK         0.0800 
@<TRIPOS>BOND
     1    1    2 1    
     2    1  127 1    
     3    1  128 1    
     4    1  129 1    
     5    2    3 2    
     6    2    4 am   BACKBONE|DICT|INTERRES
     7    4    5 1    
     8    4  130 1    
     9    5    6 1    
    10    5   65 1    
    11    5  131 1    
    12    6    7 1    
    13    6  132 1    
    14    6  133 1    
    15    7    8 1    
    16    8    9 1    
    17    8  134 1    
    18    8  135 1    
    19    9   10 ar   
    20    9   14 ar   
    21   10   11 ar   
    22   10  136 1    
    23   11   12 ar   
    24   11  126 1    
    25   12   13 ar   
    26   12  137 1    
    27   13   14 ar   
    28   13   15 1    
    29   14  138 1    
    30   15   16 1    
    31   15  139 1    
    32   15  140 1    
    33   16   17 1    
    34   17   18 1    
    35   17  141 1    
    36   17  142 1    
    37   18   19 1    
    38   18   67 1    
    39   18  143 1    
    40   19   20 am   BACKBONE|DICT|INTERRES
    41   19  144 1    
    42   20   21 2    
    43   20   22 1    
    44   22   23 1    
    45   22   24 1    
    46   22  145 1    
    47   23  146 1    
    48   23  147 1    
    49   23  148 1    
    50   24   25 am   BACKBONE|DICT|INTERRES
    51   24  149 1    
    52   25   26 2    
    53   25   27 1    
    54   27   28 1    
    55   27   29 1    
    56   27  150 1    
    57   28  151 1    
    58   28  152 1    
    59   28  153 1    
    60   29   30 am   BACKBONE|DICT|INTERRES
    61   29  154 1    
    62   30   31 2    
    63   30   32 1    
    64   32   33 1    
    65   32   34 1    
    66   32  155 1    
    67   33  156 1    
    68   33  157 1    
    69   33  158 1    
    70   34   35 am   BACKBONE|DICT|INTERRES
    71   34  159 1    
    72   35   36 2    
    73   35   37 1    
    74   37   38 1    
    75   37   39 1    
    76   37  160 1    
    77   38  161 1    
    78   38  162 1    
    79   38  163 1    
    80   39   40 am   BACKBONE|DICT|INTERRES
    81   39  164 1    
    82   40   41 2    
    83   40   42 1    
    84   42   43 1    
    85   42   44 1    
    86   42  165 1    
    87   43  166 1    
    88   43  167 1    
    89   43  168 1    
    90   44   45 am   BACKBONE|DICT|INTERRES
    91   44  169 1    
    92   45   46 2    
    93   45   47 1    
    94   47   48 1    
    95   47   49 1    
    96   47  170 1    
    97   48  171 1    
    98   48  172 1    
    99   48  173 1    
   100   49   50 am   BACKBONE|DICT|INTERRES
   101   49  174 1    
   102   50   51 2    
   103   50   52 1    
   104   52   53 1    
   105   52   54 1    
   106   52  175 1    
   107   53  176 1    
   108   53  177 1    
   109   53  178 1    
   110   54   55 am   BACKBONE|DICT|INTERRES
   111   54  179 1    
   112   55   56 2    
   113   55   57 1    
   114   57   58 1    
   115   57   59 1    
   116   57  180 1    
   117   58  181 1    
   118   58  182 1    
   119   58  183 1    
   120   59   60 am   BACKBONE|DICT|INTERRES
   121   59  184 1    
   122   60   61 2    
   123   60   62 1    
   124   62   63 1    
   125   62   64 1    
   126   62  185 1    
   127   63  186 1    
   128   63  187 1    
   129   63  188 1    
   130   64   65 am   BACKBONE|DICT|INTERRES
   131   64  189 1    
   132   65   66 2    
   133   67   68 2    
   134   67   69 am   BACKBONE|DICT|INTERRES
   135   69   70 1    
   136   69  190 1    
   137   70   71 1    
   138   70   72 1    
   139   70  191 1    
   140   71  192 1    
   141   71  193 1    
   142   71  194 1    
   143   72   73 2    
   144   72   74 am   BACKBONE|DICT|INTERRES
   145   74   75 1    
   146   74  195 1    
   147   75   76 1    
   148   75   77 1    
   149   75  196 1    
   150   76  197 1    
   151   76  198 1    
   152   76  199 1    
   153   77   78 2    
   154   77   79 am   BACKBONE|DICT|INTERRES
   155   79   80 1    
   156   79  200 1    
   157   80   81 1    
   158   80   82 1    
   159   80  201 1    
   160   81  202 1    
   161   81  203 1    
   162   81  204 1    
   163   82   83 2    
   164   82   84 am   BACKBONE|DICT|INTERRES
   165   84   85 1    
   166   84  205 1    
   167   85   86 1    
   168   85   87 1    
   169   85  206 1    
   170   86  207 1    
   171   86  208 1    
   172   86  209 1    
   173   87   88 2    
   174   87   89 am   BACKBONE|DICT|INTERRES
   175   89   90 1    
   176   89  210 1    
   177   90   91 1    
   178   90   92 1    
   179   90  211 1    
   180   91  212 1    
   181   91  213 1    
   182   91  214 1    
   183   92   93 2    
   184   92   94 am   BACKBONE|DICT|INTERRES
   185   94   95 1    
   186   94  215 1    
   187   95   96 1    
   188   95   97 1    
   189   95  216 1    
   190   96  217 1    
   191   96  218 1    
   192   96  219 1    
   193   97   98 2    
   194   97   99 am   BACKBONE|DICT|INTERRES
   195   99  100 1    
   196   99  220 1    
   197  100  101 1    
   198  100  102 1    
   199  100  221 1    
   200  101  222 1    
   201  101  223 1    
   202  101  224 1    
   203  102  103 2    
   204  102  104 am   BACKBONE|DICT|INTERRES
   205  104  105 1    
   206  104  225 1    
   207  105  106 1    
   208  105  107 1    
   209  105  226 1    
   210  106  227 1    
   211  106  228 1    
   212  106  229 1    
   213  107  108 2    
   214  107  109 am   BACKBONE|DICT|INTERRES
   215  109  110 1    
   216  109  230 1    
   217  110  111 1    
   218  110  112 1    
   219  110  231 1    
   220  111  232 1    
   221  111  233 1    
   222  111  234 1    
   223  112  113 2    
   224  112  114 am   BACKBONE|DICT|INTERRES
   225  114  115 1    
   226  114  235 1    
   227  115  116 1    
   228  115  117 1    
   229  115  236 1    
   230  116  237 1    
   231  116  238 1    
   232  116  239 1    
   233  117  118 2    
   234  117  119 am   BACKBONE|DICT|INTERRES
   235  119  120 1    
   236  119  240 1    
   237  120  121 1    
   238  120  124 1    
   239  120  241 1    
   240  121  122 am   BACKBONE|DICT|INTERRES
   241  121  123 2    
   242  122  242 1    
   243  122  243 1    
   244  124  125 1    
   245  124  244 1    
   246  124  245 1    
   247  125  126 1    
   248  126  246 1    
   249  126  247 1    
@<TRIPOS>SUBSTRUCTURE
     1 UNK         1 GROUP             0       ****    0 ROOT    
