@<TRIPOS>MOLECULE
3R540
247   249    1
SMALL
USER_CHARGES


@<TRIPOS>ATOM
      1 CA         -1.8300  -14.7759  -52.5555 C.3       0 UNK        -0.1800 
      2 C          -0.7091  -13.8940  -52.0263 C.2       0 UNK         0.5000 
      3 O          -0.4252  -12.8460  -52.6075 O.2       0 UNK        -0.5000 
      4 N          -0.0674  -14.3213  -50.9329 N.am      1 UNK        -0.5000 
      5 CA          0.9928  -13.5830  -50.2354 C.3       1 UNK         0.1400 
      6 C6          1.8284  -14.4972  -49.3012 C.3       23 UNK        -0.0398 
      7 S7          2.4436  -16.0259  -50.0903 S.3       23 UNK        -0.2404 
      8 C8          1.5669  -17.2720  -49.0965 C.3       23 UNK        -0.0205 
      9 C9          1.8838  -18.6885  -49.5440 C.ar      23 UNK        -0.0193 
     10 C10         1.1046  -19.3040  -50.5288 C.ar      23 UNK        -0.1150 
     11 C11         1.3460  -20.6305  -50.8973 C.ar      23 UNK        -0.0193 
     12 C12         2.3871  -21.3328  -50.2881 C.ar      23 UNK        -0.1150 
     13 C13         3.1645  -20.7336  -49.2924 C.ar      23 UNK        -0.0193 
     14 C14         2.9167  -19.4061  -48.9318 C.ar      23 UNK        -0.1150 
     15 C15         4.2141  -21.5564  -48.5557 C.3       23 UNK        -0.0205 
     16 S16         3.6200  -22.1656  -46.9358 S.3       23 UNK        -0.2404 
     17 C17         1.8760  -22.5624  -47.2989 C.3       23 UNK        -0.0398 
     18 CA          1.1435  -23.4381  -46.2550 C.3       11 UNK         0.1400 
     19 N           1.2551  -22.8968  -44.8981 N.am      11 UNK        -0.5000 
     20 C           1.7903  -23.5182  -43.8418 C.2       10 UNK         0.5000 
     21 O           2.2396  -24.6653  -43.8715 O.2       10 UNK        -0.5000 
     22 CA          1.8074  -22.7000  -42.5340 C.3       10 UNK         0.1400 
     23 CB          2.6370  -23.3496  -41.4066 C.3       10 UNK        -0.1800 
     24 N           2.2078  -21.3081  -42.7649 N.am      10 UNK        -0.5000 
     25 C           3.4009  -20.8493  -43.1752 C.2       9 UNK         0.5000 
     26 O           4.3935  -21.5577  -43.3442 O.2       9 UNK        -0.5000 
     27 CA          3.5087  -19.3326  -43.4455 C.3       9 UNK         0.1400 
     28 CB          3.5202  -19.0541  -44.9561 C.3       9 UNK        -0.1800 
     29 N           2.4348  -18.5502  -42.8268 N.am      9 UNK        -0.5000 
     30 C           2.3209  -18.3274  -41.5097 C.2       8 UNK         0.5000 
     31 O           3.1352  -18.7238  -40.6754 O.2       8 UNK        -0.5000 
     32 CA          1.0751  -17.5577  -41.0438 C.3       8 UNK         0.1400 
     33 CB          1.3153  -16.0433  -41.0954 C.3       8 UNK        -0.1800 
     34 N          -0.1064  -17.8971  -41.8383 N.am      8 UNK        -0.5000 
     35 C          -0.8622  -18.9850  -41.6328 C.2       7 UNK         0.5000 
     36 O          -0.6683  -19.7908  -40.7227 O.2       7 UNK        -0.5000 
     37 CA         -2.0102  -19.2336  -42.6288 C.3       7 UNK         0.1400 
     38 CB         -3.2767  -18.4783  -42.2002 C.3       7 UNK        -0.1800 
     39 N          -1.6550  -18.8537  -43.9959 N.am      7 UNK        -0.5000 
     40 C          -0.7706  -19.5184  -44.7518 C.2       6 UNK         0.5000 
     41 O          -0.2038  -20.5493  -44.3913 O.2       6 UNK        -0.5000 
     42 CA         -0.4368  -18.9324  -46.1344 C.3       6 UNK         0.1400 
     43 CB         -1.2751  -19.6180  -47.2180 C.3       6 UNK        -0.1800 
     44 N          -0.6171  -17.4854  -46.2415 N.am      6 UNK        -0.5000 
     45 C           0.0190  -16.5552  -45.5166 C.2       5 UNK         0.5000 
     46 O           0.7990  -16.8205  -44.5993 O.2       5 UNK        -0.5000 
     47 CA         -0.2475  -15.0838  -45.8950 C.3       5 UNK         0.1400 
     48 CB         -1.3245  -14.9006  -46.9906 C.3       5 UNK        -0.1800 
     49 N          -0.5712  -14.2342  -44.7530 N.am      5 UNK        -0.5000 
     50 C          -1.5796  -14.3901  -43.8842 C.2       4 UNK         0.5000 
     51 O          -2.2930  -15.3932  -43.8328 O.2       4 UNK        -0.5000 
     52 CA         -1.8617  -13.2110  -42.9283 C.3       4 UNK         0.1400 
     53 CB         -1.4409  -13.5523  -41.4923 C.3       4 UNK        -0.1800 
     54 N          -1.2083  -11.9574  -43.3212 N.am      4 UNK        -0.5000 
     55 C          -1.5401  -11.2025  -44.3782 C.2       3 UNK         0.5000 
     56 O          -2.4857  -11.4572  -45.1261 O.2       3 UNK        -0.5000 
     57 CA         -0.6822   -9.9462  -44.6487 C.3       3 UNK         0.1400 
     58 CB          0.5126   -9.7698  -43.6826 C.3       3 UNK        -0.1800 
     59 N          -0.2226   -9.8692  -46.0400 N.am      3 UNK        -0.5000 
     60 C           0.5339  -10.7598  -46.6982 C.2       2 UNK         0.5000 
     61 O           0.9444  -11.8177  -46.2115 O.2       2 UNK        -0.5000 
     62 CA          0.9472  -10.3515  -48.1283 C.3       2 UNK         0.1400 
     63 CB          2.1520   -9.3979  -48.0818 C.3       2 UNK        -0.1800 
     64 N           1.2959  -11.4981  -48.9696 N.am      2 UNK        -0.5000 
     65 C           0.4122  -12.3846  -49.4438 C.2       1 UNK         0.5000 
     66 O          -0.8039  -12.2863  -49.2589 O.2       1 UNK        -0.5000 
     67 C          -0.3382  -23.5712  -46.6709 C.2       11 UNK         0.5000 
     68 O          -0.6150  -23.7357  -47.8598 O.2       11 UNK        -0.5000 
     69 N          -1.2731  -23.4507  -45.7154 N.am      12 UNK        -0.5000 
     70 CA         -2.7169  -23.3215  -45.9407 C.3       12 UNK         0.1400 
     71 CB         -3.4374  -23.2487  -44.5872 C.3       12 UNK        -0.1800 
     72 C          -3.3416  -24.4091  -46.8354 C.2       12 UNK         0.5000 
     73 O          -4.2194  -24.0916  -47.6359 O.2       12 UNK        -0.5000 
     74 N          -2.8499  -25.6506  -46.7236 N.am      13 UNK        -0.5000 
     75 CA         -3.2719  -26.7854  -47.5478 C.3       13 UNK         0.1400 
     76 CB         -2.6976  -28.0820  -46.9576 C.3       13 UNK        -0.1800 
     77 C          -2.8759  -26.6428  -49.0311 C.2       13 UNK         0.5000 
     78 O          -3.6680  -26.9960  -49.9053 O.2       13 UNK        -0.5000 
     79 N          -1.6770  -26.1011  -49.2929 N.am      14 UNK        -0.5000 
     80 CA         -1.1777  -25.8057  -50.6400 C.3       14 UNK         0.1400 
     81 CB          0.3427  -25.5853  -50.5924 C.3       14 UNK        -0.1800 
     82 C          -1.8805  -24.5819  -51.2522 C.2       14 UNK         0.5000 
     83 O          -2.0965  -24.5375  -52.4625 O.2       14 UNK        -0.5000 
     84 N          -2.2620  -23.6324  -50.3895 N.am      15 UNK        -0.5000 
     85 CA         -3.0259  -22.4292  -50.7156 C.3       15 UNK         0.1400 
     86 CB         -2.6416  -21.3397  -49.7087 C.3       15 UNK        -0.1800 
     87 C          -4.5537  -22.6654  -50.7491 C.2       15 UNK         0.5000 
     88 O          -5.3161  -21.6944  -50.7219 O.2       15 UNK        -0.5000 
     89 N          -4.9702  -23.9416  -50.7916 N.am      16 UNK        -0.5000 
     90 CA         -6.3349  -24.4557  -50.9611 C.3       16 UNK         0.1400 
     91 CB         -6.8588  -24.0927  -52.3664 C.3       16 UNK        -0.1800 
     92 C          -7.3228  -24.0446  -49.8486 C.2       16 UNK         0.5000 
     93 O          -8.5317  -24.0297  -50.0850 O.2       16 UNK        -0.5000 
     94 N          -6.7936  -23.6871  -48.6685 N.am      17 UNK        -0.5000 
     95 CA         -7.4824  -23.1059  -47.5090 C.3       17 UNK         0.1400 
     96 CB         -8.4547  -24.1252  -46.8812 C.3       17 UNK        -0.1800 
     97 C          -8.1550  -21.7435  -47.8002 C.2       17 UNK         0.5000 
     98 O          -8.9898  -21.2948  -47.0129 O.2       17 UNK        -0.5000 
     99 N          -7.7770  -21.1088  -48.9173 N.am      18 UNK        -0.5000 
    100 CA        -8.3529  -19.8678  -49.4340 C.3       18 UNK         0.1400 
    101 CB        -8.8609  -20.1436  -50.8597 C.3       18 UNK        -0.1800 
    102 C         -7.3312  -18.7172  -49.4456 C.2       18 UNK         0.5000 
    103 O         -7.6907  -17.6050  -49.8334 O.2       18 UNK        -0.5000 
    104 N         -6.0797  -19.0074  -49.0538 N.am      19 UNK        -0.5000 
    105 CA        -4.9001  -18.1416  -49.1564 C.3       19 UNK         0.1400 
    106 CB        -5.0191  -16.9101  -48.2339 C.3       19 UNK        -0.1800 
    107 C         -4.5738  -17.7867  -50.6236 C.2       19 UNK         0.5000 
    108 O         -4.2332  -16.6420  -50.9263 O.2       19 UNK        -0.5000 
    109 N         -4.7031  -18.7862  -51.5098 N.am      20 UNK        -0.5000 
    110 CA        -4.3750  -18.7008  -52.9325 C.3       20 UNK         0.1400 
    111 CB        -4.8621  -19.9840  -53.6253 C.3       20 UNK        -0.1800 
    112 C         -2.8670  -18.4962  -53.1785 C.2       20 UNK         0.5000 
    113 O         -2.0497  -18.7948  -52.3066 O.2       20 UNK        -0.5000 
    114 N         -2.5263  -18.0107  -54.3787 N.am      21 UNK        -0.5000 
    115 CA        -1.1501  -17.7270  -54.7980 C.3       21 UNK         0.1400 
    116 CB        -1.1903  -16.8100  -56.0313 C.3       21 UNK        -0.1800 
    117 C         -0.3081  -18.9832  -55.0996 C.2       21 UNK         0.5000 
    118 O          0.9177  -18.8786  -55.1171 O.2       21 UNK        -0.5000 
    119 N         -0.9793  -20.1125  -55.3724 N.am      22 UNK        -0.5000 
    120 CA        -0.4819  -21.4699  -55.6944 C.3       22 UNK         0.1400 
    121 C          0.5704  -21.6398  -56.8360 C.2       22 UNK         0.5000 
    122 N          1.2209  -20.5934  -57.3208 N.am      22 UNK        -0.7600 
    123 O          0.7672  -22.7497  -57.3239 O.2       22 UNK        -0.5000 
    124 C124       -0.1391  -22.3222  -54.4399 C.3       23 UNK        -0.0398 
    125 S125        1.2806  -21.7328  -53.4509 S.3       23 UNK        -0.2404 
    126 C126        0.4376  -21.3336  -51.8922 C.3       23 UNK        -0.0205 
    127 H127       -1.7975  -15.7736  -52.1170 H         1 UNK         0.0600 
    128 H128       -1.7529  -14.8769  -53.6370 H         1 UNK         0.0600 
    129 H129       -2.7984  -14.3334  -52.3222 H         1 UNK         0.0600 
    130 H130       -0.3556  -15.1856  -50.5016 H         1 UNK         0.3000 
    131 H131        1.6666  -13.1774  -50.9933 H         1 UNK         0.0600 
    132 H132        1.2459  -14.7663  -48.4239 H         1 UNK         0.0800 
    133 H133        2.6979  -13.9574  -48.9228 H         1 UNK         0.0800 
    134 H134        0.4918  -17.0999  -49.1621 H         1 UNK         0.0800 
    135 H135        1.8371  -17.1500  -48.0465 H         1 UNK         0.0800 
    136 H136        0.2914  -18.7589  -50.9877 H         1 UNK         0.1150 
    137 H137        2.5597  -22.3650  -50.5590 H         1 UNK         0.1150 
    138 H138        3.5044  -18.9454  -48.1501 H         1 UNK         0.1150 
    139 H139        4.5168  -22.4107  -49.1631 H         1 UNK         0.0800 
    140 H140        5.1128  -20.9573  -48.4036 H         1 UNK         0.0800 
    141 H141        1.8532  -23.0704  -48.2639 H         1 UNK         0.0800 
    142 H142        1.3476  -21.6159  -47.4298 H         1 UNK         0.0800 
    143 H143        1.5696  -24.4422  -46.2961 H         1 UNK         0.0600 
    144 H144        0.8707  -21.9638  -44.7592 H         1 UNK         0.3000 
    145 H145        0.7725  -22.6588  -42.1913 H         1 UNK         0.0600 
    146 H146        2.6254  -22.7358  -40.5059 H         1 UNK         0.0600 
    147 H147        2.2311  -24.3258  -41.1394 H         1 UNK         0.0600 
    148 H148        3.6767  -23.4997  -41.6978 H         1 UNK         0.0600 
    149 H149        1.4572  -20.6335  -42.7075 H         1 UNK         0.3000 
    150 H150        4.4589  -18.9901  -43.0305 H         1 UNK         0.0600 
    151 H151        4.3968  -19.5018  -45.4258 H         1 UNK         0.0600 
    152 H152        3.5476  -17.9850  -45.1676 H         1 UNK         0.0600 
    153 H153        2.6430  -19.4743  -45.4450 H         1 UNK         0.0600 
    154 H154        1.7600  -18.1205  -43.4521 H         1 UNK         0.3000 
    155 H155        0.8948  -17.8282  -40.0010 H         1 UNK         0.0600 
    156 H156        2.2493  -15.7749  -40.5999 H         1 UNK         0.0600 
    157 H157        0.5163  -15.5167  -40.5768 H         1 UNK         0.0600 
    158 H158        1.3652  -15.6711  -42.1194 H         1 UNK         0.0600 
    159 H159       -0.2965  -17.3145  -42.6433 H         1 UNK         0.3000 
    160 H160       -2.2340  -20.3026  -42.6188 H         1 UNK         0.0600 
    161 H161       -3.1183  -17.3996  -42.1850 H         1 UNK         0.0600 
    162 H162       -3.5883  -18.7775  -41.1986 H         1 UNK         0.0600 
    163 H163       -4.1075  -18.6863  -42.8746 H         1 UNK         0.0600 
    164 H164       -2.0569  -17.9970  -44.3514 H         1 UNK         0.3000 
    165 H165        0.6118  -19.1466  -46.3403 H         1 UNK         0.0600 
    166 H166       -1.0070  -19.2581  -48.2115 H         1 UNK         0.0600 
    167 H167       -1.1095  -20.6951  -47.2101 H         1 UNK         0.0600 
    168 H168       -2.3422  -19.4473  -47.0717 H         1 UNK         0.0600 
    169 H169       -1.2674  -17.1698  -46.9452 H         1 UNK         0.3000 
    170 H170        0.6977  -14.6992  -46.2752 H         1 UNK         0.0600 
    171 H171       -1.0459  -15.3883  -47.9248 H         1 UNK         0.0600 
    172 H172       -2.2935  -15.2938  -46.6806 H         1 UNK         0.0600 
    173 H173       -1.4664  -13.8436  -47.2142 H         1 UNK         0.0600 
    174 H174       -0.0397  -13.3750  -44.7032 H         1 UNK         0.3000 
    175 H175       -2.9418  -13.0511  -42.9361 H         1 UNK         0.0600 
    176 H176       -1.8283  -14.5243  -41.1830 H         1 UNK         0.0600 
    177 H177       -0.3561  -13.5765  -41.3941 H         1 UNK         0.0600 
    178 H178       -1.8211  -12.8131  -40.7871 H         1 UNK         0.0600 
    179 H179       -0.4198  -11.6697  -42.7599 H         1 UNK         0.3000 
    180 H180       -1.3484   -9.0951  -44.5006 H         1 UNK         0.0600 
    181 H181        1.2210  -10.5966  -43.7477 H         1 UNK         0.0600 
    182 H182        0.1790   -9.6924  -42.6470 H         1 UNK         0.0600 
    183 H183        1.0590   -8.8534  -43.9062 H         1 UNK         0.0600 
    184 H184       -0.5257   -9.0458  -46.5410 H         1 UNK         0.3000 
    185 H185        0.1087   -9.8286  -48.5936 H         1 UNK         0.0600 
    186 H186        1.9263   -8.5058  -47.4961 H         1 UNK         0.0600 
    187 H187        3.0237   -9.8735  -47.6302 H         1 UNK         0.0600 
    188 H188        2.4310   -9.0644  -49.0816 H         1 UNK         0.0600 
    189 H189        2.2812  -11.6436  -49.1327 H         1 UNK         0.3000 
    190 H190       -0.9550  -23.3116  -44.7678 H         1 UNK         0.3000 
    191 H191       -2.8716  -22.3681  -46.4484 H         1 UNK         0.0600 
    192 H192       -3.2768  -24.1519  -43.9973 H         1 UNK         0.0600 
    193 H193       -4.5135  -23.1301  -44.7218 H         1 UNK         0.0600 
    194 H194       -3.0892  -22.3975  -44.0015 H         1 UNK         0.0600 
    195 H195       -2.1193  -25.8195  -46.0481 H         1 UNK         0.3000 
    196 H196       -4.3615  -26.8458  -47.5029 H         1 UNK         0.0600 
    197 H197       -3.0126  -28.9490  -47.5398 H         1 UNK         0.0600 
    198 H198       -3.0425  -28.2363  -45.9350 H         1 UNK         0.0600 
    199 H199       -1.6070  -28.0722  -46.9469 H         1 UNK         0.0600 
    200 H200       -1.1225  -25.7505  -48.5229 H         1 UNK         0.3000 
    201 H201       -1.3784  -26.6659  -51.2822 H         1 UNK         0.0600 
    202 H202        0.8551  -26.4545  -50.1800 H         1 UNK         0.0600 
    203 H203        0.6106  -24.7188  -49.9874 H         1 UNK         0.0600 
    204 H204        0.7416  -25.4168  -51.5935 H         1 UNK         0.0600 
    205 H205       -1.9986  -23.7473  -49.4167 H         1 UNK         0.3000 
    206 H206       -2.7306  -22.0856  -51.7088 H         1 UNK         0.0600 
    207 H207       -1.5592  -21.2723  -49.5992 H         1 UNK         0.0600 
    208 H208       -2.9846  -20.3641  -50.0444 H         1 UNK         0.0600 
    209 H209       -3.0709  -21.5305  -48.7252 H         1 UNK         0.0600 
    210 H210       -4.2544  -24.6533  -50.7448 H         1 UNK         0.3000 
    211 H211       -6.2562  -25.5423  -50.9055 H         1 UNK         0.0600 
    212 H212       -7.0233  -23.0194  -52.4703 H         1 UNK         0.0600 
    213 H213       -7.8061  -24.5909  -52.5757 H         1 UNK         0.0600 
    214 H214       -6.1561  -24.4004  -53.1408 H         1 UNK         0.0600 
    215 H215       -5.7859  -23.7804  -48.5518 H         1 UNK         0.3000 
    216 H216       -6.7033  -22.9013  -46.7735 H         1 UNK         0.0600 
    217 H217       -8.8487  -23.7583  -45.9328 H         1 UNK         0.0600 
    218 H218       -7.9543  -25.0720  -46.6778 H         1 UNK         0.0600 
    219 H219       -9.3063  -24.3275  -47.5310 H         1 UNK         0.0600 
    220 H220       -7.0801  -21.5506  -49.5070 H         1 UNK         0.3000 
    221 H221       -9.1969  -19.5461  -48.8209 H         1 UNK         0.0600 
    222 H222       -8.0472  -20.4349  -51.5258 H         1 UNK         0.0600 
    223 H223       -9.5992  -20.9459  -50.8654 H         1 UNK         0.0600 
    224 H224       -9.3378  -19.2609  -51.2874 H         1 UNK         0.0600 
    225 H225       -5.9022  -19.9573  -48.7618 H         1 UNK         0.3000 
    226 H226       -4.0577  -18.7289  -48.7918 H         1 UNK         0.0600 
    227 H227       -5.2324  -17.2059  -47.2068 H         1 UNK         0.0600 
    228 H228       -4.0878  -16.3430  -48.2212 H         1 UNK         0.0600 
    229 H229       -5.8071  -16.2307  -48.5590 H         1 UNK         0.0600 
    230 H230       -4.9872  -19.6993  -51.1734 H         1 UNK         0.3000 
    231 H231       -4.9132  -17.8472  -53.3497 H         1 UNK         0.0600 
    232 H232       -5.9210  -20.1599  -53.4338 H         1 UNK         0.0600 
    233 H233       -4.3117  -20.8606  -53.2827 H         1 UNK         0.0600 
    234 H234       -4.7357  -19.9208  -54.7065 H         1 UNK         0.0600 
    235 H235       -3.2524  -17.7924  -55.0460 H         1 UNK         0.3000 
    236 H236       -0.6485  -17.1909  -53.9895 H         1 UNK         0.0600 
    237 H237       -0.1834  -16.5248  -56.3392 H         1 UNK         0.0600 
    238 H238       -1.6660  -17.3007  -56.8814 H         1 UNK         0.0600 
    239 H239       -1.7376  -15.8900  -55.8275 H         1 UNK         0.0600 
    240 H240       -1.9848  -20.0337  -55.3653 H         1 UNK         0.3000 
    241 H241       -1.3670  -21.9425  -56.1222 H         1 UNK         0.0600 
    242 H242        1.8880  -20.7116  -58.0666 H         1 UNK         0.3800 
    243 H243        1.1622  -19.7157  -56.8157 H         1 UNK         0.3800 
    244 H244       -1.0220  -22.3785  -53.8026 H         1 UNK         0.0800 
    245 H245        0.0618  -23.3555  -54.7277 H         1 UNK         0.0800 
    246 H246       -0.4366  -20.7213  -52.1066 H         1 UNK         0.0800 
    247 H247        0.0670  -22.2547  -51.4424 H         1 UNK         0.0800 
@<TRIPOS>BOND
     1    1    2 1    
     2    1  127 1    
     3    1  128 1    
     4    1  129 1    
     5    2    3 2    
     6    2    4 am   BACKBONE|DICT|INTERRES
     7    4    5 1    
     8    4  130 1    
     9    5    6 1    
    10    5   65 1    
    11    5  131 1    
    12    6    7 1    
    13    6  132 1    
    14    6  133 1    
    15    7    8 1    
    16    8    9 1    
    17    8  134 1    
    18    8  135 1    
    19    9   10 ar   
    20    9   14 ar   
    21   10   11 ar   
    22   10  136 1    
    23   11   12 ar   
    24   11  126 1    
    25   12   13 ar   
    26   12  137 1    
    27   13   14 ar   
    28   13   15 1    
    29   14  138 1    
    30   15   16 1    
    31   15  139 1    
    32   15  140 1    
    33   16   17 1    
    34   17   18 1    
    35   17  141 1    
    36   17  142 1    
    37   18   19 1    
    38   18   67 1    
    39   18  143 1    
    40   19   20 am   BACKBONE|DICT|INTERRES
    41   19  144 1    
    42   20   21 2    
    43   20   22 1    
    44   22   23 1    
    45   22   24 1    
    46   22  145 1    
    47   23  146 1    
    48   23  147 1    
    49   23  148 1    
    50   24   25 am   BACKBONE|DICT|INTERRES
    51   24  149 1    
    52   25   26 2    
    53   25   27 1    
    54   27   28 1    
    55   27   29 1    
    56   27  150 1    
    57   28  151 1    
    58   28  152 1    
    59   28  153 1    
    60   29   30 am   BACKBONE|DICT|INTERRES
    61   29  154 1    
    62   30   31 2    
    63   30   32 1    
    64   32   33 1    
    65   32   34 1    
    66   32  155 1    
    67   33  156 1    
    68   33  157 1    
    69   33  158 1    
    70   34   35 am   BACKBONE|DICT|INTERRES
    71   34  159 1    
    72   35   36 2    
    73   35   37 1    
    74   37   38 1    
    75   37   39 1    
    76   37  160 1    
    77   38  161 1    
    78   38  162 1    
    79   38  163 1    
    80   39   40 am   BACKBONE|DICT|INTERRES
    81   39  164 1    
    82   40   41 2    
    83   40   42 1    
    84   42   43 1    
    85   42   44 1    
    86   42  165 1    
    87   43  166 1    
    88   43  167 1    
    89   43  168 1    
    90   44   45 am   BACKBONE|DICT|INTERRES
    91   44  169 1    
    92   45   46 2    
    93   45   47 1    
    94   47   48 1    
    95   47   49 1    
    96   47  170 1    
    97   48  171 1    
    98   48  172 1    
    99   48  173 1    
   100   49   50 am   BACKBONE|DICT|INTERRES
   101   49  174 1    
   102   50   51 2    
   103   50   52 1    
   104   52   53 1    
   105   52   54 1    
   106   52  175 1    
   107   53  176 1    
   108   53  177 1    
   109   53  178 1    
   110   54   55 am   BACKBONE|DICT|INTERRES
   111   54  179 1    
   112   55   56 2    
   113   55   57 1    
   114   57   58 1    
   115   57   59 1    
   116   57  180 1    
   117   58  181 1    
   118   58  182 1    
   119   58  183 1    
   120   59   60 am   BACKBONE|DICT|INTERRES
   121   59  184 1    
   122   60   61 2    
   123   60   62 1    
   124   62   63 1    
   125   62   64 1    
   126   62  185 1    
   127   63  186 1    
   128   63  187 1    
   129   63  188 1    
   130   64   65 am   BACKBONE|DICT|INTERRES
   131   64  189 1    
   132   65   66 2    
   133   67   68 2    
   134   67   69 am   BACKBONE|DICT|INTERRES
   135   69   70 1    
   136   69  190 1    
   137   70   71 1    
   138   70   72 1    
   139   70  191 1    
   140   71  192 1    
   141   71  193 1    
   142   71  194 1    
   143   72   73 2    
   144   72   74 am   BACKBONE|DICT|INTERRES
   145   74   75 1    
   146   74  195 1    
   147   75   76 1    
   148   75   77 1    
   149   75  196 1    
   150   76  197 1    
   151   76  198 1    
   152   76  199 1    
   153   77   78 2    
   154   77   79 am   BACKBONE|DICT|INTERRES
   155   79   80 1    
   156   79  200 1    
   157   80   81 1    
   158   80   82 1    
   159   80  201 1    
   160   81  202 1    
   161   81  203 1    
   162   81  204 1    
   163   82   83 2    
   164   82   84 am   BACKBONE|DICT|INTERRES
   165   84   85 1    
   166   84  205 1    
   167   85   86 1    
   168   85   87 1    
   169   85  206 1    
   170   86  207 1    
   171   86  208 1    
   172   86  209 1    
   173   87   88 2    
   174   87   89 am   BACKBONE|DICT|INTERRES
   175   89   90 1    
   176   89  210 1    
   177   90   91 1    
   178   90   92 1    
   179   90  211 1    
   180   91  212 1    
   181   91  213 1    
   182   91  214 1    
   183   92   93 2    
   184   92   94 am   BACKBONE|DICT|INTERRES
   185   94   95 1    
   186   94  215 1    
   187   95   96 1    
   188   95   97 1    
   189   95  216 1    
   190   96  217 1    
   191   96  218 1    
   192   96  219 1    
   193   97   98 2    
   194   97   99 am   BACKBONE|DICT|INTERRES
   195   99  100 1    
   196   99  220 1    
   197  100  101 1    
   198  100  102 1    
   199  100  221 1    
   200  101  222 1    
   201  101  223 1    
   202  101  224 1    
   203  102  103 2    
   204  102  104 am   BACKBONE|DICT|INTERRES
   205  104  105 1    
   206  104  225 1    
   207  105  106 1    
   208  105  107 1    
   209  105  226 1    
   210  106  227 1    
   211  106  228 1    
   212  106  229 1    
   213  107  108 2    
   214  107  109 am   BACKBONE|DICT|INTERRES
   215  109  110 1    
   216  109  230 1    
   217  110  111 1    
   218  110  112 1    
   219  110  231 1    
   220  111  232 1    
   221  111  233 1    
   222  111  234 1    
   223  112  113 2    
   224  112  114 am   BACKBONE|DICT|INTERRES
   225  114  115 1    
   226  114  235 1    
   227  115  116 1    
   228  115  117 1    
   229  115  236 1    
   230  116  237 1    
   231  116  238 1    
   232  116  239 1    
   233  117  118 2    
   234  117  119 am   BACKBONE|DICT|INTERRES
   235  119  120 1    
   236  119  240 1    
   237  120  121 1    
   238  120  124 1    
   239  120  241 1    
   240  121  122 am   BACKBONE|DICT|INTERRES
   241  121  123 2    
   242  122  242 1    
   243  122  243 1    
   244  124  125 1    
   245  124  244 1    
   246  124  245 1    
   247  125  126 1    
   248  126  246 1    
   249  126  247 1    
@<TRIPOS>SUBSTRUCTURE
     1 UNK         1 GROUP             0       ****    0 ROOT    
