@<TRIPOS>MOLECULE
3R540
247   249    1
SMALL
USER_CHARGES


@<TRIPOS>ATOM
      1 CA          4.7244  -12.4014  -45.1618 C.3       0 UNK        -0.1800 
      2 C           3.6397  -12.5914  -46.2110 C.2       0 UNK         0.5000 
      3 O           2.4763  -12.2879  -45.9540 O.2       0 UNK        -0.5000 
      4 N           4.0169  -13.0712  -47.4040 N.am      1 UNK        -0.5000 
      5 CA          3.1119  -13.3585  -48.5280 C.3       1 UNK         0.1400 
      6 C6          3.8240  -14.2049  -49.6173 C.3       23 UNK        -0.0398 
      7 S7          2.6901  -15.3626  -50.4527 S.3       23 UNK        -0.2404 
      8 C8          2.7597  -16.7613  -49.2908 C.3       23 UNK        -0.0205 
      9 C9          1.6421  -17.7630  -49.5332 C.ar      23 UNK        -0.0193 
     10 C10         0.3105  -17.3891  -49.3333 C.ar      23 UNK        -0.1150 
     11 C11        -0.7284  -18.3081  -49.5039 C.ar      23 UNK        -0.0193 
     12 C12        -0.4118  -19.6299  -49.8446 C.ar      23 UNK        -0.1150 
     13 C13         0.9150  -20.0184  -50.0548 C.ar      23 UNK        -0.0193 
     14 C14         1.9364  -19.0736  -49.9149 C.ar      23 UNK        -0.1150 
     15 C15         1.2339  -21.4653  -50.4162 C.3       23 UNK        -0.0205 
     16 S16         2.5361  -22.2201  -49.3772 S.3       23 UNK        -0.2404 
     17 C17         1.9996  -21.8178  -47.6766 C.3       23 UNK        -0.0398 
     18 CA          1.1762  -22.9326  -46.9950 C.3       11 UNK         0.1400 
     19 N           1.1061  -22.7390  -45.5462 N.am      11 UNK        -0.5000 
     20 C           0.5816  -23.6149  -44.6782 C.2       10 UNK         0.5000 
     21 O           0.1589  -24.7263  -44.9972 O.2       10 UNK        -0.5000 
     22 CA          0.4637  -23.1476  -43.2164 C.3       10 UNK         0.1400 
     23 CB          1.8030  -23.3081  -42.4822 C.3       10 UNK        -0.1800 
     24 N           0.0025  -21.7617  -43.1076 N.am      10 UNK        -0.5000 
     25 C          -1.2023  -21.3310  -43.5094 C.2       9 UNK         0.5000 
     26 O          -2.0727  -22.0728  -43.9641 O.2       9 UNK        -0.5000 
     27 CA         -1.4651  -19.8150  -43.4348 C.3       9 UNK         0.1400 
     28 CB         -1.8250  -19.3877  -42.0044 C.3       9 UNK        -0.1800 
     29 N          -0.3346  -19.0197  -43.9150 N.am      9 UNK        -0.5000 
     30 C           0.1305  -19.0390  -45.1723 C.2       8 UNK         0.5000 
     31 O          -0.3702  -19.7051  -46.0757 O.2       8 UNK        -0.5000 
     32 CA          1.4057  -18.2252  -45.4519 C.3       8 UNK         0.1400 
     33 CB          1.0820  -16.7377  -45.6656 C.3       8 UNK        -0.1800 
     34 N           2.3871  -18.3707  -44.3760 N.am      8 UNK        -0.5000 
     35 C           3.0327  -19.5113  -44.0914 C.2       7 UNK         0.5000 
     36 O           2.8949  -20.5532  -44.7313 O.2       7 UNK        -0.5000 
     37 CA          3.9517  -19.4957  -42.8567 C.3       7 UNK         0.1400 
     38 CB          5.3149  -18.8783  -43.2026 C.3       7 UNK        -0.1800 
     39 N           3.3616  -18.7718  -41.7300 N.am      7 UNK        -0.5000 
     40 C           2.2680  -19.1679  -41.0628 C.2       6 UNK         0.5000 
     41 O           1.6643  -20.2132  -41.2993 O.2       6 UNK        -0.5000 
     42 CA          1.7279  -18.2054  -39.9877 C.3       6 UNK         0.1400 
     43 CB          2.4171  -18.4595  -38.6390 C.3       6 UNK        -0.1800 
     44 N           1.8756  -16.7928  -40.3535 N.am      6 UNK        -0.5000 
     45 C           1.3011  -16.2253  -41.4215 C.2       5 UNK         0.5000 
     46 O           0.5719  -16.8342  -42.2103 O.2       5 UNK        -0.5000 
     47 CA          1.6377  -14.7518  -41.6815 C.3       5 UNK         0.1400 
     48 CB          3.0748  -14.6096  -42.2202 C.3       5 UNK        -0.1800 
     49 N           0.6848  -14.2324  -42.6551 N.am      5 UNK        -0.5000 
     50 C           0.4602  -12.9459  -42.9287 C.2       4 UNK         0.5000 
     51 O           1.0284  -12.0085  -42.3601 O.2       4 UNK        -0.5000 
     52 CA         -0.5918  -12.6598  -44.0085 C.3       4 UNK         0.1400 
     53 CB         -2.0161  -12.6935  -43.4285 C.3       4 UNK        -0.1800 
     54 N          -0.3165  -11.3462  -44.5738 N.am      4 UNK        -0.5000 
     55 C          -0.5570  -10.9746  -45.8337 C.2       3 UNK         0.5000 
     56 O          -1.1623  -11.6739  -46.6480 O.2       3 UNK        -0.5000 
     57 CA         -0.0147   -9.6070  -46.2794 C.3       3 UNK         0.1400 
     58 CB          0.4878   -8.7069  -45.1310 C.3       3 UNK        -0.1800 
     59 N           1.0770   -9.8475  -47.2150 N.am      3 UNK        -0.5000 
     60 C           1.2858   -9.1784  -48.3557 C.2       2 UNK         0.5000 
     61 O           0.5808   -8.2410  -48.7327 O.2       2 UNK        -0.5000 
     62 CA          2.4874   -9.6074  -49.2265 C.3       2 UNK         0.1400 
     63 CB          3.6155   -8.5677  -49.1339 C.3       2 UNK        -0.1800 
     64 N           3.0329  -10.9190  -48.8710 N.am      2 UNK        -0.5000 
     65 C           2.4405  -12.0955  -49.1209 C.2       1 UNK         0.5000 
     66 O           1.3947  -12.2017  -49.7618 O.2       1 UNK        -0.5000 
     67 C          -0.2298  -23.0714  -47.6119 C.2       11 UNK         0.5000 
     68 O          -0.4629  -24.0185  -48.3599 O.2       11 UNK        -0.5000 
     69 N          -1.1522  -22.1670  -47.2532 N.am      12 UNK        -0.5000 
     70 CA         -2.5510  -22.1869  -47.6839 C.3       12 UNK         0.1400 
     71 CB         -3.2684  -20.9346  -47.1631 C.3       12 UNK        -0.1800 
     72 C          -3.2984  -23.4568  -47.2427 C.2       12 UNK         0.5000 
     73 O          -4.0637  -24.0091  -48.0297 O.2       12 UNK        -0.5000 
     74 N          -3.0432  -23.9231  -46.0133 N.am      13 UNK        -0.5000 
     75 CA         -3.5866  -25.1741  -45.4842 C.3       13 UNK         0.1400 
     76 CB         -3.2779  -25.2749  -43.9827 C.3       13 UNK        -0.1800 
     77 C          -3.0710  -26.4162  -46.2373 C.2       13 UNK         0.5000 
     78 O          -3.8493  -27.3367  -46.4892 O.2       13 UNK        -0.5000 
     79 N          -1.7789  -26.4158  -46.5912 N.am      14 UNK        -0.5000 
     80 CA         -1.1217  -27.4949  -47.3268 C.3       14 UNK         0.1400 
     81 CB          0.4011  -27.3666  -47.1623 C.3       14 UNK        -0.1800 
     82 C          -1.5090  -27.5283  -48.8171 C.2       14 UNK         0.5000 
     83 O          -1.8339  -28.5965  -49.3372 O.2       14 UNK        -0.5000 
     84 N          -1.4494  -26.3669  -49.4805 N.am      15 UNK        -0.5000 
     85 CA         -1.6650  -26.2168  -50.9216 C.3       15 UNK         0.1400 
     86 CB         -0.9573  -24.9363  -51.3947 C.3       15 UNK        -0.1800 
     87 C          -3.1486  -26.1762  -51.3302 C.2       15 UNK         0.5000 
     88 O          -3.4409  -26.4065  -52.5035 O.2       15 UNK        -0.5000 
     89 N          -4.0311  -25.8746  -50.3666 N.am      16 UNK        -0.5000 
     90 CA         -5.4444  -25.5080  -50.4900 C.3       16 UNK         0.1400 
     91 CB         -6.2601  -26.4841  -51.3606 C.3       16 UNK        -0.1800 
     92 C          -5.5741  -24.0526  -50.9704 C.2       16 UNK         0.5000 
     93 O          -5.1218  -23.7166  -52.0660 O.2       16 UNK        -0.5000 
     94 N          -6.1933  -23.2100  -50.1338 N.am      17 UNK        -0.5000 
     95 CA         -6.2998  -21.7573  -50.2990 C.3       17 UNK         0.1400 
     96 CB         -7.0716  -21.1796  -49.1032 C.3       17 UNK        -0.1800 
     97 C          -6.9481  -21.3072  -51.6207 C.2       17 UNK         0.5000 
     98 O          -6.5440  -20.2855  -52.1747 O.2       17 UNK        -0.5000 
     99 N          -7.9190  -22.0887  -52.1118 N.am      18 UNK        -0.5000 
    100 CA        -8.6031  -21.8588  -53.3842 C.3       18 UNK         0.1400 
    101 CB        -9.8830  -22.7070  -53.4277 C.3       18 UNK        -0.1800 
    102 C         -7.7154  -22.1587  -54.6070 C.2       18 UNK         0.5000 
    103 O         -7.8360  -21.4719  -55.6214 O.2       18 UNK        -0.5000 
    104 N         -6.8359  -23.1634  -54.4898 N.am      19 UNK        -0.5000 
    105 CA        -5.8850  -23.5549  -55.5321 C.3       19 UNK         0.1400 
    106 CB        -5.4763  -25.0213  -55.3295 C.3       19 UNK        -0.1800 
    107 C         -4.6519  -22.6364  -55.5401 C.2       19 UNK         0.5000 
    108 O         -4.1647  -22.2769  -56.6124 O.2       19 UNK        -0.5000 
    109 N         -4.1966  -22.2430  -54.3428 N.am      20 UNK        -0.5000 
    110 CA        -3.1279  -21.2666  -54.1255 C.3       20 UNK         0.1400 
    111 CB        -2.6577  -21.3733  -52.6673 C.3       20 UNK        -0.1800 
    112 C         -3.5432  -19.8188  -54.4671 C.2       20 UNK         0.5000 
    113 O         -2.6682  -18.9751  -54.6639 O.2       20 UNK        -0.5000 
    114 N         -4.8599  -19.5698  -54.5418 N.am      21 UNK        -0.5000 
    115 CA        -5.5267  -18.2945  -54.8212 C.3       21 UNK         0.1400 
    116 CB        -5.2155  -17.8081  -56.2520 C.3       21 UNK        -0.1800 
    117 C         -5.2455  -17.2361  -53.7352 C.2       21 UNK         0.5000 
    118 O         -4.9609  -16.0776  -54.0469 O.2       21 UNK        -0.5000 
    119 N         -5.3191  -17.6699  -52.4728 N.am      22 UNK        -0.5000 
    120 CA        -5.1182  -16.8398  -51.2783 C.3       22 UNK         0.1400 
    121 C         -6.2881  -15.8442  -51.0466 C.2       22 UNK         0.5000 
    122 N         -6.0025  -14.6468  -50.5534 N.am      22 UNK        -0.7600 
    123 O         -7.4554  -16.1593  -51.2688 O.2       22 UNK        -0.5000 
    124 C124       -4.8871  -17.7087  -50.0172 C.3       23 UNK        -0.0398 
    125 S125       -3.4325  -18.7952  -50.1855 S.3       23 UNK        -0.2404 
    126 C126       -2.1659  -17.8331  -49.2887 C.3       23 UNK        -0.0205 
    127 H127        4.6472  -13.1762  -44.4002 H         1 UNK         0.0600 
    128 H128        5.7218  -12.4502  -45.5992 H         1 UNK         0.0600 
    129 H129        4.6139  -11.4314  -44.6768 H         1 UNK         0.0600 
    130 H130        4.9924  -13.2838  -47.5590 H         1 UNK         0.3000 
    131 H131        2.3018  -13.9565  -48.1041 H         1 UNK         0.0600 
    132 H132        4.3048  -13.5722  -50.3656 H         1 UNK         0.0800 
    133 H133        4.6297  -14.7973  -49.1809 H         1 UNK         0.0800 
    134 H134        2.6787  -16.3941  -48.2674 H         1 UNK         0.0800 
    135 H135        3.7365  -17.2411  -49.3696 H         1 UNK         0.0800 
    136 H136        0.0848  -16.3721  -49.0443 H         1 UNK         0.1150 
    137 H137       -1.1969  -20.3641  -49.9474 H         1 UNK         0.1150 
    138 H138        2.9639  -19.3709  -50.0708 H         1 UNK         0.1150 
    139 H139        0.3374  -22.0837  -50.3544 H         1 UNK         0.0800 
    140 H140        1.5538  -21.5015  -51.4581 H         1 UNK         0.0800 
    141 H141        1.4746  -20.8640  -47.6404 H         1 UNK         0.0800 
    142 H142        2.9184  -21.6586  -47.1119 H         1 UNK         0.0800 
    143 H143        1.6968  -23.8791  -47.1563 H         1 UNK         0.0600 
    144 H144        1.4771  -21.8635  -45.1903 H         1 UNK         0.3000 
    145 H145       -0.2728  -23.7850  -42.7228 H         1 UNK         0.0600 
    146 H146        1.7042  -23.0599  -41.4254 H         1 UNK         0.0600 
    147 H147        2.1614  -24.3364  -42.5430 H         1 UNK         0.0600 
    148 H148        2.5747  -22.6645  -42.9054 H         1 UNK         0.0600 
    149 H149        0.6462  -21.0996  -42.6836 H         1 UNK         0.3000 
    150 H150       -2.3195  -19.5953  -44.0783 H         1 UNK         0.0600 
    151 H151       -2.6995  -19.9308  -41.6442 H         1 UNK         0.0600 
    152 H152       -2.0590  -18.3239  -41.9577 H         1 UNK         0.0600 
    153 H153       -1.0093  -19.5809  -41.3081 H         1 UNK         0.0600 
    154 H154        0.1124  -18.4057  -43.2404 H         1 UNK         0.3000 
    155 H155        1.8516  -18.6090  -46.3723 H         1 UNK         0.0600 
    156 H156        0.4001  -16.6069  -46.5061 H         1 UNK         0.0600 
    157 H157        0.6049  -16.2952  -44.7926 H         1 UNK         0.0600 
    158 H158        1.9817  -16.1616  -45.8824 H         1 UNK         0.0600 
    159 H159        2.5150  -17.5773  -43.7672 H         1 UNK         0.3000 
    160 H160        4.1134  -20.5308  -42.5484 H         1 UNK         0.0600 
    161 H161        5.2236  -17.8306  -43.4918 H         1 UNK         0.0600 
    162 H162        5.7833  -19.4087  -44.0329 H         1 UNK         0.0600 
    163 H163        5.9990  -18.9346  -42.3557 H         1 UNK         0.0600 
    164 H164        3.7979  -17.9014  -41.4655 H         1 UNK         0.3000 
    165 H165        0.6618  -18.4090  -39.8689 H         1 UNK         0.0600 
    166 H166        1.9821  -17.8439  -37.8515 H         1 UNK         0.0600 
    167 H167        2.3054  -19.5010  -38.3342 H         1 UNK         0.0600 
    168 H168        3.4852  -18.2432  -38.6840 H         1 UNK         0.0600 
    169 H169        2.4628  -16.2311  -39.7537 H         1 UNK         0.3000 
    170 H170        1.5325  -14.2016  -40.7443 H         1 UNK         0.0600 
    171 H171        3.8037  -15.0341  -41.5291 H         1 UNK         0.0600 
    172 H172        3.1957  -15.1138  -43.1798 H         1 UNK         0.0600 
    173 H173        3.3418  -13.5620  -42.3582 H         1 UNK         0.0600 
    174 H174        0.1399  -14.9561  -43.1077 H         1 UNK         0.3000 
    175 H175       -0.4938  -13.4195  -44.7875 H         1 UNK         0.0600 
    176 H176       -2.1475  -11.9458  -42.6454 H         1 UNK         0.0600 
    177 H177       -2.7612  -12.5036  -44.2012 H         1 UNK         0.0600 
    178 H178       -2.2399  -13.6687  -42.9946 H         1 UNK         0.0600 
    179 H179        0.2453  -10.7533  -43.9756 H         1 UNK         0.3000 
    180 H180       -0.8400   -9.0973  -46.7808 H         1 UNK         0.0600 
    181 H181        1.3509   -9.1377  -44.6217 H         1 UNK         0.0600 
    182 H182       -0.2943   -8.5391  -44.3894 H         1 UNK         0.0600 
    183 H183        0.7855   -7.7286  -45.5087 H         1 UNK         0.0600 
    184 H184        1.6661  -10.6433  -46.9929 H         1 UNK         0.3000 
    185 H185        2.1428   -9.6466  -50.2620 H         1 UNK         0.0600 
    186 H186        3.2617   -7.5785  -49.4279 H         1 UNK         0.0600 
    187 H187        4.0063   -8.4878  -48.1186 H         1 UNK         0.0600 
    188 H188        4.4440   -8.8234  -49.7947 H         1 UNK         0.0600 
    189 H189        3.8874  -10.9218  -48.3334 H         1 UNK         0.3000 
    190 H190       -0.8730  -21.3822  -46.6681 H         1 UNK         0.3000 
    191 H191       -2.5594  -22.1567  -48.7755 H         1 UNK         0.0600 
    192 H192       -4.2765  -20.8640  -47.5711 H         1 UNK         0.0600 
    193 H193       -2.7364  -20.0309  -47.4528 H         1 UNK         0.0600 
    194 H194       -3.3499  -20.9356  -46.0763 H         1 UNK         0.0600 
    195 H195       -2.4512  -23.3774  -45.3940 H         1 UNK         0.3000 
    196 H196       -4.6716  -25.1423  -45.6032 H         1 UNK         0.0600 
    197 H197       -3.7004  -26.1861  -43.5576 H         1 UNK         0.0600 
    198 H198       -3.7027  -24.4328  -43.4361 H         1 UNK         0.0600 
    199 H199       -2.2050  -25.2898  -43.7908 H         1 UNK         0.0600 
    200 H200       -1.1967  -25.6336  -46.3113 H         1 UNK         0.3000 
    201 H201       -1.4254  -28.4455  -46.8832 H         1 UNK         0.0600 
    202 H202        0.6893  -27.4299  -46.1128 H         1 UNK         0.0600 
    203 H203        0.7717  -26.4176  -47.5515 H         1 UNK         0.0600 
    204 H204        0.9210  -28.1657  -47.6920 H         1 UNK         0.0600 
    205 H205       -1.1473  -25.5291  -48.9830 H         1 UNK         0.3000 
    206 H206       -1.2057  -27.0652  -51.4332 H         1 UNK         0.0600 
    207 H207        0.1067  -24.9604  -51.1582 H         1 UNK         0.0600 
    208 H208       -1.0495  -24.8118  -52.4744 H         1 UNK         0.0600 
    209 H209       -1.3841  -24.0496  -50.9247 H         1 UNK         0.0600 
    210 H210       -3.6418  -25.6685  -49.4548 H         1 UNK         0.3000 
    211 H211       -5.8458  -25.5724  -49.4774 H         1 UNK         0.0600 
    212 H212       -6.0132  -26.4004  -52.4190 H         1 UNK         0.0600 
    213 H213       -7.3273  -26.2817  -51.2658 H         1 UNK         0.0600 
    214 H214       -6.0956  -27.5176  -51.0562 H         1 UNK         0.0600 
    215 H215       -6.5046  -23.5725  -49.2442 H         1 UNK         0.3000 
    216 H216       -5.2859  -21.3534  -50.2788 H         1 UNK         0.0600 
    217 H217       -7.1663  -20.0964  -49.1788 H         1 UNK         0.0600 
    218 H218       -6.5653  -21.3965  -48.1628 H         1 UNK         0.0600 
    219 H219       -8.0802  -21.5902  -49.0415 H         1 UNK         0.0600 
    220 H220       -8.1872  -22.9083  -51.5873 H         1 UNK         0.3000 
    221 H221       -8.8908  -20.8062  -53.4333 H         1 UNK         0.0600 
    222 H222       -9.6630  -23.7733  -53.3622 H         1 UNK         0.0600 
    223 H223      -10.5539  -22.4509  -52.6075 H         1 UNK         0.0600 
    224 H224      -10.4297  -22.5410  -54.3570 H         1 UNK         0.0600 
    225 H225       -6.7372  -23.6258  -53.5961 H         1 UNK         0.3000 
    226 H226       -6.3727  -23.4737  -56.5060 H         1 UNK         0.0600 
    227 H227       -6.3442  -25.6803  -55.3501 H         1 UNK         0.0600 
    228 H228       -4.7984  -25.3492  -56.1184 H         1 UNK         0.0600 
    229 H229       -4.9654  -25.1694  -54.3782 H         1 UNK         0.0600 
    230 H230       -4.6134  -22.6535  -53.5098 H         1 UNK         0.3000 
    231 H231       -2.2888  -21.5263  -54.7739 H         1 UNK         0.0600 
    232 H232       -2.2608  -22.3653  -52.4549 H         1 UNK         0.0600 
    233 H233       -3.4756  -21.1871  -51.9716 H         1 UNK         0.0600 
    234 H234       -1.8683  -20.6518  -52.4525 H         1 UNK         0.0600 
    235 H235       -5.4793  -20.3298  -54.2972 H         1 UNK         0.3000 
    236 H236       -6.5973  -18.4993  -54.7724 H         1 UNK         0.0600 
    237 H237       -5.8156  -16.9334  -56.5049 H         1 UNK         0.0600 
    238 H238       -4.1679  -17.5296  -56.3689 H         1 UNK         0.0600 
    239 H239       -5.4418  -18.5803  -56.9874 H         1 UNK         0.0600 
    240 H240       -5.6077  -18.6306  -52.3097 H         1 UNK         0.3000 
    241 H241       -4.2134  -16.2518  -51.4457 H         1 UNK         0.0600 
    242 H242       -5.0541  -14.3641  -50.3596 H         1 UNK         0.3800 
    243 H243       -6.7542  -13.9962  -50.3848 H         1 UNK         0.3800 
    244 H244       -4.7642  -17.0844  -49.1304 H         1 UNK         0.0800 
    245 H245       -5.7588  -18.3351  -49.8273 H         1 UNK         0.0800 
    246 H246       -2.3868  -17.8480  -48.2211 H         1 UNK         0.0800 
    247 H247       -2.2456  -16.7928  -49.6081 H         1 UNK         0.0800 
@<TRIPOS>BOND
     1    1    2 1    
     2    1  127 1    
     3    1  128 1    
     4    1  129 1    
     5    2    3 2    
     6    2    4 am   BACKBONE|DICT|INTERRES
     7    4    5 1    
     8    4  130 1    
     9    5    6 1    
    10    5   65 1    
    11    5  131 1    
    12    6    7 1    
    13    6  132 1    
    14    6  133 1    
    15    7    8 1    
    16    8    9 1    
    17    8  134 1    
    18    8  135 1    
    19    9   10 ar   
    20    9   14 ar   
    21   10   11 ar   
    22   10  136 1    
    23   11   12 ar   
    24   11  126 1    
    25   12   13 ar   
    26   12  137 1    
    27   13   14 ar   
    28   13   15 1    
    29   14  138 1    
    30   15   16 1    
    31   15  139 1    
    32   15  140 1    
    33   16   17 1    
    34   17   18 1    
    35   17  141 1    
    36   17  142 1    
    37   18   19 1    
    38   18   67 1    
    39   18  143 1    
    40   19   20 am   BACKBONE|DICT|INTERRES
    41   19  144 1    
    42   20   21 2    
    43   20   22 1    
    44   22   23 1    
    45   22   24 1    
    46   22  145 1    
    47   23  146 1    
    48   23  147 1    
    49   23  148 1    
    50   24   25 am   BACKBONE|DICT|INTERRES
    51   24  149 1    
    52   25   26 2    
    53   25   27 1    
    54   27   28 1    
    55   27   29 1    
    56   27  150 1    
    57   28  151 1    
    58   28  152 1    
    59   28  153 1    
    60   29   30 am   BACKBONE|DICT|INTERRES
    61   29  154 1    
    62   30   31 2    
    63   30   32 1    
    64   32   33 1    
    65   32   34 1    
    66   32  155 1    
    67   33  156 1    
    68   33  157 1    
    69   33  158 1    
    70   34   35 am   BACKBONE|DICT|INTERRES
    71   34  159 1    
    72   35   36 2    
    73   35   37 1    
    74   37   38 1    
    75   37   39 1    
    76   37  160 1    
    77   38  161 1    
    78   38  162 1    
    79   38  163 1    
    80   39   40 am   BACKBONE|DICT|INTERRES
    81   39  164 1    
    82   40   41 2    
    83   40   42 1    
    84   42   43 1    
    85   42   44 1    
    86   42  165 1    
    87   43  166 1    
    88   43  167 1    
    89   43  168 1    
    90   44   45 am   BACKBONE|DICT|INTERRES
    91   44  169 1    
    92   45   46 2    
    93   45   47 1    
    94   47   48 1    
    95   47   49 1    
    96   47  170 1    
    97   48  171 1    
    98   48  172 1    
    99   48  173 1    
   100   49   50 am   BACKBONE|DICT|INTERRES
   101   49  174 1    
   102   50   51 2    
   103   50   52 1    
   104   52   53 1    
   105   52   54 1    
   106   52  175 1    
   107   53  176 1    
   108   53  177 1    
   109   53  178 1    
   110   54   55 am   BACKBONE|DICT|INTERRES
   111   54  179 1    
   112   55   56 2    
   113   55   57 1    
   114   57   58 1    
   115   57   59 1    
   116   57  180 1    
   117   58  181 1    
   118   58  182 1    
   119   58  183 1    
   120   59   60 am   BACKBONE|DICT|INTERRES
   121   59  184 1    
   122   60   61 2    
   123   60   62 1    
   124   62   63 1    
   125   62   64 1    
   126   62  185 1    
   127   63  186 1    
   128   63  187 1    
   129   63  188 1    
   130   64   65 am   BACKBONE|DICT|INTERRES
   131   64  189 1    
   132   65   66 2    
   133   67   68 2    
   134   67   69 am   BACKBONE|DICT|INTERRES
   135   69   70 1    
   136   69  190 1    
   137   70   71 1    
   138   70   72 1    
   139   70  191 1    
   140   71  192 1    
   141   71  193 1    
   142   71  194 1    
   143   72   73 2    
   144   72   74 am   BACKBONE|DICT|INTERRES
   145   74   75 1    
   146   74  195 1    
   147   75   76 1    
   148   75   77 1    
   149   75  196 1    
   150   76  197 1    
   151   76  198 1    
   152   76  199 1    
   153   77   78 2    
   154   77   79 am   BACKBONE|DICT|INTERRES
   155   79   80 1    
   156   79  200 1    
   157   80   81 1    
   158   80   82 1    
   159   80  201 1    
   160   81  202 1    
   161   81  203 1    
   162   81  204 1    
   163   82   83 2    
   164   82   84 am   BACKBONE|DICT|INTERRES
   165   84   85 1    
   166   84  205 1    
   167   85   86 1    
   168   85   87 1    
   169   85  206 1    
   170   86  207 1    
   171   86  208 1    
   172   86  209 1    
   173   87   88 2    
   174   87   89 am   BACKBONE|DICT|INTERRES
   175   89   90 1    
   176   89  210 1    
   177   90   91 1    
   178   90   92 1    
   179   90  211 1    
   180   91  212 1    
   181   91  213 1    
   182   91  214 1    
   183   92   93 2    
   184   92   94 am   BACKBONE|DICT|INTERRES
   185   94   95 1    
   186   94  215 1    
   187   95   96 1    
   188   95   97 1    
   189   95  216 1    
   190   96  217 1    
   191   96  218 1    
   192   96  219 1    
   193   97   98 2    
   194   97   99 am   BACKBONE|DICT|INTERRES
   195   99  100 1    
   196   99  220 1    
   197  100  101 1    
   198  100  102 1    
   199  100  221 1    
   200  101  222 1    
   201  101  223 1    
   202  101  224 1    
   203  102  103 2    
   204  102  104 am   BACKBONE|DICT|INTERRES
   205  104  105 1    
   206  104  225 1    
   207  105  106 1    
   208  105  107 1    
   209  105  226 1    
   210  106  227 1    
   211  106  228 1    
   212  106  229 1    
   213  107  108 2    
   214  107  109 am   BACKBONE|DICT|INTERRES
   215  109  110 1    
   216  109  230 1    
   217  110  111 1    
   218  110  112 1    
   219  110  231 1    
   220  111  232 1    
   221  111  233 1    
   222  111  234 1    
   223  112  113 2    
   224  112  114 am   BACKBONE|DICT|INTERRES
   225  114  115 1    
   226  114  235 1    
   227  115  116 1    
   228  115  117 1    
   229  115  236 1    
   230  116  237 1    
   231  116  238 1    
   232  116  239 1    
   233  117  118 2    
   234  117  119 am   BACKBONE|DICT|INTERRES
   235  119  120 1    
   236  119  240 1    
   237  120  121 1    
   238  120  124 1    
   239  120  241 1    
   240  121  122 am   BACKBONE|DICT|INTERRES
   241  121  123 2    
   242  122  242 1    
   243  122  243 1    
   244  124  125 1    
   245  124  244 1    
   246  124  245 1    
   247  125  126 1    
   248  126  246 1    
   249  126  247 1    
@<TRIPOS>SUBSTRUCTURE
     1 UNK         1 GROUP             0       ****    0 ROOT    
