@<TRIPOS>MOLECULE
3R540
247   249    1
SMALL
USER_CHARGES


@<TRIPOS>ATOM
      1 CA         -0.6628  -12.0218  -45.0285 C.3       0 UNK        -0.1800 
      2 C           0.4479  -11.7311  -46.0267 C.2       0 UNK         0.5000 
      3 O           1.3912  -11.0107  -45.6992 O.2       0 UNK        -0.5000 
      4 N           0.3586  -12.3058  -47.2354 N.am      1 UNK        -0.5000 
      5 CA          1.3207  -12.1283  -48.3356 C.3       1 UNK         0.1400 
      6 C6          0.8009  -12.7186  -49.6720 C.3       23 UNK        -0.0398 
      7 S7          0.3937  -14.5043  -49.6371 S.3       23 UNK        -0.2404 
      8 C8          2.0129  -15.2473  -50.0175 C.3       23 UNK        -0.0205 
      9 C9          1.8911  -16.4993  -50.8689 C.ar      23 UNK        -0.0193 
     10 C10         2.1541  -16.4417  -52.2405 C.ar      23 UNK        -0.1150 
     11 C11         2.1293  -17.6027  -53.0182 C.ar      23 UNK        -0.0193 
     12 C12         1.8406  -18.8274  -52.4109 C.ar      23 UNK        -0.1150 
     13 C13         1.5331  -18.8926  -51.0492 C.ar      23 UNK        -0.0193 
     14 C14         1.5613  -17.7237  -50.2817 C.ar      23 UNK        -0.1150 
     15 C15         1.1547  -20.2248  -50.4217 C.3       23 UNK        -0.0205 
     16 S16         2.4009  -20.7972  -49.2235 S.3       23 UNK        -0.2404 
     17 C17         1.5857  -20.4035  -47.6379 C.3       23 UNK        -0.0398 
     18 CA          0.8631  -21.6334  -47.0376 C.3       11 UNK         0.1400 
     19 N           0.6767  -21.5139  -45.5908 N.am      11 UNK        -0.5000 
     20 C           0.2774  -22.5170  -44.7964 C.2       10 UNK         0.5000 
     21 O           0.0791  -23.6653  -45.1936 O.2       10 UNK        -0.5000 
     22 CA          0.0009  -22.1674  -43.3234 C.3       10 UNK         0.1400 
     23 CB          1.3059  -22.1293  -42.5150 C.3       10 UNK        -0.1800 
     24 N          -0.7165  -20.8995  -43.1753 N.am      10 UNK        -0.5000 
     25 C          -1.9536  -20.6758  -43.6423 C.2       9 UNK         0.5000 
     26 O          -2.6372  -21.5353  -44.1962 O.2       9 UNK        -0.5000 
     27 CA         -2.5078  -19.2468  -43.5132 C.3       9 UNK         0.1400 
     28 CB         -3.0687  -19.0085  -42.1037 C.3       9 UNK        -0.1800 
     29 N          -1.5164  -18.2201  -43.8373 N.am      9 UNK        -0.5000 
     30 C          -0.9443  -18.0617  -45.0401 C.2       8 UNK         0.5000 
     31 O          -1.2162  -18.7500  -46.0229 O.2       8 UNK        -0.5000 
     32 CA          0.1645  -16.9997  -45.1504 C.3       8 UNK         0.1400 
     33 CB         -0.4210  -15.5865  -45.2720 C.3       8 UNK        -0.1800 
     34 N           1.0921  -17.0513  -44.0219 N.am      8 UNK        -0.5000 
     35 C           1.8888  -18.0950  -43.7508 C.2       7 UNK         0.5000 
     36 O           1.9574  -19.1049  -44.4522 O.2       7 UNK        -0.5000 
     37 CA          2.7053  -18.0166  -42.4506 C.3       7 UNK         0.1400 
     38 CB          3.9731  -17.1724  -42.6433 C.3       7 UNK        -0.1800 
     39 N           1.9167  -17.4767  -41.3430 N.am      7 UNK        -0.5000 
     40 C           0.8917  -18.1197  -40.7657 C.2       6 UNK         0.5000 
     41 O           0.5199  -19.2464  -41.0911 O.2       6 UNK        -0.5000 
     42 CA          0.1294  -17.3573  -39.6679 C.3       6 UNK         0.1400 
     43 CB          0.8584  -17.4722  -38.3209 C.3       6 UNK        -0.1800 
     44 N          -0.0661  -15.9449  -39.9968 N.am      6 UNK        -0.5000 
     45 C          -0.8215  -15.5012  -41.0114 C.2       5 UNK         0.5000 
     46 O          -1.4454  -16.2361  -41.7742 O.2       5 UNK        -0.5000 
     47 CA         -0.8431  -13.9817  -41.2422 C.3       5 UNK         0.1400 
     48 CB         -1.8937  -13.3098  -40.3460 C.3       5 UNK        -0.1800 
     49 N           0.4618  -13.3545  -41.0224 N.am      5 UNK        -0.5000 
     50 C           1.5487  -13.5954  -41.7649 C.2       4 UNK         0.5000 
     51 O           1.5797  -14.3974  -42.7039 O.2       4 UNK        -0.5000 
     52 CA          2.8157  -12.8194  -41.3958 C.3       4 UNK         0.1400 
     53 CB          3.7864  -13.6871  -40.5772 C.3       4 UNK        -0.1800 
     54 N           3.4316  -12.3965  -42.6427 N.am      4 UNK        -0.5000 
     55 C           4.2527  -11.3557  -42.8110 C.2       3 UNK         0.5000 
     56 O           4.6783  -10.6691  -41.8807 O.2       3 UNK        -0.5000 
     57 CA          4.6173  -10.9868  -44.2642 C.3       3 UNK         0.1400 
     58 CB          6.0921  -10.5623  -44.4266 C.3       3 UNK        -0.1800 
     59 N           4.2190  -12.0057  -45.2449 N.am      3 UNK        -0.5000 
     60 C           4.7851  -13.1991  -45.4884 C.2       2 UNK         0.5000 
     61 O           5.7991  -13.6031  -44.9196 O.2       2 UNK        -0.5000 
     62 CA          4.0877  -14.1196  -46.5165 C.3       2 UNK         0.1400 
     63 CB          3.7589  -15.4864  -45.8958 C.3       2 UNK        -0.1800 
     64 N           2.8451  -13.5607  -47.0483 N.am      2 UNK        -0.5000 
     65 C           2.7454  -12.6327  -48.0089 C.2       1 UNK         0.5000 
     66 O           3.7127  -12.1652  -48.6097 O.2       1 UNK        -0.5000 
     67 C          -0.4673  -21.9352  -47.7617 C.2       11 UNK         0.5000 
     68 O          -0.5030  -22.8192  -48.6168 O.2       11 UNK        -0.5000 
     69 N          -1.5458  -21.2316  -47.3871 N.am      12 UNK        -0.5000 
     70 CA         -2.8959  -21.4526  -47.9089 C.3       12 UNK         0.1400 
     71 CB         -3.8458  -20.3643  -47.3890 C.3       12 UNK        -0.1800 
     72 C          -3.4367  -22.8561  -47.5829 C.2       12 UNK         0.5000 
     73 O          -4.0321  -23.4881  -48.4543 O.2       12 UNK        -0.5000 
     74 N          -3.1803  -23.3381  -46.3588 N.am      13 UNK        -0.5000 
     75 CA         -3.5005  -24.6949  -45.9160 C.3       13 UNK         0.1400 
     76 CB         -3.2602  -24.8212  -44.4045 C.3       13 UNK        -0.1800 
     77 C          -2.7173  -25.7695  -46.6919 C.2       13 UNK         0.5000 
     78 O          -3.3103  -26.7694  -47.0959 O.2       13 UNK        -0.5000 
     79 N          -1.4208  -25.5274  -46.9373 N.am      14 UNK        -0.5000 
     80 CA         -0.5577  -26.3805  -47.7614 C.3       14 UNK         0.1400 
     81 CB          0.9016  -25.9180  -47.6330 C.3       14 UNK        -0.1800 
     82 C          -0.9939  -26.4276  -49.2402 C.2       14 UNK         0.5000 
     83 O          -0.9036  -27.4829  -49.8680 O.2       14 UNK        -0.5000 
     84 N          -1.5057  -25.3000  -49.7520 N.am      15 UNK        -0.5000 
     85 CA         -2.1231  -25.1669  -51.0745 C.3       15 UNK         0.1400 
     86 CB         -2.1241  -23.6809  -51.4730 C.3       15 UNK        -0.1800 
     87 C          -3.5487  -25.7607  -51.1585 C.2       15 UNK         0.5000 
     88 O          -4.1178  -25.7893  -52.2500 O.2       15 UNK        -0.5000 
     89 N          -4.0963  -26.2196  -50.0223 N.am      16 UNK        -0.5000 
     90 CA         -5.4244  -26.8119  -49.8303 C.3       16 UNK         0.1400 
     91 CB         -5.5901  -28.1010  -50.6628 C.3       16 UNK        -0.1800 
     92 C          -6.5874  -25.8139  -50.0163 C.2       16 UNK         0.5000 
     93 O          -7.7032  -26.2341  -50.3282 O.2       16 UNK        -0.5000 
     94 N          -6.3144  -24.5218  -49.7767 N.am      17 UNK        -0.5000 
     95 CA         -7.2360  -23.3839  -49.8152 C.3       17 UNK         0.1400 
     96 CB         -8.1384  -23.4000  -48.5615 C.3       17 UNK        -0.1800 
     97 C          -8.0009  -23.2837  -51.1536 C.2       17 UNK         0.5000 
     98 O          -7.3607  -23.1405  -52.1976 O.2       17 UNK        -0.5000 
     99 N          -9.3401  -23.3539  -51.1008 N.am      18 UNK        -0.5000 
    100 CA       -10.2791  -23.3036  -52.2245 C.3       18 UNK         0.1400 
    101 CB       -10.1736  -24.5938  -53.0700 C.3       18 UNK        -0.1800 
    102 C        -10.1241  -21.9991  -53.0329 C.2       18 UNK         0.5000 
    103 O        -10.4081  -20.9254  -52.4993 O.2       18 UNK        -0.5000 
    104 N         -9.6647  -22.1066  -54.2858 N.am      19 UNK        -0.5000 
    105 CA        -9.3902  -20.9818  -55.1809 C.3       19 UNK         0.1400 
    106 CB        -9.2865  -21.5148  -56.6189 C.3       19 UNK        -0.1800 
    107 C         -8.1217  -20.1843  -54.8120 C.2       19 UNK         0.5000 
    108 O         -7.9544  -19.0751  -55.3209 O.2       19 UNK        -0.5000 
    109 N         -7.2560  -20.7533  -53.9567 N.am      20 UNK        -0.5000 
    110 CA        -5.9490  -20.2390  -53.5420 C.3       20 UNK         0.1400 
    111 CB        -6.0992  -18.9622  -52.6847 C.3       20 UNK        -0.1800 
    112 C         -5.0067  -20.0935  -54.7539 C.2       20 UNK         0.5000 
    113 O         -4.6038  -21.1151  -55.3129 O.2       20 UNK        -0.5000 
    114 N         -4.6709  -18.8511  -55.1365 N.am      21 UNK        -0.5000 
    115 CA        -3.8712  -18.4742  -56.3124 C.3       21 UNK         0.1400 
    116 CB        -4.6808  -18.7207  -57.6028 C.3       21 UNK        -0.1800 
    117 C         -2.4777  -19.1405  -56.3425 C.2       21 UNK         0.5000 
    118 O         -2.0212  -19.5850  -57.3972 O.2       21 UNK        -0.5000 
    119 N         -1.8539  -19.2213  -55.1602 N.am      22 UNK        -0.5000 
    120 CA        -0.5870  -19.9165  -54.8728 C.3       22 UNK         0.1400 
    121 C         -0.6697  -21.4748  -54.9082 C.2       22 UNK         0.5000 
    122 N         -1.8363  -22.0913  -55.0576 N.am      22 UNK        -0.7600 
    123 O          0.3467  -22.1475  -54.7601 O.2       22 UNK        -0.5000 
    124 C124        0.6274  -19.3830  -55.6897 C.3       23 UNK        -0.0398 
    125 S125        0.9096  -17.5851  -55.5121 S.3       23 UNK        -0.2404 
    126 C126        2.4302  -17.5316  -54.5080 C.3       23 UNK        -0.0205 
    127 H127       -0.2497  -12.5104  -44.1469 H         1 UNK         0.0600 
    128 H128       -1.4303  -12.6704  -45.4513 H         1 UNK         0.0600 
    129 H129       -1.1372  -11.0925  -44.7136 H         1 UNK         0.0600 
    130 H130       -0.4330  -12.8968  -47.4481 H         1 UNK         0.3000 
    131 H131        1.4178  -11.0506  -48.4839 H         1 UNK         0.0600 
    132 H132       -0.1103  -12.1904  -49.9556 H         1 UNK         0.0800 
    133 H133        1.5029  -12.5163  -50.4829 H         1 UNK         0.0800 
    134 H134        2.5185  -15.4977  -49.0842 H         1 UNK         0.0800 
    135 H135        2.6550  -14.5242  -50.5223 H         1 UNK         0.0800 
    136 H136        2.3961  -15.4936  -52.7003 H         1 UNK         0.1150 
    137 H137        1.8393  -19.7306  -53.0038 H         1 UNK         0.1150 
    138 H138        1.3424  -17.7659  -49.2246 H         1 UNK         0.1150 
    139 H139        0.1738  -20.1342  -49.9546 H         1 UNK         0.0800 
    140 H140        1.0463  -20.9922  -51.1900 H         1 UNK         0.0800 
    141 H141        0.9130  -19.5507  -47.7398 H         1 UNK         0.0800 
    142 H142        2.3757  -20.0753  -46.9612 H         1 UNK         0.0800 
    143 H143        1.5095  -22.5017  -47.1847 H         1 UNK         0.0600 
    144 H144        0.8623  -20.6050  -45.1777 H         1 UNK         0.3000 
    145 H145       -0.6298  -22.9566  -42.9091 H         1 UNK         0.0600 
    146 H146        1.1074  -21.9705  -41.4550 H         1 UNK         0.0600 
    147 H147        1.8495  -23.0705  -42.6063 H         1 UNK         0.0600 
    148 H148        1.9684  -21.3327  -42.8538 H         1 UNK         0.0600 
    149 H149       -0.2355  -20.1590  -42.6739 H         1 UNK         0.3000 
    150 H150       -3.3304  -19.1461  -44.2237 H         1 UNK         0.0600 
    151 H151       -3.8138  -19.7623  -41.8465 H         1 UNK         0.0600 
    152 H152       -3.5543  -18.0351  -42.0329 H         1 UNK         0.0600 
    153 H153       -2.2854  -19.0479  -41.3464 H         1 UNK         0.0600 
    154 H154       -1.2735  -17.5771  -43.0879 H         1 UNK         0.3000 
    155 H155        0.7339  -17.2072  -46.0591 H         1 UNK         0.0600 
    156 H156       -1.0028  -15.3127  -44.3916 H         1 UNK         0.0600 
    157 H157       -1.0767  -15.5083  -46.1400 H         1 UNK         0.0600 
    158 H158        0.3703  -14.8475  -45.3912 H         1 UNK         0.0600 
    159 H159        1.1168  -16.2417  -43.4106 H         1 UNK         0.3000 
    160 H160        3.0117  -19.0315  -42.1883 H         1 UNK         0.0600 
    161 H161        3.7372  -16.1369  -42.8870 H         1 UNK         0.0600 
    162 H162        4.5854  -17.5691  -43.4541 H         1 UNK         0.0600 
    163 H163        4.5875  -17.1728  -41.7429 H         1 UNK         0.0600 
    164 H164        2.1301  -16.5372  -41.0450 H         1 UNK         0.3000 
    165 H165       -0.8544  -17.8197  -39.5640 H         1 UNK         0.0600 
    166 H166        0.2847  -17.0032  -37.5212 H         1 UNK         0.0600 
    167 H167        1.0041  -18.5173  -38.0446 H         1 UNK         0.0600 
    168 H168        1.8412  -17.0002  -38.3509 H         1 UNK         0.0600 
    169 H169        0.4149  -15.2691  -39.4221 H         1 UNK         0.3000 
    170 H170       -1.1283  -13.8130  -42.2824 H         1 UNK         0.0600 
    171 H171       -2.8793  -13.7503  -40.5031 H         1 UNK         0.0600 
    172 H172       -1.6510  -13.4167  -39.2881 H         1 UNK         0.0600 
    173 H173       -1.9766  -12.2453  -40.5662 H         1 UNK         0.0600 
    174 H174        0.5172  -12.6826  -40.2703 H         1 UNK         0.3000 
    175 H175        2.5367  -11.9375  -40.8150 H         1 UNK         0.0600 
    176 H176        4.1279  -14.5537  -41.1425 H         1 UNK         0.0600 
    177 H177        4.6674  -13.1181  -40.2799 H         1 UNK         0.0600 
    178 H178        3.3130  -14.0519  -39.6649 H         1 UNK         0.0600 
    179 H179        3.1072  -12.9009  -43.4570 H         1 UNK         0.3000 
    180 H180        4.0078  -10.1135  -44.5009 H         1 UNK         0.0600 
    181 H181        6.7805  -11.3380  -44.0913 H         1 UNK         0.0600 
    182 H182        6.3052   -9.6684  -43.8394 H         1 UNK         0.0600 
    183 H183        6.3248  -10.3293  -45.4657 H         1 UNK         0.0600 
    184 H184        3.3599  -11.7876  -45.7376 H         1 UNK         0.3000 
    185 H185        4.7864  -14.2755  -47.3409 H         1 UNK         0.0600 
    186 H186        4.6583  -15.9817  -45.5284 H         1 UNK         0.0600 
    187 H187        3.0732  -15.3799  -45.0559 H         1 UNK         0.0600 
    188 H188        3.2973  -16.1547  -46.6231 H         1 UNK         0.0600 
    189 H189        1.9903  -13.8754  -46.6146 H         1 UNK         0.3000 
    190 H190       -1.4359  -20.4773  -46.7134 H         1 UNK         0.3000 
    191 H191       -2.8462  -21.3625  -48.9958 H         1 UNK         0.0600 
    192 H192       -3.9329  -20.3897  -46.3031 H         1 UNK         0.0600 
    193 H193       -4.8474  -20.4916  -47.8018 H         1 UNK         0.0600 
    194 H194       -3.4998  -19.3705  -47.6736 H         1 UNK         0.0600 
    195 H195       -2.7445  -22.7260  -45.6738 H         1 UNK         0.3000 
    196 H196       -4.5635  -24.8612  -46.1032 H         1 UNK         0.0600 
    197 H197       -3.5183  -25.8199  -44.0502 H         1 UNK         0.0600 
    198 H198       -3.8716  -24.1103  -43.8484 H         1 UNK         0.0600 
    199 H199       -2.2177  -24.6394  -44.1439 H         1 UNK         0.0600 
    200 H200       -0.9906  -24.7032  -46.5288 H         1 UNK         0.3000 
    201 H201       -0.6242  -27.3965  -47.3670 H         1 UNK         0.0600 
    202 H202        1.2319  -25.9393  -46.5944 H         1 UNK         0.0600 
    203 H203        1.0393  -24.9036  -48.0064 H         1 UNK         0.0600 
    204 H204        1.5679  -26.5689  -48.2003 H         1 UNK         0.0600 
    205 H205       -1.4620  -24.4555  -49.1893 H         1 UNK         0.3000 
    206 H206       -1.5074  -25.7079  -51.7958 H         1 UNK         0.0600 
    207 H207       -1.1150  -23.2681  -51.4641 H         1 UNK         0.0600 
    208 H208       -2.5207  -23.5436  -52.4795 H         1 UNK         0.0600 
    209 H209       -2.7358  -23.0838  -50.7975 H         1 UNK         0.0600 
    210 H210       -3.5481  -26.1347  -49.1754 H         1 UNK         0.3000 
    211 H211       -5.4625  -27.1048  -48.7805 H         1 UNK         0.0600 
    212 H212       -5.6586  -27.8901  -51.7302 H         1 UNK         0.0600 
    213 H213       -6.4975  -28.6352  -50.3791 H         1 UNK         0.0600 
    214 H214       -4.7531  -28.7816  -50.5066 H         1 UNK         0.0600 
    215 H215       -5.3656  -24.2857  -49.4946 H         1 UNK         0.3000 
    216 H216       -6.6139  -22.4895  -49.7586 H         1 UNK         0.0600 
    217 H217       -8.7789  -22.5180  -48.5217 H         1 UNK         0.0600 
    218 H218       -7.5354  -23.3945  -47.6531 H         1 UNK         0.0600 
    219 H219       -8.7763  -24.2839  -48.5253 H         1 UNK         0.0600 
    220 H220       -9.7643  -23.4503  -50.1894 H         1 UNK         0.3000 
    221 H221      -11.2806  -23.2761  -51.7927 H         1 UNK         0.0600 
    222 H222       -9.1846  -24.7231  -53.5107 H         1 UNK         0.0600 
    223 H223      -10.3723  -25.4732  -52.4571 H         1 UNK         0.0600 
    224 H224      -10.9053  -24.5968  -53.8789 H         1 UNK         0.0600 
    225 H225       -9.4362  -23.0264  -54.6341 H         1 UNK         0.3000 
    226 H226      -10.2343  -20.2906  -55.1337 H         1 UNK         0.0600 
    227 H227      -10.2030  -22.0229  -56.9194 H         1 UNK         0.0600 
    228 H228       -9.1208  -20.7019  -57.3271 H         1 UNK         0.0600 
    229 H229       -8.4596  -22.2178  -56.7280 H         1 UNK         0.0600 
    230 H230       -7.4797  -21.6740  -53.5919 H         1 UNK         0.3000 
    231 H231       -5.5071  -21.0073  -52.9055 H         1 UNK         0.0600 
    232 H232       -6.7113  -19.1597  -51.8045 H         1 UNK         0.0600 
    233 H233       -6.5673  -18.1429  -53.2305 H         1 UNK         0.0600 
    234 H234       -5.1294  -18.6137  -52.3274 H         1 UNK         0.0600 
    235 H235       -5.0606  -18.0813  -54.6108 H         1 UNK         0.3000 
    236 H236       -3.6925  -17.4008  -56.2352 H         1 UNK         0.0600 
    237 H237       -4.1558  -18.3326  -58.4764 H         1 UNK         0.0600 
    238 H238       -4.8582  -19.7835  -57.7712 H         1 UNK         0.0600 
    239 H239       -5.6501  -18.2237  -57.5601 H         1 UNK         0.0600 
    240 H240       -2.3241  -18.8322  -54.3563 H         1 UNK         0.3000 
    241 H241       -0.3938  -19.6904  -53.8252 H         1 UNK         0.0600 
    242 H242       -1.8551  -23.0979  -55.0704 H         1 UNK         0.3800 
    243 H243       -2.7021  -21.5792  -55.1917 H         1 UNK         0.3800 
    244 H244        1.5387  -19.9093  -55.4040 H         1 UNK         0.0800 
    245 H245        0.4964  -19.5995  -56.7502 H         1 UNK         0.0800 
    246 H246        2.9567  -16.6034  -54.7357 H         1 UNK         0.0800 
    247 H247        3.1104  -18.3345  -54.7953 H         1 UNK         0.0800 
@<TRIPOS>BOND
     1    1    2 1    
     2    1  127 1    
     3    1  128 1    
     4    1  129 1    
     5    2    3 2    
     6    2    4 am   BACKBONE|DICT|INTERRES
     7    4    5 1    
     8    4  130 1    
     9    5    6 1    
    10    5   65 1    
    11    5  131 1    
    12    6    7 1    
    13    6  132 1    
    14    6  133 1    
    15    7    8 1    
    16    8    9 1    
    17    8  134 1    
    18    8  135 1    
    19    9   10 ar   
    20    9   14 ar   
    21   10   11 ar   
    22   10  136 1    
    23   11   12 ar   
    24   11  126 1    
    25   12   13 ar   
    26   12  137 1    
    27   13   14 ar   
    28   13   15 1    
    29   14  138 1    
    30   15   16 1    
    31   15  139 1    
    32   15  140 1    
    33   16   17 1    
    34   17   18 1    
    35   17  141 1    
    36   17  142 1    
    37   18   19 1    
    38   18   67 1    
    39   18  143 1    
    40   19   20 am   BACKBONE|DICT|INTERRES
    41   19  144 1    
    42   20   21 2    
    43   20   22 1    
    44   22   23 1    
    45   22   24 1    
    46   22  145 1    
    47   23  146 1    
    48   23  147 1    
    49   23  148 1    
    50   24   25 am   BACKBONE|DICT|INTERRES
    51   24  149 1    
    52   25   26 2    
    53   25   27 1    
    54   27   28 1    
    55   27   29 1    
    56   27  150 1    
    57   28  151 1    
    58   28  152 1    
    59   28  153 1    
    60   29   30 am   BACKBONE|DICT|INTERRES
    61   29  154 1    
    62   30   31 2    
    63   30   32 1    
    64   32   33 1    
    65   32   34 1    
    66   32  155 1    
    67   33  156 1    
    68   33  157 1    
    69   33  158 1    
    70   34   35 am   BACKBONE|DICT|INTERRES
    71   34  159 1    
    72   35   36 2    
    73   35   37 1    
    74   37   38 1    
    75   37   39 1    
    76   37  160 1    
    77   38  161 1    
    78   38  162 1    
    79   38  163 1    
    80   39   40 am   BACKBONE|DICT|INTERRES
    81   39  164 1    
    82   40   41 2    
    83   40   42 1    
    84   42   43 1    
    85   42   44 1    
    86   42  165 1    
    87   43  166 1    
    88   43  167 1    
    89   43  168 1    
    90   44   45 am   BACKBONE|DICT|INTERRES
    91   44  169 1    
    92   45   46 2    
    93   45   47 1    
    94   47   48 1    
    95   47   49 1    
    96   47  170 1    
    97   48  171 1    
    98   48  172 1    
    99   48  173 1    
   100   49   50 am   BACKBONE|DICT|INTERRES
   101   49  174 1    
   102   50   51 2    
   103   50   52 1    
   104   52   53 1    
   105   52   54 1    
   106   52  175 1    
   107   53  176 1    
   108   53  177 1    
   109   53  178 1    
   110   54   55 am   BACKBONE|DICT|INTERRES
   111   54  179 1    
   112   55   56 2    
   113   55   57 1    
   114   57   58 1    
   115   57   59 1    
   116   57  180 1    
   117   58  181 1    
   118   58  182 1    
   119   58  183 1    
   120   59   60 am   BACKBONE|DICT|INTERRES
   121   59  184 1    
   122   60   61 2    
   123   60   62 1    
   124   62   63 1    
   125   62   64 1    
   126   62  185 1    
   127   63  186 1    
   128   63  187 1    
   129   63  188 1    
   130   64   65 am   BACKBONE|DICT|INTERRES
   131   64  189 1    
   132   65   66 2    
   133   67   68 2    
   134   67   69 am   BACKBONE|DICT|INTERRES
   135   69   70 1    
   136   69  190 1    
   137   70   71 1    
   138   70   72 1    
   139   70  191 1    
   140   71  192 1    
   141   71  193 1    
   142   71  194 1    
   143   72   73 2    
   144   72   74 am   BACKBONE|DICT|INTERRES
   145   74   75 1    
   146   74  195 1    
   147   75   76 1    
   148   75   77 1    
   149   75  196 1    
   150   76  197 1    
   151   76  198 1    
   152   76  199 1    
   153   77   78 2    
   154   77   79 am   BACKBONE|DICT|INTERRES
   155   79   80 1    
   156   79  200 1    
   157   80   81 1    
   158   80   82 1    
   159   80  201 1    
   160   81  202 1    
   161   81  203 1    
   162   81  204 1    
   163   82   83 2    
   164   82   84 am   BACKBONE|DICT|INTERRES
   165   84   85 1    
   166   84  205 1    
   167   85   86 1    
   168   85   87 1    
   169   85  206 1    
   170   86  207 1    
   171   86  208 1    
   172   86  209 1    
   173   87   88 2    
   174   87   89 am   BACKBONE|DICT|INTERRES
   175   89   90 1    
   176   89  210 1    
   177   90   91 1    
   178   90   92 1    
   179   90  211 1    
   180   91  212 1    
   181   91  213 1    
   182   91  214 1    
   183   92   93 2    
   184   92   94 am   BACKBONE|DICT|INTERRES
   185   94   95 1    
   186   94  215 1    
   187   95   96 1    
   188   95   97 1    
   189   95  216 1    
   190   96  217 1    
   191   96  218 1    
   192   96  219 1    
   193   97   98 2    
   194   97   99 am   BACKBONE|DICT|INTERRES
   195   99  100 1    
   196   99  220 1    
   197  100  101 1    
   198  100  102 1    
   199  100  221 1    
   200  101  222 1    
   201  101  223 1    
   202  101  224 1    
   203  102  103 2    
   204  102  104 am   BACKBONE|DICT|INTERRES
   205  104  105 1    
   206  104  225 1    
   207  105  106 1    
   208  105  107 1    
   209  105  226 1    
   210  106  227 1    
   211  106  228 1    
   212  106  229 1    
   213  107  108 2    
   214  107  109 am   BACKBONE|DICT|INTERRES
   215  109  110 1    
   216  109  230 1    
   217  110  111 1    
   218  110  112 1    
   219  110  231 1    
   220  111  232 1    
   221  111  233 1    
   222  111  234 1    
   223  112  113 2    
   224  112  114 am   BACKBONE|DICT|INTERRES
   225  114  115 1    
   226  114  235 1    
   227  115  116 1    
   228  115  117 1    
   229  115  236 1    
   230  116  237 1    
   231  116  238 1    
   232  116  239 1    
   233  117  118 2    
   234  117  119 am   BACKBONE|DICT|INTERRES
   235  119  120 1    
   236  119  240 1    
   237  120  121 1    
   238  120  124 1    
   239  120  241 1    
   240  121  122 am   BACKBONE|DICT|INTERRES
   241  121  123 2    
   242  122  242 1    
   243  122  243 1    
   244  124  125 1    
   245  124  244 1    
   246  124  245 1    
   247  125  126 1    
   248  126  246 1    
   249  126  247 1    
@<TRIPOS>SUBSTRUCTURE
     1 UNK         1 GROUP             0       ****    0 ROOT    
