@<TRIPOS>MOLECULE
3R540
247   249    1
SMALL
USER_CHARGES


@<TRIPOS>ATOM
      1 CA          1.4914  -11.3676  -50.8168 C.3       0 UNK        -0.1800 
      2 C           2.2776  -11.0026  -49.5659 C.2       0 UNK         0.5000 
      3 O           2.4978   -9.8211  -49.2972 O.2       0 UNK        -0.5000 
      4 N           2.6906  -12.0103  -48.7891 N.am      1 UNK        -0.5000 
      5 CA          3.4465  -11.8952  -47.5364 C.3       1 UNK         0.1400 
      6 C6          4.2810  -13.1760  -47.2468 C.3       23 UNK        -0.0398 
      7 S7          3.3280  -14.7366  -47.3381 S.3       23 UNK        -0.2404 
      8 C8          3.8882  -15.3724  -48.9468 C.3       23 UNK        -0.0205 
      9 C9          2.9771  -16.4696  -49.4720 C.ar      23 UNK        -0.0193 
     10 C10         1.7009  -16.1483  -49.9442 C.ar      23 UNK        -0.1150 
     11 C11         0.8708  -17.1358  -50.4800 C.ar      23 UNK        -0.0193 
     12 C12         1.3438  -18.4487  -50.5718 C.ar      23 UNK        -0.1150 
     13 C13         2.6065  -18.7895  -50.0799 C.ar      23 UNK        -0.0193 
     14 C14         3.4182  -17.7952  -49.5259 C.ar      23 UNK        -0.1150 
     15 C15         3.0992  -20.2271  -50.1675 C.3       23 UNK        -0.0205 
     16 S16         2.6181  -21.2084  -48.7106 S.3       23 UNK        -0.2404 
     17 C17         0.8183  -21.3561  -48.9608 C.3       23 UNK        -0.0398 
     18 CA          0.1790  -22.4487  -48.0734 C.3       11 UNK         0.1400 
     19 N           0.2122  -22.1119  -46.6446 N.am      11 UNK        -0.5000 
     20 C          -0.1647  -22.9405  -45.6597 C.2       10 UNK         0.5000 
     21 O          -0.5308  -24.1002  -45.8464 O.2       10 UNK        -0.5000 
     22 CA         -0.1888  -22.3729  -44.2295 C.3       10 UNK         0.1400 
     23 CB          1.2170  -22.3757  -43.6112 C.3       10 UNK        -0.1800 
     24 N          -0.7691  -21.0311  -44.1621 N.am      10 UNK        -0.5000 
     25 C          -2.0432  -20.7424  -44.4661 C.2       9 UNK         0.5000 
     26 O          -2.8737  -21.5881  -44.7927 O.2       9 UNK        -0.5000 
     27 CA         -2.4553  -19.2594  -44.4528 C.3       9 UNK         0.1400 
     28 CB         -2.7522  -18.7857  -43.0232 C.3       9 UNK        -0.1800 
     29 N          -1.4547  -18.3883  -45.0670 N.am      9 UNK        -0.5000 
     30 C          -1.0503  -18.4769  -46.3426 C.2       8 UNK         0.5000 
     31 O          -1.5108  -19.2825  -47.1514 O.2       8 UNK        -0.5000 
     32 CA          0.1078  -17.5531  -46.7585 C.3       8 UNK         0.1400 
     33 CB         -0.3991  -16.1298  -47.0406 C.3       8 UNK        -0.1800 
     34 N           1.1649  -17.5112  -45.7464 N.am      8 UNK        -0.5000 
     35 C           1.8997  -18.5707  -45.3784 C.2       7 UNK         0.5000 
     36 O           1.7817  -19.6908  -45.8724 O.2       7 UNK        -0.5000 
     37 CA          2.8829  -18.3582  -44.2149 C.3       7 UNK         0.1400 
     38 CB          4.1377  -17.6060  -44.6831 C.3       7 UNK        -0.1800 
     39 N           2.2607  -17.6446  -43.0987 N.am      7 UNK        -0.5000 
     40 C           1.2894  -18.1574  -42.3264 C.2       6 UNK         0.5000 
     41 O           0.8664  -19.3064  -42.4430 O.2       6 UNK        -0.5000 
     42 CA          0.6484  -17.2303  -41.2725 C.3       6 UNK         0.1400 
     43 CB          1.3908  -17.3462  -39.9333 C.3       6 UNK        -0.1800 
     44 N           0.6119  -15.8265  -41.6798 N.am      6 UNK        -0.5000 
     45 C           0.0118  -15.3570  -42.7816 C.2       5 UNK         0.5000 
     46 O          -0.7013  -16.0463  -43.5110 O.2       5 UNK        -0.5000 
     47 CA          0.2925  -13.8913  -43.1686 C.3       5 UNK         0.1400 
     48 CB         -0.9278  -13.0114  -42.8603 C.3       5 UNK        -0.1800 
     49 N           1.4824  -13.2860  -42.5555 N.am      5 UNK        -0.5000 
     50 C           2.7433  -13.7392  -42.6437 C.2       4 UNK         0.5000 
     51 O           3.0483  -14.8296  -43.1297 O.2       4 UNK        -0.5000 
     52 CA          3.8329  -12.7891  -42.1219 C.3       4 UNK         0.1400 
     53 CB          5.2601  -13.2642  -42.4535 C.3       4 UNK        -0.1800 
     54 N           3.6146  -11.4643  -42.6961 N.am      4 UNK        -0.5000 
     55 C           3.7890  -10.2975  -42.0632 C.2       3 UNK         0.5000 
     56 O           4.1628  -10.2110  -40.8928 O.2       3 UNK        -0.5000 
     57 CA          3.5127   -9.0030  -42.8596 C.3       3 UNK         0.1400 
     58 CB          4.8339   -8.3075  -43.2239 C.3       3 UNK        -0.1800 
     59 N           2.7450   -9.2159  -44.0885 N.am      3 UNK        -0.5000 
     60 C           1.4395   -9.5129  -44.1417 C.2       2 UNK         0.5000 
     61 O           0.7150   -9.5785  -43.1484 O.2       2 UNK        -0.5000 
     62 CA          0.8520   -9.8246  -45.5348 C.3       2 UNK         0.1400 
     63 CB          0.1842   -8.5758  -46.1291 C.3       2 UNK        -0.1800 
     64 N           1.8202  -10.3535  -46.5044 N.am      2 UNK        -0.5000 
     65 C           2.5398  -11.4742  -46.3564 C.2       1 UNK         0.5000 
     66 O           2.5061  -12.1509  -45.3318 O.2       1 UNK        -0.5000 
     67 C          -1.2533  -22.7584  -48.5549 C.2       11 UNK         0.5000 
     68 O          -1.4608  -23.7687  -49.2284 O.2       11 UNK        -0.5000 
     69 N          -2.2182  -21.9093  -48.1737 N.am      12 UNK        -0.5000 
     70 CA         -3.6381  -22.0926  -48.4707 C.3       12 UNK         0.1400 
     71 CB         -4.4200  -20.8380  -48.0566 C.3       12 UNK        -0.1800 
     72 C          -4.2238  -23.3553  -47.8123 C.2       12 UNK         0.5000 
     73 O          -4.9501  -24.0953  -48.4751 O.2       12 UNK        -0.5000 
     74 N          -3.8710  -23.6025  -46.5425 N.am      13 UNK        -0.5000 
     75 CA         -4.2694  -24.7863  -45.7792 C.3       13 UNK         0.1400 
     76 CB         -3.8695  -24.6200  -44.3059 C.3       13 UNK        -0.1800 
     77 C          -3.6941  -26.0922  -46.3532 C.2       13 UNK         0.5000 
     78 O          -4.4235  -27.0794  -46.4446 O.2       13 UNK        -0.5000 
     79 N          -2.4219  -26.0703  -46.7768 N.am      14 UNK        -0.5000 
     80 CA         -1.7490  -27.1867  -47.4491 C.3       14 UNK         0.1400 
     81 CB         -0.2578  -26.8608  -47.6203 C.3       14 UNK        -0.1800 
     82 C          -2.3872  -27.5421  -48.8061 C.2       14 UNK         0.5000 
     83 O          -2.4356  -28.7176  -49.1692 O.2       14 UNK        -0.5000 
     84 N          -2.9052  -26.5241  -49.5042 N.am      15 UNK        -0.5000 
     85 CA         -3.6810  -26.6512  -50.7372 C.3       15 UNK         0.1400 
     86 CB         -3.4997  -25.3642  -51.5545 C.3       15 UNK        -0.1800 
     87 C          -5.1792  -26.9346  -50.4923 C.2       15 UNK         0.5000 
     88 O          -5.9400  -26.9869  -51.4597 O.2       15 UNK        -0.5000 
     89 N          -5.5951  -27.0662  -49.2216 N.am      16 UNK        -0.5000 
     90 CA         -6.9651  -27.2951  -48.7414 C.3       16 UNK         0.1400 
     91 CB         -7.4275  -28.7181  -49.1162 C.3       16 UNK        -0.1800 
     92 C          -7.9703  -26.2091  -49.1874 C.2       16 UNK         0.5000 
     93 O          -9.1578  -26.4976  -49.3437 O.2       16 UNK        -0.5000 
     94 N          -7.4621  -24.9895  -49.4234 N.am      17 UNK        -0.5000 
     95 CA         -8.1311  -23.8228  -50.0099 C.3       17 UNK         0.1400 
     96 CB         -9.2329  -23.2963  -49.0680 C.3       17 UNK        -0.1800 
     97 C          -8.6429  -24.0363  -51.4553 C.2       17 UNK         0.5000 
     98 O          -9.4064  -23.2068  -51.9523 O.2       17 UNK        -0.5000 
     99 N          -8.2165  -25.1232  -52.1145 N.am      18 UNK        -0.5000 
    100 CA        -8.6247  -25.4966  -53.4697 C.3       18 UNK         0.1400 
    101 CB        -8.7446  -27.0276  -53.5400 C.3       18 UNK        -0.1800 
    102 C         -7.6456  -24.9839  -54.5416 C.2       18 UNK         0.5000 
    103 O         -7.9850  -25.0056  -55.7259 O.2       18 UNK        -0.5000 
    104 N         -6.4566  -24.5392  -54.1207 N.am      19 UNK        -0.5000 
    105 CA        -5.3991  -24.0055  -54.9715 C.3       19 UNK         0.1400 
    106 CB        -4.5822  -25.1605  -55.5941 C.3       19 UNK        -0.1800 
    107 C         -4.5696  -22.9865  -54.1676 C.2       19 UNK         0.5000 
    108 O         -5.1486  -22.2318  -53.3832 O.2       19 UNK        -0.5000 
    109 N         -3.2457  -22.9873  -54.3834 N.am      20 UNK        -0.5000 
    110 CA        -2.2372  -22.0215  -53.9275 C.3       20 UNK         0.1400 
    111 CB        -2.2689  -21.8059  -52.3971 C.3       20 UNK        -0.1800 
    112 C         -2.3166  -20.6846  -54.6913 C.2       20 UNK         0.5000 
    113 O         -3.3101  -20.3876  -55.3594 O.2       20 UNK        -0.5000 
    114 N         -1.2451  -19.8908  -54.5774 N.am      21 UNK        -0.5000 
    115 CA        -1.1032  -18.5768  -55.2137 C.3       21 UNK         0.1400 
    116 CB         0.3797  -18.1731  -55.1643 C.3       21 UNK        -0.1800 
    117 C         -1.9772  -17.4769  -54.5752 C.2       21 UNK         0.5000 
    118 O         -2.0932  -16.3906  -55.1435 O.2       21 UNK        -0.5000 
    119 N         -2.5410  -17.7615  -53.3951 N.am      22 UNK        -0.5000 
    120 CA        -3.2907  -16.8166  -52.5544 C.3       22 UNK         0.1400 
    121 C         -4.7102  -16.4528  -53.0822 C.2       22 UNK         0.5000 
    122 N         -5.2487  -17.1451  -54.0790 N.am      22 UNK        -0.7600 
    123 O         -5.3320  -15.5213  -52.5790 O.2       22 UNK        -0.5000 
    124 C124       -3.3651  -17.3018  -51.0808 C.3       23 UNK        -0.0398 
    125 S125       -1.8040  -17.8990  -50.3316 S.3       23 UNK        -0.2404 
    126 C126       -0.5199  -16.7750  -50.9842 C.3       23 UNK        -0.0205 
    127 H127        0.4971  -10.9229  -50.7777 H         1 UNK         0.0600 
    128 H128        2.0008  -10.9897  -51.7032 H         1 UNK         0.0600 
    129 H129        1.3777  -12.4468  -50.9240 H         1 UNK         0.0600 
    130 H130        2.4366  -12.9559  -49.0344 H         1 UNK         0.3000 
    131 H131        4.1648  -11.0812  -47.6550 H         1 UNK         0.0600 
    132 H132        5.1100  -13.2278  -47.9535 H         1 UNK         0.0800 
    133 H133        4.7545  -13.1186  -46.2649 H         1 UNK         0.0800 
    134 H134        3.9174  -14.5630  -49.6776 H         1 UNK         0.0800 
    135 H135        4.9130  -15.7337  -48.8483 H         1 UNK         0.0800 
    136 H136        1.3561  -15.1254  -49.8941 H         1 UNK         0.1150 
    137 H137        0.7166  -19.2115  -51.0101 H         1 UNK         0.1150 
    138 H138        4.4005  -18.0515  -49.1546 H         1 UNK         0.1150 
    139 H139        2.7223  -20.7029  -51.0741 H         1 UNK         0.0800 
    140 H140        4.1869  -20.2389  -50.2518 H         1 UNK         0.0800 
    141 H141        0.6474  -21.5756  -50.0166 H         1 UNK         0.0800 
    142 H142        0.3550  -20.3880  -48.7653 H         1 UNK         0.0800 
    143 H143        0.7574  -23.3664  -48.2009 H         1 UNK         0.0600 
    144 H144        0.5526  -21.1852  -46.4043 H         1 UNK         0.3000 
    145 H145       -0.8168  -23.0316  -43.6265 H         1 UNK         0.0600 
    146 H146        1.1872  -22.0700  -42.5654 H         1 UNK         0.0600 
    147 H147        1.6558  -23.3736  -43.6451 H         1 UNK         0.0600 
    148 H148        1.8933  -21.7022  -44.1372 H         1 UNK         0.0600 
    149 H149       -0.1526  -20.2859  -43.8543 H         1 UNK         0.3000 
    150 H150       -3.3723  -19.1645  -45.0378 H         1 UNK         0.0600 
    151 H151       -3.5557  -19.3739  -42.5784 H         1 UNK         0.0600 
    152 H152       -3.0647  -17.7414  -43.0081 H         1 UNK         0.0600 
    153 H153       -1.8799  -18.8850  -42.3784 H         1 UNK         0.0600 
    154 H154       -1.0504  -17.6655  -44.4776 H         1 UNK         0.3000 
    155 H155        0.5414  -17.9531  -47.6770 H         1 UNK         0.0600 
    156 H156        0.4086  -15.4810  -47.3764 H         1 UNK         0.0600 
    157 H157       -0.8483  -15.6740  -46.1584 H         1 UNK         0.0600 
    158 H158       -1.1554  -16.1374  -47.8261 H         1 UNK         0.0600 
    159 H159        1.3069  -16.6336  -45.2693 H         1 UNK         0.3000 
    160 H160        3.1944  -19.3421  -43.8574 H         1 UNK         0.0600 
    161 H161        3.9001  -16.5989  -45.0256 H         1 UNK         0.0600 
    162 H162        4.6198  -18.1280  -45.5106 H         1 UNK         0.0600 
    163 H163        4.8685  -17.5200  -43.8790 H         1 UNK         0.0600 
    164 H164        2.5362  -16.6737  -42.9725 H         1 UNK         0.3000 
    165 H165       -0.3815  -17.5575  -41.1216 H         1 UNK         0.0600 
    166 H166        2.4229  -17.0026  -40.0147 H         1 UNK         0.0600 
    167 H167        0.9002  -16.7584  -39.1573 H         1 UNK         0.0600 
    168 H168        1.4151  -18.3811  -39.5892 H         1 UNK         0.0600 
    169 H169        1.1851  -15.1869  -41.1504 H         1 UNK         0.3000 
    170 H170        0.4534  -13.8800  -44.2486 H         1 UNK         0.0600 
    171 H171       -1.8293  -13.4134  -43.3249 H         1 UNK         0.0600 
    172 H172       -1.1124  -12.9435  -41.7876 H         1 UNK         0.0600 
    173 H173       -0.7921  -12.0000  -43.2433 H         1 UNK         0.0600 
    174 H174        1.3449  -12.3735  -42.1449 H         1 UNK         0.3000 
    175 H175        3.7216  -12.7520  -41.0365 H         1 UNK         0.0600 
    176 H176        5.4573  -14.2457  -42.0208 H         1 UNK         0.0600 
    177 H177        6.0071  -12.5776  -42.0551 H         1 UNK         0.0600 
    178 H178        5.4148  -13.3407  -43.5306 H         1 UNK         0.0600 
    179 H179        3.2558  -11.4691  -43.6474 H         1 UNK         0.3000 
    180 H180        2.9430   -8.3357  -42.2095 H         1 UNK         0.0600 
    181 H181        5.4460   -8.9264  -43.8813 H         1 UNK         0.0600 
    182 H182        5.4237   -8.0942  -42.3314 H         1 UNK         0.0600 
    183 H183        4.6544   -7.3570  -43.7267 H         1 UNK         0.0600 
    184 H184        3.2600   -9.1824  -44.9558 H         1 UNK         0.3000 
    185 H185        0.0841  -10.5880  -45.3944 H         1 UNK         0.0600 
    186 H186       -0.3220   -8.8074  -47.0665 H         1 UNK         0.0600 
    187 H187       -0.5650   -8.1700  -45.4479 H         1 UNK         0.0600 
    188 H188        0.9116   -7.7872  -46.3261 H         1 UNK         0.0600 
    189 H189        1.9082   -9.8575  -47.3858 H         1 UNK         0.3000 
    190 H190       -1.9643  -21.0732  -47.6521 H         1 UNK         0.3000 
    191 H191       -3.7377  -22.2091  -49.5519 H         1 UNK         0.0600 
    192 H192       -4.0526  -19.9558  -48.5819 H         1 UNK         0.0600 
    193 H193       -5.4796  -20.9419  -48.2931 H         1 UNK         0.0600 
    194 H194       -4.3373  -20.6466  -46.9864 H         1 UNK         0.0600 
    195 H195       -3.3133  -22.9125  -46.0448 H         1 UNK         0.3000 
    196 H196       -5.3580  -24.8578  -45.8267 H         1 UNK         0.0600 
    197 H197       -4.1661  -25.4901  -43.7189 H         1 UNK         0.0600 
    198 H198       -4.3533  -23.7496  -43.8626 H         1 UNK         0.0600 
    199 H199       -2.7921  -24.4984  -44.1928 H         1 UNK         0.0600 
    200 H200       -1.8639  -25.2352  -46.6163 H         1 UNK         0.3000 
    201 H201       -1.8340  -28.0640  -46.8047 H         1 UNK         0.0600 
    202 H202        0.2224  -26.6961  -46.6556 H         1 UNK         0.0600 
    203 H203       -0.1085  -25.9658  -48.2250 H         1 UNK         0.0600 
    204 H204        0.2689  -27.6809  -48.1098 H         1 UNK         0.0600 
    205 H205       -2.7799  -25.5835  -49.1481 H         1 UNK         0.3000 
    206 H206       -3.2876  -27.4830  -51.3247 H         1 UNK         0.0600 
    207 H207       -2.4472  -25.1815  -51.7712 H         1 UNK         0.0600 
    208 H208       -4.0183  -25.4341  -52.5089 H         1 UNK         0.0600 
    209 H209       -3.8917  -24.4927  -51.0290 H         1 UNK         0.0600 
    210 H210       -4.9023  -26.9779  -48.4879 H         1 UNK         0.3000 
    211 H211       -6.9219  -27.2357  -47.6534 H         1 UNK         0.0600 
    212 H212       -7.5546  -28.8306  -50.1935 H         1 UNK         0.0600 
    213 H213       -8.3821  -28.9579  -48.6468 H         1 UNK         0.0600 
    214 H214       -6.7078  -29.4659  -48.7831 H         1 UNK         0.0600 
    215 H215       -6.4774  -24.8451  -49.2056 H         1 UNK         0.3000 
    216 H216       -7.3639  -23.0503  -50.0797 H         1 UNK         0.0600 
    217 H217       -8.8465  -23.1360  -48.0614 H         1 UNK         0.0600 
    218 H218      -10.0727  -23.9881  -48.9997 H         1 UNK         0.0600 
    219 H219       -9.6255  -22.3411  -49.4183 H         1 UNK         0.0600 
    220 H220       -7.5682  -25.7561  -51.6568 H         1 UNK         0.3000 
    221 H221       -9.6065  -25.0728  -53.6905 H         1 UNK         0.0600 
    222 H222       -7.7838  -27.5158  -53.3738 H         1 UNK         0.0600 
    223 H223       -9.4443  -27.4029  -52.7928 H         1 UNK         0.0600 
    224 H224       -9.1095  -27.3469  -54.5170 H         1 UNK         0.0600 
    225 H225       -6.2831  -24.4962  -53.1265 H         1 UNK         0.3000 
    226 H226       -5.8581  -23.4376  -55.7834 H         1 UNK         0.0600 
    227 H227       -5.2290  -25.8485  -56.1387 H         1 UNK         0.0600 
    228 H228       -3.8488  -24.7905  -56.3113 H         1 UNK         0.0600 
    229 H229       -4.0525  -25.7400  -54.8380 H         1 UNK         0.0600 
    230 H230       -2.9008  -23.6598  -55.0535 H         1 UNK         0.3000 
    231 H231       -1.2743  -22.4700  -54.1768 H         1 UNK         0.0600 
    232 H232       -1.4045  -21.2317  -52.0620 H         1 UNK         0.0600 
    233 H233       -2.2444  -22.7537  -51.8618 H         1 UNK         0.0600 
    234 H234       -3.1557  -21.2606  -52.0740 H         1 UNK         0.0600 
    235 H235       -0.4609  -20.2021  -54.0227 H         1 UNK         0.3000 
    236 H236       -1.4015  -18.6640  -56.2606 H         1 UNK         0.0600 
    237 H237        0.5426  -17.2147  -55.6591 H         1 UNK         0.0600 
    238 H238        0.7369  -18.0769  -54.1379 H         1 UNK         0.0600 
    239 H239        1.0062  -18.9073  -55.6712 H         1 UNK         0.0600 
    240 H240       -2.3920  -18.6785  -53.0032 H         1 UNK         0.3000 
    241 H241       -2.7348  -15.8774  -52.5592 H         1 UNK         0.0600 
    242 H242       -4.7457  -17.9119  -54.4987 H         1 UNK         0.3800 
    243 H243       -6.1662  -16.9005  -54.4170 H         1 UNK         0.3800 
    244 H244       -3.7466  -16.5004  -50.4459 H         1 UNK         0.0800 
    245 H245       -4.0855  -18.1173  -50.9946 H         1 UNK         0.0800 
    246 H246       -0.7788  -15.7523  -50.7059 H         1 UNK         0.0800 
    247 H247       -0.4892  -16.8075  -52.0712 H         1 UNK         0.0800 
@<TRIPOS>BOND
     1    1    2 1    
     2    1  127 1    
     3    1  128 1    
     4    1  129 1    
     5    2    3 2    
     6    2    4 am   BACKBONE|DICT|INTERRES
     7    4    5 1    
     8    4  130 1    
     9    5    6 1    
    10    5   65 1    
    11    5  131 1    
    12    6    7 1    
    13    6  132 1    
    14    6  133 1    
    15    7    8 1    
    16    8    9 1    
    17    8  134 1    
    18    8  135 1    
    19    9   10 ar   
    20    9   14 ar   
    21   10   11 ar   
    22   10  136 1    
    23   11   12 ar   
    24   11  126 1    
    25   12   13 ar   
    26   12  137 1    
    27   13   14 ar   
    28   13   15 1    
    29   14  138 1    
    30   15   16 1    
    31   15  139 1    
    32   15  140 1    
    33   16   17 1    
    34   17   18 1    
    35   17  141 1    
    36   17  142 1    
    37   18   19 1    
    38   18   67 1    
    39   18  143 1    
    40   19   20 am   BACKBONE|DICT|INTERRES
    41   19  144 1    
    42   20   21 2    
    43   20   22 1    
    44   22   23 1    
    45   22   24 1    
    46   22  145 1    
    47   23  146 1    
    48   23  147 1    
    49   23  148 1    
    50   24   25 am   BACKBONE|DICT|INTERRES
    51   24  149 1    
    52   25   26 2    
    53   25   27 1    
    54   27   28 1    
    55   27   29 1    
    56   27  150 1    
    57   28  151 1    
    58   28  152 1    
    59   28  153 1    
    60   29   30 am   BACKBONE|DICT|INTERRES
    61   29  154 1    
    62   30   31 2    
    63   30   32 1    
    64   32   33 1    
    65   32   34 1    
    66   32  155 1    
    67   33  156 1    
    68   33  157 1    
    69   33  158 1    
    70   34   35 am   BACKBONE|DICT|INTERRES
    71   34  159 1    
    72   35   36 2    
    73   35   37 1    
    74   37   38 1    
    75   37   39 1    
    76   37  160 1    
    77   38  161 1    
    78   38  162 1    
    79   38  163 1    
    80   39   40 am   BACKBONE|DICT|INTERRES
    81   39  164 1    
    82   40   41 2    
    83   40   42 1    
    84   42   43 1    
    85   42   44 1    
    86   42  165 1    
    87   43  166 1    
    88   43  167 1    
    89   43  168 1    
    90   44   45 am   BACKBONE|DICT|INTERRES
    91   44  169 1    
    92   45   46 2    
    93   45   47 1    
    94   47   48 1    
    95   47   49 1    
    96   47  170 1    
    97   48  171 1    
    98   48  172 1    
    99   48  173 1    
   100   49   50 am   BACKBONE|DICT|INTERRES
   101   49  174 1    
   102   50   51 2    
   103   50   52 1    
   104   52   53 1    
   105   52   54 1    
   106   52  175 1    
   107   53  176 1    
   108   53  177 1    
   109   53  178 1    
   110   54   55 am   BACKBONE|DICT|INTERRES
   111   54  179 1    
   112   55   56 2    
   113   55   57 1    
   114   57   58 1    
   115   57   59 1    
   116   57  180 1    
   117   58  181 1    
   118   58  182 1    
   119   58  183 1    
   120   59   60 am   BACKBONE|DICT|INTERRES
   121   59  184 1    
   122   60   61 2    
   123   60   62 1    
   124   62   63 1    
   125   62   64 1    
   126   62  185 1    
   127   63  186 1    
   128   63  187 1    
   129   63  188 1    
   130   64   65 am   BACKBONE|DICT|INTERRES
   131   64  189 1    
   132   65   66 2    
   133   67   68 2    
   134   67   69 am   BACKBONE|DICT|INTERRES
   135   69   70 1    
   136   69  190 1    
   137   70   71 1    
   138   70   72 1    
   139   70  191 1    
   140   71  192 1    
   141   71  193 1    
   142   71  194 1    
   143   72   73 2    
   144   72   74 am   BACKBONE|DICT|INTERRES
   145   74   75 1    
   146   74  195 1    
   147   75   76 1    
   148   75   77 1    
   149   75  196 1    
   150   76  197 1    
   151   76  198 1    
   152   76  199 1    
   153   77   78 2    
   154   77   79 am   BACKBONE|DICT|INTERRES
   155   79   80 1    
   156   79  200 1    
   157   80   81 1    
   158   80   82 1    
   159   80  201 1    
   160   81  202 1    
   161   81  203 1    
   162   81  204 1    
   163   82   83 2    
   164   82   84 am   BACKBONE|DICT|INTERRES
   165   84   85 1    
   166   84  205 1    
   167   85   86 1    
   168   85   87 1    
   169   85  206 1    
   170   86  207 1    
   171   86  208 1    
   172   86  209 1    
   173   87   88 2    
   174   87   89 am   BACKBONE|DICT|INTERRES
   175   89   90 1    
   176   89  210 1    
   177   90   91 1    
   178   90   92 1    
   179   90  211 1    
   180   91  212 1    
   181   91  213 1    
   182   91  214 1    
   183   92   93 2    
   184   92   94 am   BACKBONE|DICT|INTERRES
   185   94   95 1    
   186   94  215 1    
   187   95   96 1    
   188   95   97 1    
   189   95  216 1    
   190   96  217 1    
   191   96  218 1    
   192   96  219 1    
   193   97   98 2    
   194   97   99 am   BACKBONE|DICT|INTERRES
   195   99  100 1    
   196   99  220 1    
   197  100  101 1    
   198  100  102 1    
   199  100  221 1    
   200  101  222 1    
   201  101  223 1    
   202  101  224 1    
   203  102  103 2    
   204  102  104 am   BACKBONE|DICT|INTERRES
   205  104  105 1    
   206  104  225 1    
   207  105  106 1    
   208  105  107 1    
   209  105  226 1    
   210  106  227 1    
   211  106  228 1    
   212  106  229 1    
   213  107  108 2    
   214  107  109 am   BACKBONE|DICT|INTERRES
   215  109  110 1    
   216  109  230 1    
   217  110  111 1    
   218  110  112 1    
   219  110  231 1    
   220  111  232 1    
   221  111  233 1    
   222  111  234 1    
   223  112  113 2    
   224  112  114 am   BACKBONE|DICT|INTERRES
   225  114  115 1    
   226  114  235 1    
   227  115  116 1    
   228  115  117 1    
   229  115  236 1    
   230  116  237 1    
   231  116  238 1    
   232  116  239 1    
   233  117  118 2    
   234  117  119 am   BACKBONE|DICT|INTERRES
   235  119  120 1    
   236  119  240 1    
   237  120  121 1    
   238  120  124 1    
   239  120  241 1    
   240  121  122 am   BACKBONE|DICT|INTERRES
   241  121  123 2    
   242  122  242 1    
   243  122  243 1    
   244  124  125 1    
   245  124  244 1    
   246  124  245 1    
   247  125  126 1    
   248  126  246 1    
   249  126  247 1    
@<TRIPOS>SUBSTRUCTURE
     1 UNK         1 GROUP             0       ****    0 ROOT    
