@<TRIPOS>MOLECULE
3R540
247   249    1
SMALL
USER_CHARGES


@<TRIPOS>ATOM
      1 CA         -3.4795  -14.9972  -49.9764 C.3       0 UNK        -0.1800 
      2 C          -2.2244  -15.5592  -49.3127 C.2       0 UNK         0.5000 
      3 O          -1.3338  -16.0230  -50.0173 O.2       0 UNK        -0.5000 
      4 N          -2.0970  -15.5615  -47.9780 N.am      1 UNK        -0.5000 
      5 CA         -3.0358  -15.0638  -46.9618 C.3       1 UNK         0.1400 
      6 C6         -4.3869  -15.8312  -46.9427 C.3       23 UNK        -0.0398 
      7 S7         -5.0414  -16.0546  -45.2555 S.3       23 UNK        -0.2404 
      8 C8         -6.4939  -17.1029  -45.5751 C.3       23 UNK        -0.0205 
      9 C9         -6.1111  -18.5612  -45.7778 C.ar      23 UNK        -0.0193 
     10 C10        -5.9794  -19.0901  -47.0643 C.ar      23 UNK        -0.1150 
     11 C11        -5.6455  -20.4352  -47.2480 C.ar      23 UNK        -0.0193 
     12 C12        -5.4387  -21.2534  -46.1315 C.ar      23 UNK        -0.1150 
     13 C13        -5.5613  -20.7343  -44.8384 C.ar      23 UNK        -0.0193 
     14 C14        -5.9037  -19.3889  -44.6714 C.ar      23 UNK        -0.1150 
     15 C15        -5.3467  -21.6155  -43.6140 C.3       23 UNK        -0.0205 
     16 S16        -3.8321  -21.1517  -42.7105 S.3       23 UNK        -0.2404 
     17 C17        -2.6994  -22.5606  -42.9772 C.3       23 UNK        -0.0398 
     18 CA         -2.4005  -22.9042  -44.4561 C.3       11 UNK         0.1400 
     19 N          -1.8672  -21.7768  -45.2222 N.am      11 UNK        -0.5000 
     20 C          -1.8502  -21.7488  -46.5607 C.2       10 UNK         0.5000 
     21 O          -2.3170  -22.6423  -47.2658 O.2       10 UNK        -0.5000 
     22 CA         -1.1755  -20.5424  -47.2302 C.3       10 UNK         0.1400 
     23 CB         -2.1252  -19.3351  -47.2656 C.3       10 UNK        -0.1800 
     24 N           0.0912  -20.1565  -46.6093 N.am      10 UNK        -0.5000 
     25 C           1.1704  -20.9447  -46.5027 C.2       9 UNK         0.5000 
     26 O           1.2224  -22.0942  -46.9338 O.2       9 UNK        -0.5000 
     27 CA          2.3899  -20.3686  -45.7613 C.3       9 UNK         0.1400 
     28 CB          3.1742  -19.4112  -46.6710 C.3       9 UNK        -0.1800 
     29 N           2.0295  -19.6905  -44.5160 N.am      9 UNK        -0.5000 
     30 C           1.4373  -20.2860  -43.4692 C.2       8 UNK         0.5000 
     31 O           1.1702  -21.4871  -43.4206 O.2       8 UNK        -0.5000 
     32 CA          1.0003  -19.3686  -42.3119 C.3       8 UNK         0.1400 
     33 CB          2.1945  -18.9730  -41.4308 C.3       8 UNK        -0.1800 
     34 N           0.3119  -18.1677  -42.7879 N.am      8 UNK        -0.5000 
     35 C          -0.8120  -18.1897  -43.5187 C.2       7 UNK         0.5000 
     36 O          -1.4094  -19.2211  -43.8195 O.2       7 UNK        -0.5000 
     37 CA         -1.3112  -16.8467  -44.0690 C.3       7 UNK         0.1400 
     38 CB         -2.0541  -16.0378  -42.9962 C.3       7 UNK        -0.1800 
     39 N          -0.2217  -16.0487  -44.6334 N.am      7 UNK        -0.5000 
     40 C           0.4667  -16.3693  -45.7370 C.2       6 UNK         0.5000 
     41 O           0.1713  -17.3090  -46.4696 O.2       6 UNK        -0.5000 
     42 CA          1.6925  -15.5099  -46.0861 C.3       6 UNK         0.1400 
     43 CB          1.2966  -14.3296  -46.9850 C.3       6 UNK        -0.1800 
     44 N           2.3791  -15.0216  -44.8916 N.am      6 UNK        -0.5000 
     45 C           3.0941  -15.7990  -44.0661 C.2       5 UNK         0.5000 
     46 O           3.2820  -17.0013  -44.2530 O.2       5 UNK        -0.5000 
     47 CA          3.6534  -15.1254  -42.7992 C.3       5 UNK         0.1400 
     48 CB          4.9882  -14.4285  -43.1012 C.3       5 UNK        -0.1800 
     49 N           2.7182  -14.1559  -42.2244 N.am      5 UNK        -0.5000 
     50 C           1.5493  -14.4826  -41.6550 C.2       4 UNK         0.5000 
     51 O           1.1644  -15.6429  -41.5096 O.2       4 UNK        -0.5000 
     52 CA          0.6342  -13.3153  -41.2316 C.3       4 UNK         0.1400 
     53 CB          0.9940  -12.8324  -39.8189 C.3       4 UNK        -0.1800 
     54 N           0.6681  -12.1781  -42.1601 N.am      4 UNK        -0.5000 
     55 C           0.3143  -12.2446  -43.4506 C.2       3 UNK         0.5000 
     56 O          -0.0727  -13.2835  -43.9890 O.2       3 UNK        -0.5000 
     57 CA          0.4864  -10.9614  -44.2869 C.3       3 UNK         0.1400 
     58 CB          1.9793  -10.6676  -44.5112 C.3       3 UNK        -0.1800 
     59 N          -0.1557  -11.0852  -45.5963 N.am      3 UNK        -0.5000 
     60 C          -1.4739  -11.0108  -45.8196 C.2       2 UNK         0.5000 
     61 O          -2.2971  -10.6966  -44.9590 O.2       2 UNK        -0.5000 
     62 CA         -1.9492  -11.3772  -47.2395 C.3       2 UNK         0.1400 
     63 CB         -0.9927  -10.8865  -48.3433 C.3       2 UNK        -0.1800 
     64 N          -2.0989  -12.8272  -47.3480 N.am      2 UNK        -0.5000 
     65 C          -3.1634  -13.5222  -46.9244 C.2       1 UNK         0.5000 
     66 O          -4.2010  -12.9947  -46.5233 O.2       1 UNK        -0.5000 
     67 C          -1.4850  -24.1429  -44.5540 C.2       11 UNK         0.5000 
     68 O          -1.9969  -25.2553  -44.6833 O.2       11 UNK        -0.5000 
     69 N          -0.1592  -23.9392  -44.5045 N.am      12 UNK        -0.5000 
     70 CA          0.8433  -25.0056  -44.5720 C.3       12 UNK         0.1400 
     71 CB          2.2210  -24.4489  -44.1817 C.3       12 UNK        -0.1800 
     72 C           0.9081  -25.6941  -45.9472 C.2       12 UNK         0.5000 
     73 O           0.9424  -26.9236  -46.0091 O.2       12 UNK        -0.5000 
     74 N           0.9174  -24.8953  -47.0221 N.am      13 UNK        -0.5000 
     75 CA          0.9722  -25.3703  -48.4062 C.3       13 UNK         0.1400 
     76 CB          1.5731  -24.2655  -49.2903 C.3       13 UNK        -0.1800 
     77 C          -0.3998  -25.8055  -48.9542 C.2       13 UNK         0.5000 
     78 O          -0.4513  -26.3833  -50.0403 O.2       13 UNK        -0.5000 
     79 N          -1.4824  -25.4844  -48.2311 N.am      14 UNK        -0.5000 
     80 CA         -2.9066  -25.6821  -48.5378 C.3       14 UNK         0.1400 
     81 CB         -3.2429  -27.1669  -48.7711 C.3       14 UNK        -0.1800 
     82 C          -3.4335  -24.7945  -49.6839 C.2       14 UNK         0.5000 
     83 O          -4.5701  -24.3289  -49.6108 O.2       14 UNK        -0.5000 
     84 N          -2.6031  -24.5511  -50.7020 N.am      15 UNK        -0.5000 
     85 CA         -2.7773  -23.5031  -51.6979 C.3       15 UNK         0.1400 
     86 CB         -2.0681  -23.9252  -52.9911 C.3       15 UNK        -0.1800 
     87 C          -2.1999  -22.1839  -51.1568 C.2       15 UNK         0.5000 
     88 O          -1.1580  -22.2100  -50.4982 O.2       15 UNK        -0.5000 
     89 N          -2.8626  -21.0581  -51.4604 N.am      16 UNK        -0.5000 
     90 CA         -2.4936  -19.7079  -51.0227 C.3       16 UNK         0.1400 
     91 CB         -3.5416  -18.7027  -51.5239 C.3       16 UNK        -0.1800 
     92 C          -1.0685  -19.3177  -51.4541 C.2       16 UNK         0.5000 
     93 O          -0.8282  -19.1284  -52.6467 O.2       16 UNK        -0.5000 
     94 N          -0.1415  -19.3033  -50.4827 N.am      17 UNK        -0.5000 
     95 CA          1.3089  -19.1369  -50.6427 C.3       17 UNK         0.1400 
     96 CB          1.6447  -17.6650  -50.9529 C.3       17 UNK        -0.1800 
     97 C           1.9228  -20.1220  -51.6647 C.2       17 UNK         0.5000 
     98 O           2.8509  -19.7613  -52.3897 O.2       17 UNK        -0.5000 
     99 N           1.3380  -21.3273  -51.7492 N.am      18 UNK        -0.5000 
    100 CA         1.5535  -22.4010  -52.7256 C.3       18 UNK         0.1400 
    101 CB         3.0094  -22.9032  -52.7029 C.3       18 UNK        -0.1800 
    102 C          1.1015  -22.0691  -54.1660 C.2       18 UNK         0.5000 
    103 O          0.6013  -22.9574  -54.8556 O.2       18 UNK        -0.5000 
    104 N          1.2964  -20.8227  -54.6092 N.am      19 UNK        -0.5000 
    105 CA         1.1239  -20.3911  -55.9945 C.3       19 UNK         0.1400 
    106 CB         2.0548  -19.1956  -56.2499 C.3       19 UNK        -0.1800 
    107 C         -0.3199  -20.0223  -56.3805 C.2       19 UNK         0.5000 
    108 O         -0.6951  -20.2322  -57.5347 O.2       19 UNK        -0.5000 
    109 N         -1.0952  -19.4506  -55.4486 N.am      20 UNK        -0.5000 
    110 CA        -2.3801  -18.7997  -55.7357 C.3       20 UNK         0.1400 
    111 CB        -2.4314  -17.4348  -55.0244 C.3       20 UNK        -0.1800 
    112 C         -3.6090  -19.6792  -55.4281 C.2       20 UNK         0.5000 
    113 O         -4.7180  -19.1537  -55.3304 O.2       20 UNK        -0.5000 
    114 N         -3.4064  -20.9983  -55.2986 N.am      21 UNK        -0.5000 
    115 CA        -4.4025  -22.0850  -55.2746 C.3       21 UNK         0.1400 
    116 CB        -5.1929  -22.1172  -56.5969 C.3       21 UNK        -0.1800 
    117 C         -5.3707  -22.1395  -54.0707 C.2       21 UNK         0.5000 
    118 O         -5.8727  -23.2237  -53.7757 O.2       21 UNK        -0.5000 
    119 N         -5.6027  -21.0128  -53.3853 N.am      22 UNK        -0.5000 
    120 CA        -6.6446  -20.8257  -52.3554 C.3       22 UNK         0.1400 
    121 C         -8.0879  -20.7889  -52.9525 C.2       22 UNK         0.5000 
    122 N         -9.1201  -20.8090  -52.1207 N.am      22 UNK        -0.7600 
    123 O         -8.2902  -20.7036  -54.1622 O.2       22 UNK        -0.5000 
    124 C124       -6.4966  -21.8029  -51.1469 C.3       23 UNK        -0.0398 
    125 S125       -7.0467  -21.1011  -49.5517 S.3       23 UNK        -0.2404 
    126 C126       -5.4679  -20.9883  -48.6536 C.3       23 UNK        -0.0205 
    127 H127       -4.3251  -15.6672  -49.8248 H         1 UNK         0.0600 
    128 H128       -3.3246  -14.9029  -51.0515 H         1 UNK         0.0600 
    129 H129       -3.7364  -14.0088  -49.5997 H         1 UNK         0.0600 
    130 H130       -1.2704  -16.0068  -47.6002 H         1 UNK         0.3000 
    131 H131       -2.5282  -15.2807  -46.0263 H         1 UNK         0.0600 
    132 H132       -5.1392  -15.3396  -47.5612 H         1 UNK         0.0800 
    133 H133       -4.2492  -16.8275  -47.3639 H         1 UNK         0.0800 
    134 H134       -7.0428  -16.7231  -46.4382 H         1 UNK         0.0800 
    135 H135       -7.1747  -17.0238  -44.7263 H         1 UNK         0.0800 
    136 H136       -6.1379  -18.4571  -47.9261 H         1 UNK         0.1150 
    137 H137       -5.1727  -22.2916  -46.2718 H         1 UNK         0.1150 
    138 H138       -6.0012  -18.9829  -43.6742 H         1 UNK         0.1150 
    139 H139       -6.1981  -21.4933  -42.9430 H         1 UNK         0.0800 
    140 H140       -5.3313  -22.6720  -43.8827 H         1 UNK         0.0800 
    141 H141       -3.1260  -23.4262  -42.4671 H         1 UNK         0.0800 
    142 H142       -1.7694  -22.3296  -42.4541 H         1 UNK         0.0800 
    143 H143       -3.3445  -23.1924  -44.9205 H         1 UNK         0.0600 
    144 H144       -1.5344  -20.9711  -44.6985 H         1 UNK         0.3000 
    145 H145       -0.9544  -20.8368  -48.2557 H         1 UNK         0.0600 
    146 H146       -1.7109  -18.5152  -47.8508 H         1 UNK         0.0600 
    147 H147       -3.0784  -19.6011  -47.7145 H         1 UNK         0.0600 
    148 H148       -2.3431  -18.9610  -46.2667 H         1 UNK         0.0600 
    149 H149        0.1450  -19.2029  -46.2631 H         1 UNK         0.3000 
    150 H150        3.0456  -21.2024  -45.5032 H         1 UNK         0.0600 
    151 H151        3.4979  -19.9169  -47.5816 H         1 UNK         0.0600 
    152 H152        4.0677  -19.0358  -46.1720 H         1 UNK         0.0600 
    153 H153        2.5725  -18.5531  -46.9696 H         1 UNK         0.0600 
    154 H154        2.2497  -18.7013  -44.4547 H         1 UNK         0.3000 
    155 H155        0.2948  -19.9286  -41.6946 H         1 UNK         0.0600 
    156 H156        2.9331  -18.3935  -41.9841 H         1 UNK         0.0600 
    157 H157        2.6981  -19.8571  -41.0382 H         1 UNK         0.0600 
    158 H158        1.8729  -18.3750  -40.5779 H         1 UNK         0.0600 
    159 H159        0.7224  -17.2723  -42.5414 H         1 UNK         0.3000 
    160 H160       -2.0193  -17.0788  -44.8647 H         1 UNK         0.0600 
    161 H161       -1.4157  -15.8080  -42.1442 H         1 UNK         0.0600 
    162 H162       -2.9145  -16.5933  -42.6211 H         1 UNK         0.0600 
    163 H163       -2.4260  -15.0956  -43.3996 H         1 UNK         0.0600 
    164 H164        0.0204  -15.1914  -44.1453 H         1 UNK         0.3000 
    165 H165        2.3895  -16.1366  -46.6460 H         1 UNK         0.0600 
    166 H166        2.1638  -13.7216  -47.2430 H         1 UNK         0.0600 
    167 H167        0.8601  -14.6834  -47.9201 H         1 UNK         0.0600 
    168 H168        0.5649  -13.6845  -46.5027 H         1 UNK         0.0600 
    169 H169        2.2236  -14.0581  -44.6382 H         1 UNK         0.3000 
    170 H170        3.8353  -15.9071  -42.0585 H         1 UNK         0.0600 
    171 H171        5.7101  -15.1327  -43.5170 H         1 UNK         0.0600 
    172 H172        4.8678  -13.6179  -43.8211 H         1 UNK         0.0600 
    173 H173        5.4282  -14.0108  -42.1955 H         1 UNK         0.0600 
    174 H174        2.9635  -13.1799  -42.2996 H         1 UNK         0.3000 
    175 H175       -0.3898  -13.6938  -41.2103 H         1 UNK         0.0600 
    176 H176        1.9982  -12.4085  -39.7806 H         1 UNK         0.0600 
    177 H177        0.2943  -12.0719  -39.4718 H         1 UNK         0.0600 
    178 H178        0.9575  -13.6557  -39.1040 H         1 UNK         0.0600 
    179 H179        0.9858  -11.2972  -41.7819 H         1 UNK         0.3000 
    180 H180        0.0352  -10.1287  -43.7434 H         1 UNK         0.0600 
    181 H181        2.4787  -11.4853  -45.0327 H         1 UNK         0.0600 
    182 H182        2.5010  -10.5134  -43.5659 H         1 UNK         0.0600 
    183 H183        2.1164   -9.7620  -45.1025 H         1 UNK         0.0600 
    184 H184        0.4437  -11.3582  -46.3595 H         1 UNK         0.3000 
    185 H185       -2.9162  -10.8954  -47.3998 H         1 UNK         0.0600 
    186 H186       -0.7974   -9.8177  -48.2452 H         1 UNK         0.0600 
    187 H187       -0.0329  -11.4037  -48.3238 H         1 UNK         0.0600 
    188 H188       -1.4287  -11.0442  -49.3300 H         1 UNK         0.0600 
    189 H189       -1.2960  -13.3418  -47.6764 H         1 UNK         0.3000 
    190 H190        0.1939  -22.9966  -44.3704 H         1 UNK         0.3000 
    191 H191        0.5711  -25.7656  -43.8366 H         1 UNK         0.0600 
    192 H192        2.5332  -23.6436  -44.8473 H         1 UNK         0.0600 
    193 H193        2.9847  -25.2265  -44.2246 H         1 UNK         0.0600 
    194 H194        2.2134  -24.0580  -43.1642 H         1 UNK         0.0600 
    195 H195        0.9206  -23.8840  -46.8938 H         1 UNK         0.3000 
    196 H196        1.6335  -26.2377  -48.4569 H         1 UNK         0.0600 
    197 H197        1.6847  -24.6055  -50.3202 H         1 UNK         0.0600 
    198 H198        2.5603  -23.9679  -48.9370 H         1 UNK         0.0600 
    199 H199        0.9421  -23.3765  -49.3053 H         1 UNK         0.0600 
    200 H200       -1.3139  -24.9418  -47.3948 H         1 UNK         0.3000 
    201 H201       -3.4366  -25.3657  -47.6378 H         1 UNK         0.0600 
    202 H202       -2.9036  -27.7832  -47.9385 H         1 UNK         0.0600 
    203 H203       -2.7877  -27.5523  -49.6836 H         1 UNK         0.0600 
    204 H204       -4.3203  -27.3083  -48.8632 H         1 UNK         0.0600 
    205 H205       -1.6919  -24.9946  -50.6660 H         1 UNK         0.3000 
    206 H206       -3.8373  -23.3770  -51.9122 H         1 UNK         0.0600 
    207 H207       -2.6124  -24.7278  -53.4889 H         1 UNK         0.0600 
    208 H208       -1.9919  -23.0952  -53.6933 H         1 UNK         0.0600 
    209 H209       -1.0578  -24.2849  -52.7992 H         1 UNK         0.0600 
    210 H210       -3.6828  -21.1187  -52.0444 H         1 UNK         0.3000 
    211 H211       -2.5290  -19.6976  -49.9361 H         1 UNK         0.0600 
    212 H212       -3.7344  -18.8172  -52.5887 H         1 UNK         0.0600 
    213 H213       -3.2132  -17.6763  -51.3605 H         1 UNK         0.0600 
    214 H214       -4.4890  -18.8228  -51.0004 H         1 UNK         0.0600 
    215 H215       -0.4411  -19.4951  -49.5397 H         1 UNK         0.3000 
    216 H216        1.7563  -19.3836  -49.6788 H         1 UNK         0.0600 
    217 H217        2.7227  -17.5037  -50.9877 H         1 UNK         0.0600 
    218 H218        1.2454  -17.0026  -50.1849 H         1 UNK         0.0600 
    219 H219        1.2321  -17.3517  -51.9125 H         1 UNK         0.0600 
    220 H220        0.5465  -21.4947  -51.1332 H         1 UNK         0.3000 
    221 H221        0.9272  -23.2242  -52.3832 H         1 UNK         0.0600 
    222 H222        3.7056  -22.1587  -53.0894 H         1 UNK         0.0600 
    223 H223        3.3229  -23.1628  -51.6919 H         1 UNK         0.0600 
    224 H224        3.1189  -23.7975  -53.3175 H         1 UNK         0.0600 
    225 H225        1.7318  -20.1644  -53.9718 H         1 UNK         0.3000 
    226 H226        1.4401  -21.2032  -56.6530 H         1 UNK         0.0600 
    227 H227        3.0969  -19.4627  -56.0730 H         1 UNK         0.0600 
    228 H228        1.9789  -18.8519  -57.2824 H         1 UNK         0.0600 
    229 H229        1.8110  -18.3517  -55.6029 H         1 UNK         0.0600 
    230 H230       -0.7558  -19.3564  -54.4926 H         1 UNK         0.3000 
    231 H231       -2.4444  -18.5848  -56.8042 H         1 UNK         0.0600 
    232 H232       -1.5973  -16.8045  -55.3328 H         1 UNK         0.0600 
    233 H233       -2.3868  -17.5302  -53.9419 H         1 UNK         0.0600 
    234 H234       -3.3468  -16.8943  -55.2678 H         1 UNK         0.0600 
    235 H235       -2.4446  -21.3015  -55.3630 H         1 UNK         0.3000 
    236 H236       -3.8229  -23.0078  -55.2330 H         1 UNK         0.0600 
    237 H237       -5.8246  -21.2359  -56.7138 H         1 UNK         0.0600 
    238 H238       -4.5242  -22.1687  -57.4563 H         1 UNK         0.0600 
    239 H239       -5.8450  -22.9905  -56.6412 H         1 UNK         0.0600 
    240 H240       -5.2588  -20.1606  -53.8200 H         1 UNK         0.3000 
    241 H241       -6.4719  -19.8128  -51.9918 H         1 UNK         0.0600 
    242 H242      -10.0566  -20.7708  -52.4922 H         1 UNK         0.3800 
    243 H243       -8.9781  -20.8625  -51.1223 H         1 UNK         0.3800 
    244 H244       -5.4568  -22.0960  -51.0290 H         1 UNK         0.0800 
    245 H245       -7.0345  -22.7352  -51.3276 H         1 UNK         0.0800 
    246 H246       -4.7881  -20.3445  -49.2083 H         1 UNK         0.0800 
    247 H247       -4.9979  -21.9712  -48.6141 H         1 UNK         0.0800 
@<TRIPOS>BOND
     1    1    2 1    
     2    1  127 1    
     3    1  128 1    
     4    1  129 1    
     5    2    3 2    
     6    2    4 am   BACKBONE|DICT|INTERRES
     7    4    5 1    
     8    4  130 1    
     9    5    6 1    
    10    5   65 1    
    11    5  131 1    
    12    6    7 1    
    13    6  132 1    
    14    6  133 1    
    15    7    8 1    
    16    8    9 1    
    17    8  134 1    
    18    8  135 1    
    19    9   10 ar   
    20    9   14 ar   
    21   10   11 ar   
    22   10  136 1    
    23   11   12 ar   
    24   11  126 1    
    25   12   13 ar   
    26   12  137 1    
    27   13   14 ar   
    28   13   15 1    
    29   14  138 1    
    30   15   16 1    
    31   15  139 1    
    32   15  140 1    
    33   16   17 1    
    34   17   18 1    
    35   17  141 1    
    36   17  142 1    
    37   18   19 1    
    38   18   67 1    
    39   18  143 1    
    40   19   20 am   BACKBONE|DICT|INTERRES
    41   19  144 1    
    42   20   21 2    
    43   20   22 1    
    44   22   23 1    
    45   22   24 1    
    46   22  145 1    
    47   23  146 1    
    48   23  147 1    
    49   23  148 1    
    50   24   25 am   BACKBONE|DICT|INTERRES
    51   24  149 1    
    52   25   26 2    
    53   25   27 1    
    54   27   28 1    
    55   27   29 1    
    56   27  150 1    
    57   28  151 1    
    58   28  152 1    
    59   28  153 1    
    60   29   30 am   BACKBONE|DICT|INTERRES
    61   29  154 1    
    62   30   31 2    
    63   30   32 1    
    64   32   33 1    
    65   32   34 1    
    66   32  155 1    
    67   33  156 1    
    68   33  157 1    
    69   33  158 1    
    70   34   35 am   BACKBONE|DICT|INTERRES
    71   34  159 1    
    72   35   36 2    
    73   35   37 1    
    74   37   38 1    
    75   37   39 1    
    76   37  160 1    
    77   38  161 1    
    78   38  162 1    
    79   38  163 1    
    80   39   40 am   BACKBONE|DICT|INTERRES
    81   39  164 1    
    82   40   41 2    
    83   40   42 1    
    84   42   43 1    
    85   42   44 1    
    86   42  165 1    
    87   43  166 1    
    88   43  167 1    
    89   43  168 1    
    90   44   45 am   BACKBONE|DICT|INTERRES
    91   44  169 1    
    92   45   46 2    
    93   45   47 1    
    94   47   48 1    
    95   47   49 1    
    96   47  170 1    
    97   48  171 1    
    98   48  172 1    
    99   48  173 1    
   100   49   50 am   BACKBONE|DICT|INTERRES
   101   49  174 1    
   102   50   51 2    
   103   50   52 1    
   104   52   53 1    
   105   52   54 1    
   106   52  175 1    
   107   53  176 1    
   108   53  177 1    
   109   53  178 1    
   110   54   55 am   BACKBONE|DICT|INTERRES
   111   54  179 1    
   112   55   56 2    
   113   55   57 1    
   114   57   58 1    
   115   57   59 1    
   116   57  180 1    
   117   58  181 1    
   118   58  182 1    
   119   58  183 1    
   120   59   60 am   BACKBONE|DICT|INTERRES
   121   59  184 1    
   122   60   61 2    
   123   60   62 1    
   124   62   63 1    
   125   62   64 1    
   126   62  185 1    
   127   63  186 1    
   128   63  187 1    
   129   63  188 1    
   130   64   65 am   BACKBONE|DICT|INTERRES
   131   64  189 1    
   132   65   66 2    
   133   67   68 2    
   134   67   69 am   BACKBONE|DICT|INTERRES
   135   69   70 1    
   136   69  190 1    
   137   70   71 1    
   138   70   72 1    
   139   70  191 1    
   140   71  192 1    
   141   71  193 1    
   142   71  194 1    
   143   72   73 2    
   144   72   74 am   BACKBONE|DICT|INTERRES
   145   74   75 1    
   146   74  195 1    
   147   75   76 1    
   148   75   77 1    
   149   75  196 1    
   150   76  197 1    
   151   76  198 1    
   152   76  199 1    
   153   77   78 2    
   154   77   79 am   BACKBONE|DICT|INTERRES
   155   79   80 1    
   156   79  200 1    
   157   80   81 1    
   158   80   82 1    
   159   80  201 1    
   160   81  202 1    
   161   81  203 1    
   162   81  204 1    
   163   82   83 2    
   164   82   84 am   BACKBONE|DICT|INTERRES
   165   84   85 1    
   166   84  205 1    
   167   85   86 1    
   168   85   87 1    
   169   85  206 1    
   170   86  207 1    
   171   86  208 1    
   172   86  209 1    
   173   87   88 2    
   174   87   89 am   BACKBONE|DICT|INTERRES
   175   89   90 1    
   176   89  210 1    
   177   90   91 1    
   178   90   92 1    
   179   90  211 1    
   180   91  212 1    
   181   91  213 1    
   182   91  214 1    
   183   92   93 2    
   184   92   94 am   BACKBONE|DICT|INTERRES
   185   94   95 1    
   186   94  215 1    
   187   95   96 1    
   188   95   97 1    
   189   95  216 1    
   190   96  217 1    
   191   96  218 1    
   192   96  219 1    
   193   97   98 2    
   194   97   99 am   BACKBONE|DICT|INTERRES
   195   99  100 1    
   196   99  220 1    
   197  100  101 1    
   198  100  102 1    
   199  100  221 1    
   200  101  222 1    
   201  101  223 1    
   202  101  224 1    
   203  102  103 2    
   204  102  104 am   BACKBONE|DICT|INTERRES
   205  104  105 1    
   206  104  225 1    
   207  105  106 1    
   208  105  107 1    
   209  105  226 1    
   210  106  227 1    
   211  106  228 1    
   212  106  229 1    
   213  107  108 2    
   214  107  109 am   BACKBONE|DICT|INTERRES
   215  109  110 1    
   216  109  230 1    
   217  110  111 1    
   218  110  112 1    
   219  110  231 1    
   220  111  232 1    
   221  111  233 1    
   222  111  234 1    
   223  112  113 2    
   224  112  114 am   BACKBONE|DICT|INTERRES
   225  114  115 1    
   226  114  235 1    
   227  115  116 1    
   228  115  117 1    
   229  115  236 1    
   230  116  237 1    
   231  116  238 1    
   232  116  239 1    
   233  117  118 2    
   234  117  119 am   BACKBONE|DICT|INTERRES
   235  119  120 1    
   236  119  240 1    
   237  120  121 1    
   238  120  124 1    
   239  120  241 1    
   240  121  122 am   BACKBONE|DICT|INTERRES
   241  121  123 2    
   242  122  242 1    
   243  122  243 1    
   244  124  125 1    
   245  124  244 1    
   246  124  245 1    
   247  125  126 1    
   248  126  246 1    
   249  126  247 1    
@<TRIPOS>SUBSTRUCTURE
     1 UNK         1 GROUP             0       ****    0 ROOT    
