@<TRIPOS>MOLECULE
3R540
247   249    1
SMALL
USER_CHARGES


@<TRIPOS>ATOM
      1 CA         -3.9328  -14.5232  -48.1376 C.3       0 UNK        -0.1800 
      2 C          -2.4957  -14.1933  -47.7678 C.2       0 UNK         0.5000 
      3 O          -2.1943  -13.0403  -47.4619 O.2       0 UNK        -0.5000 
      4 N          -1.6131  -15.2013  -47.7750 N.am      1 UNK        -0.5000 
      5 CA         -0.1963  -15.0771  -47.4026 C.3       1 UNK         0.1400 
      6 C6          0.7269  -15.9526  -48.2871 C.3       23 UNK        -0.0398 
      7 S7          0.5302  -17.7567  -48.0855 S.3       23 UNK        -0.2404 
      8 C8         -0.2429  -18.2478  -49.6604 C.3       23 UNK        -0.0205 
      9 C9         -1.7357  -17.9571  -49.6868 C.ar      23 UNK        -0.0193 
     10 C10        -2.3126  -17.2738  -50.7580 C.ar      23 UNK        -0.1150 
     11 C11        -3.6933  -17.0639  -50.7992 C.ar      23 UNK        -0.0193 
     12 C12        -4.4931  -17.5137  -49.7437 C.ar      23 UNK        -0.1150 
     13 C13        -3.9278  -18.1838  -48.6536 C.ar      23 UNK        -0.0193 
     14 C14        -2.5490  -18.4087  -48.6471 C.ar      23 UNK        -0.1150 
     15 C15        -4.8199  -18.6913  -47.5220 C.3       23 UNK        -0.0205 
     16 S16        -4.3402  -18.0722  -45.8670 S.3       23 UNK        -0.2404 
     17 C17        -2.9103  -19.0623  -45.2805 C.3       23 UNK        -0.0398 
     18 CA         -2.7668  -20.5165  -45.8017 C.3       11 UNK         0.1400 
     19 N          -1.3725  -20.9645  -45.7833 N.am      11 UNK        -0.5000 
     20 C          -0.9201  -22.0626  -46.4035 C.2       10 UNK         0.5000 
     21 O          -1.6296  -22.8006  -47.0862 O.2       10 UNK        -0.5000 
     22 CA          0.5582  -22.4191  -46.1885 C.3       10 UNK         0.1400 
     23 CB          1.4490  -21.6688  -47.1897 C.3       10 UNK        -0.1800 
     24 N           0.9802  -22.1271  -44.8179 N.am      10 UNK        -0.5000 
     25 C           0.6367  -22.8760  -43.7584 C.2       9 UNK         0.5000 
     26 O          -0.0080  -23.9203  -43.8456 O.2       9 UNK        -0.5000 
     27 CA          1.0437  -22.3578  -42.3647 C.3       9 UNK         0.1400 
     28 CB          2.4478  -22.8572  -41.9934 C.3       9 UNK        -0.1800 
     29 N           1.0073  -20.8985  -42.2570 N.am      9 UNK        -0.5000 
     30 C          -0.0986  -20.1505  -42.3747 C.2       8 UNK         0.5000 
     31 O          -1.2244  -20.6179  -42.5371 O.2       8 UNK        -0.5000 
     32 CA          0.0848  -18.6215  -42.3777 C.3       8 UNK         0.1400 
     33 CB         -0.1166  -18.0474  -40.9681 C.3       8 UNK        -0.1800 
     34 N           1.3777  -18.1728  -42.9041 N.am      8 UNK        -0.5000 
     35 C           1.8414  -18.4285  -44.1366 C.2       7 UNK         0.5000 
     36 O           1.2224  -19.1090  -44.9556 O.2       7 UNK        -0.5000 
     37 CA          3.2300  -17.8550  -44.4743 C.3       7 UNK         0.1400 
     38 CB          3.5369  -17.8330  -45.9803 C.3       7 UNK        -0.1800 
     39 N           3.3662  -16.5017  -43.9323 N.am      7 UNK        -0.5000 
     40 C           4.2633  -16.1303  -43.0115 C.2       6 UNK         0.5000 
     41 O           5.0905  -16.9069  -42.5305 O.2       6 UNK        -0.5000 
     42 CA          4.2095  -14.6762  -42.4938 C.3       6 UNK         0.1400 
     43 CB          5.5974  -14.1506  -42.0705 C.3       6 UNK        -0.1800 
     44 N           3.5482  -13.7008  -43.3674 N.am      6 UNK        -0.5000 
     45 C           3.9221  -13.3086  -44.5959 C.2       5 UNK         0.5000 
     46 O           4.8028  -13.8633  -45.2541 O.2       5 UNK        -0.5000 
     47 CA          3.2456  -12.0411  -45.1675 C.3       5 UNK         0.1400 
     48 CB          2.2910  -12.3546  -46.3280 C.3       5 UNK        -0.1800 
     49 N           2.5286  -11.2590  -44.1565 N.am      5 UNK        -0.5000 
     50 C           3.1218  -10.4450  -43.2719 C.2       4 UNK         0.5000 
     51 O           4.3303  -10.2078  -43.2694 O.2       4 UNK        -0.5000 
     52 CA          2.2273   -9.7980  -42.1946 C.3       4 UNK         0.1400 
     53 CB          1.8355   -8.3716  -42.6099 C.3       4 UNK        -0.1800 
     54 N           1.0094  -10.5499  -41.8750 N.am      4 UNK        -0.5000 
     55 C           0.9666  -11.7907  -41.3707 C.2       3 UNK         0.5000 
     56 O           1.9688  -12.4773  -41.1680 O.2       3 UNK        -0.5000 
     57 CA         -0.4178  -12.3868  -41.0445 C.3       3 UNK         0.1400 
     58 CB         -1.5980  -11.4039  -41.2240 C.3       3 UNK        -0.1800 
     59 N          -0.6581  -13.6280  -41.7874 N.am      3 UNK        -0.5000 
     60 C          -0.7025  -13.7715  -43.1199 C.2       2 UNK         0.5000 
     61 O          -0.5247  -12.8420  -43.9119 O.2       2 UNK        -0.5000 
     62 CA         -1.0165  -15.1954  -43.6312 C.3       2 UNK         0.1400 
     63 CB         -2.3774  -15.6903  -43.1098 C.3       2 UNK        -0.1800 
     64 N          -1.0343  -15.2739  -45.0899 N.am      2 UNK        -0.5000 
     65 C           0.0458  -15.2409  -45.8803 C.2       1 UNK         0.5000 
     66 O           1.1959  -15.2970  -45.4419 O.2       1 UNK        -0.5000 
     67 C          -3.7007  -21.5082  -45.0801 C.2       11 UNK         0.5000 
     68 O          -4.7489  -21.8576  -45.6243 O.2       11 UNK        -0.5000 
     69 N          -3.2580  -22.0138  -43.9197 N.am      12 UNK        -0.5000 
     70 CA         -3.9083  -23.0811  -43.1546 C.3       12 UNK         0.1400 
     71 CB         -3.1771  -23.2557  -41.8153 C.3       12 UNK        -0.1800 
     72 C          -3.9773  -24.4239  -43.9105 C.2       12 UNK         0.5000 
     73 O          -4.9096  -25.1962  -43.6890 O.2       12 UNK        -0.5000 
     74 N          -3.0252  -24.6547  -44.8242 N.am      13 UNK        -0.5000 
     75 CA         -2.9779  -25.7882  -45.7489 C.3       13 UNK         0.1400 
     76 CB         -1.5064  -26.1460  -46.0252 C.3       13 UNK        -0.1800 
     77 C          -3.7634  -25.5204  -47.0528 C.2       13 UNK         0.5000 
     78 O          -3.4229  -26.0871  -48.0915 O.2       13 UNK        -0.5000 
     79 N          -4.7924  -24.6618  -46.9879 N.am      14 UNK        -0.5000 
     80 CA         -5.7055  -24.2791  -48.0695 C.3       14 UNK         0.1400 
     81 CB         -6.5736  -25.4804  -48.5001 C.3       14 UNK        -0.1800 
     82 C          -4.9760  -23.6090  -49.2494 C.2       14 UNK         0.5000 
     83 O          -5.1742  -23.9954  -50.4019 O.2       14 UNK        -0.5000 
     84 N          -4.1185  -22.6312  -48.9249 N.am      15 UNK        -0.5000 
     85 CA         -3.2644  -21.8741  -49.8489 C.3       15 UNK         0.1400 
     86 CB         -4.1238  -21.0089  -50.7921 C.3       15 UNK        -0.1800 
     87 C          -2.2725  -22.7946  -50.5909 C.2       15 UNK         0.5000 
     88 O          -2.1567  -22.7393  -51.8182 O.2       15 UNK        -0.5000 
     89 N          -1.6123  -23.6573  -49.8033 N.am      16 UNK        -0.5000 
     90 CA         -0.7045  -24.7332  -50.2082 C.3       16 UNK         0.1400 
     91 CB          0.6081  -24.1456  -50.7667 C.3       16 UNK        -0.1800 
     92 C          -1.3815  -25.7341  -51.1677 C.2       16 UNK         0.5000 
     93 O          -0.8364  -26.0385  -52.2276 O.2       16 UNK        -0.5000 
     94 N          -2.5830  -26.1945  -50.7896 N.am      17 UNK        -0.5000 
     95 CA         -3.4944  -27.0386  -51.5709 C.3       17 UNK         0.1400 
     96 CB         -2.9244  -28.4643  -51.7200 C.3       17 UNK        -0.1800 
     97 C          -3.8842  -26.3918  -52.9187 C.2       17 UNK         0.5000 
     98 O          -3.8592  -27.0511  -53.9598 O.2       17 UNK        -0.5000 
     99 N          -4.2172  -25.0948  -52.8586 N.am      18 UNK        -0.5000 
    100 CA        -4.5775  -24.2013  -53.9624 C.3       18 UNK         0.1400 
    101 CB        -5.9275  -24.6209  -54.5801 C.3       18 UNK        -0.1800 
    102 C         -3.4649  -24.0125  -55.0185 C.2       18 UNK         0.5000 
    103 O         -3.7690  -23.7244  -56.1775 O.2       18 UNK        -0.5000 
    104 N         -2.1961  -24.1592  -54.6108 N.am      19 UNK        -0.5000 
    105 CA        -1.0271  -23.9253  -55.4632 C.3       19 UNK         0.1400 
    106 CB         0.1692  -24.7267  -54.9308 C.3       19 UNK        -0.1800 
    107 C         -0.6632  -22.4332  -55.5795 C.2       19 UNK         0.5000 
    108 O          0.0637  -22.0646  -56.5040 O.2       19 UNK        -0.5000 
    109 N         -1.1552  -21.6046  -54.6470 N.am      20 UNK        -0.5000 
    110 CA        -0.9892  -20.1512  -54.6440 C.3       20 UNK         0.1400 
    111 CB        -1.5604  -19.5950  -53.3342 C.3       20 UNK        -0.1800 
    112 C         -1.6693  -19.4642  -55.8460 C.2       20 UNK         0.5000 
    113 O         -2.6056  -20.0131  -56.4331 O.2       20 UNK        -0.5000 
    114 N         -1.2113  -18.2434  -56.1569 N.am      21 UNK        -0.5000 
    115 CA        -1.6591  -17.4200  -57.2876 C.3       21 UNK         0.1400 
    116 CB        -0.8074  -16.1419  -57.3368 C.3       21 UNK        -0.1800 
    117 C         -3.1608  -17.0645  -57.2855 C.2       21 UNK         0.5000 
    118 O         -3.7159  -16.7910  -58.3507 O.2       21 UNK        -0.5000 
    119 N         -3.7917  -17.0903  -56.1053 N.am      22 UNK        -0.5000 
    120 CA        -5.2466  -16.9717  -55.9270 C.3       22 UNK         0.1400 
    121 C         -6.0652  -18.2281  -56.3572 C.2       22 UNK         0.5000 
    122 N         -5.4508  -19.3702  -56.6458 N.am      22 UNK        -0.7600 
    123 O         -7.2881  -18.1581  -56.4482 O.2       22 UNK        -0.5000 
    124 C124       -5.6121  -16.5050  -54.4940 C.3       23 UNK        -0.0398 
    125 S125       -4.9619  -17.5942  -53.1779 S.3       23 UNK        -0.2404 
    126 C126       -4.3246  -16.3709  -51.9936 C.3       23 UNK        -0.0205 
    127 H127       -4.6134  -13.7667  -47.7469 H         1 UNK         0.0600 
    128 H128       -4.2312  -15.4844  -47.7213 H         1 UNK         0.0600 
    129 H129       -4.0463  -14.5570  -49.2208 H         1 UNK         0.0600 
    130 H130       -1.9126  -16.1295  -48.0449 H         1 UNK         0.3000 
    131 H131        0.1066  -14.0499  -47.6139 H         1 UNK         0.0600 
    132 H132        1.7705  -15.7074  -48.0848 H         1 UNK         0.0800 
    133 H133        0.5735  -15.6897  -49.3343 H         1 UNK         0.0800 
    134 H134       -0.1018  -19.3212  -49.7944 H         1 UNK         0.0800 
    135 H135        0.2723  -17.7651  -50.4921 H         1 UNK         0.0800 
    136 H136       -1.6925  -16.9241  -51.5707 H         1 UNK         0.1150 
    137 H137       -5.5610  -17.3507  -49.7823 H         1 UNK         0.1150 
    138 H138       -2.0794  -18.9345  -47.8356 H         1 UNK         0.1150 
    139 H139       -5.8392  -18.3418  -47.6920 H         1 UNK         0.0800 
    140 H140       -4.8990  -19.7766  -47.5488 H         1 UNK         0.0800 
    141 H141       -2.9198  -19.0520  -44.1893 H         1 UNK         0.0800 
    142 H142       -2.0231  -18.4882  -45.5540 H         1 UNK         0.0800 
    143 H143       -3.0486  -20.5591  -46.8491 H         1 UNK         0.0600 
    144 H144       -0.7119  -20.4073  -45.2568 H         1 UNK         0.3000 
    145 H145        0.6763  -23.4892  -46.3712 H         1 UNK         0.0600 
    146 H146        1.3678  -20.5879  -47.0797 H         1 UNK         0.0600 
    147 H147        2.4973  -21.9406  -47.0669 H         1 UNK         0.0600 
    148 H148        1.1673  -21.9087  -48.2152 H         1 UNK         0.0600 
    149 H149        1.4490  -21.2423  -44.6696 H         1 UNK         0.3000 
    150 H150        0.3338  -22.7645  -41.6414 H         1 UNK         0.0600 
    151 H151        2.5004  -23.9457  -42.0431 H         1 UNK         0.0600 
    152 H152        2.7140  -22.5666  -40.9770 H         1 UNK         0.0600 
    153 H153        3.2082  -22.4606  -42.6673 H         1 UNK         0.0600 
    154 H154        1.8912  -20.4292  -42.1275 H         1 UNK         0.3000 
    155 H155       -0.6904  -18.2145  -43.0284 H         1 UNK         0.0600 
    156 H156       -1.0919  -18.3286  -40.5683 H         1 UNK         0.0600 
    157 H157       -0.0704  -16.9586  -40.9710 H         1 UNK         0.0600 
    158 H158        0.6408  -18.4130  -40.2736 H         1 UNK         0.0600 
    159 H159        1.9553  -17.6240  -42.2847 H         1 UNK         0.3000 
    160 H160        3.9462  -18.5347  -44.0096 H         1 UNK         0.0600 
    161 H161        4.5700  -17.5374  -46.1624 H         1 UNK         0.0600 
    162 H162        2.8965  -17.1270  -46.5048 H         1 UNK         0.0600 
    163 H163        3.3943  -18.8146  -46.4340 H         1 UNK         0.0600 
    164 H164        2.7038  -15.8213  -44.2972 H         1 UNK         0.3000 
    165 H165        3.5959  -14.7175  -41.5930 H         1 UNK         0.0600 
    166 H166        6.2953  -14.1354  -42.9082 H         1 UNK         0.0600 
    167 H167        5.5294  -13.1380  -41.6722 H         1 UNK         0.0600 
    168 H168        6.0359  -14.7733  -41.2899 H         1 UNK         0.0600 
    169 H169        2.8217  -13.1641  -42.9071 H         1 UNK         0.3000 
    170 H170        4.0525  -11.4274  -45.5739 H         1 UNK         0.0600 
    171 H171        1.3268  -12.7027  -45.9640 H         1 UNK         0.0600 
    172 H172        2.1076  -11.4645  -46.9297 H         1 UNK         0.0600 
    173 H173        2.6981  -13.1187  -46.9917 H         1 UNK         0.0600 
    174 H174        1.5312  -11.4141  -44.0833 H         1 UNK         0.3000 
    175 H175        2.8212   -9.7351  -41.2805 H         1 UNK         0.0600 
    176 H176        1.2100   -8.3711  -43.5034 H         1 UNK         0.0600 
    177 H177        1.2881   -7.8645  -41.8150 H         1 UNK         0.0600 
    178 H178        2.7193   -7.7703  -42.8275 H         1 UNK         0.0600 
    179 H179        0.1344  -10.0722  -42.0354 H         1 UNK         0.3000 
    180 H180       -0.3824  -12.6623  -39.9895 H         1 UNK         0.0600 
    181 H181       -1.7092  -11.0701  -42.2561 H         1 UNK         0.0600 
    182 H182       -1.4735  -10.5195  -40.5978 H         1 UNK         0.0600 
    183 H183       -2.5378  -11.8708  -40.9290 H         1 UNK         0.0600 
    184 H184       -0.7877  -14.4476  -41.2122 H         1 UNK         0.3000 
    185 H185       -0.2313  -15.8545  -43.2609 H         1 UNK         0.0600 
    186 H186       -2.6118  -16.6817  -43.4948 H         1 UNK         0.0600 
    187 H187       -2.3901  -15.7618  -42.0219 H         1 UNK         0.0600 
    188 H188       -3.1866  -15.0211  -43.4051 H         1 UNK         0.0600 
    189 H189       -1.9347  -15.1742  -45.5331 H         1 UNK         0.3000 
    190 H190       -2.4070  -21.6292  -43.5144 H         1 UNK         0.3000 
    191 H191       -4.9331  -22.7657  -42.9485 H         1 UNK         0.0600 
    192 H192       -2.1379  -23.5521  -41.9620 H         1 UNK         0.0600 
    193 H193       -3.1826  -22.3303  -41.2390 H         1 UNK         0.0600 
    194 H194       -3.6553  -24.0225  -41.2045 H         1 UNK         0.0600 
    195 H195       -2.2966  -23.9636  -44.9387 H         1 UNK         0.3000 
    196 H196       -3.4430  -26.6542  -45.2742 H         1 UNK         0.0600 
    197 H197       -0.9635  -26.3257  -45.0970 H         1 UNK         0.0600 
    198 H198       -0.9918  -25.3513  -46.5644 H         1 UNK         0.0600 
    199 H199       -1.4273  -27.0533  -46.6251 H         1 UNK         0.0600 
    200 H200       -4.9587  -24.2013  -46.1033 H         1 UNK         0.3000 
    201 H201       -6.3729  -23.5223  -47.6546 H         1 UNK         0.0600 
    202 H202       -7.3297  -25.1750  -49.2242 H         1 UNK         0.0600 
    203 H203       -7.0974  -25.9132  -47.6479 H         1 UNK         0.0600 
    204 H204       -5.9788  -26.2681  -48.9634 H         1 UNK         0.0600 
    205 H205       -3.9763  -22.4488  -47.9406 H         1 UNK         0.3000 
    206 H206       -2.6637  -21.2023  -49.2360 H         1 UNK         0.0600 
    207 H207       -4.9043  -20.4807  -50.2456 H         1 UNK         0.0600 
    208 H208       -4.6067  -21.6004  -51.5700 H         1 UNK         0.0600 
    209 H209       -3.5119  -20.2527  -51.2797 H         1 UNK         0.0600 
    210 H210       -1.7763  -23.5794  -48.8027 H         1 UNK         0.3000 
    211 H211       -0.4610  -25.2919  -49.3033 H         1 UNK         0.0600 
    212 H212        1.0942  -23.5035  -50.0333 H         1 UNK         0.0600 
    213 H213        1.3145  -24.9362  -51.0222 H         1 UNK         0.0600 
    214 H214        0.4379  -23.5539  -51.6663 H         1 UNK         0.0600 
    215 H215       -2.9284  -25.9298  -49.8689 H         1 UNK         0.3000 
    216 H216       -4.4146  -27.1103  -50.9892 H         1 UNK         0.0600 
    217 H217       -3.6487  -29.1259  -52.1962 H         1 UNK         0.0600 
    218 H218       -2.0194  -28.4784  -52.3280 H         1 UNK         0.0600 
    219 H219       -2.6825  -28.8943  -50.7480 H         1 UNK         0.0600 
    220 H220       -4.2588  -24.6642  -51.9377 H         1 UNK         0.3000 
    221 H221       -4.7190  -23.2197  -53.5083 H         1 UNK         0.0600 
    222 H222       -5.8519  -25.5707  -55.1100 H         1 UNK         0.0600 
    223 H223       -6.6957  -24.7234  -53.8136 H         1 UNK         0.0600 
    224 H224       -6.2817  -23.8756  -55.2931 H         1 UNK         0.0600 
    225 H225       -2.0184  -24.3866  -53.6401 H         1 UNK         0.3000 
    226 H226       -1.2470  -24.2879  -56.4695 H         1 UNK         0.0600 
    227 H227       -0.0629  -25.7902  -54.8724 H         1 UNK         0.0600 
    228 H228        1.0345  -24.6191  -55.5858 H         1 UNK         0.0600 
    229 H229        0.4675  -24.3905  -53.9379 H         1 UNK         0.0600 
    230 H230       -1.7201  -21.9989  -53.9047 H         1 UNK         0.3000 
    231 H231        0.0809  -19.9378  -54.6809 H         1 UNK         0.0600 
    232 H232       -1.3674  -18.5261  -53.2497 H         1 UNK         0.0600 
    233 H233       -1.1157  -20.0768  -52.4630 H         1 UNK         0.0600 
    234 H234       -2.6400  -19.7369  -53.2880 H         1 UNK         0.0600 
    235 H235       -0.4569  -17.8581  -55.6071 H         1 UNK         0.3000 
    236 H236       -1.4689  -17.9910  -58.1986 H         1 UNK         0.0600 
    237 H237        0.2516  -16.3758  -57.4473 H         1 UNK         0.0600 
    238 H238       -1.0892  -15.5155  -58.1843 H         1 UNK         0.0600 
    239 H239       -0.9284  -15.5440  -56.4326 H         1 UNK         0.0600 
    240 H240       -3.2670  -17.3418  -55.2810 H         1 UNK         0.3000 
    241 H241       -5.5815  -16.1793  -56.5992 H         1 UNK         0.0600 
    242 H242       -4.4418  -19.4656  -56.5709 H         1 UNK         0.3800 
    243 H243       -6.0002  -20.1652  -56.9292 H         1 UNK         0.3800 
    244 H244       -5.2268  -15.4956  -54.3447 H         1 UNK         0.0800 
    245 H245       -6.6938  -16.4224  -54.3753 H         1 UNK         0.0800 
    246 H246       -5.1383  -15.7246  -51.6612 H         1 UNK         0.0800 
    247 H247       -3.5947  -15.7272  -52.4872 H         1 UNK         0.0800 
@<TRIPOS>BOND
     1    1    2 1    
     2    1  127 1    
     3    1  128 1    
     4    1  129 1    
     5    2    3 2    
     6    2    4 am   BACKBONE|DICT|INTERRES
     7    4    5 1    
     8    4  130 1    
     9    5    6 1    
    10    5   65 1    
    11    5  131 1    
    12    6    7 1    
    13    6  132 1    
    14    6  133 1    
    15    7    8 1    
    16    8    9 1    
    17    8  134 1    
    18    8  135 1    
    19    9   10 ar   
    20    9   14 ar   
    21   10   11 ar   
    22   10  136 1    
    23   11   12 ar   
    24   11  126 1    
    25   12   13 ar   
    26   12  137 1    
    27   13   14 ar   
    28   13   15 1    
    29   14  138 1    
    30   15   16 1    
    31   15  139 1    
    32   15  140 1    
    33   16   17 1    
    34   17   18 1    
    35   17  141 1    
    36   17  142 1    
    37   18   19 1    
    38   18   67 1    
    39   18  143 1    
    40   19   20 am   BACKBONE|DICT|INTERRES
    41   19  144 1    
    42   20   21 2    
    43   20   22 1    
    44   22   23 1    
    45   22   24 1    
    46   22  145 1    
    47   23  146 1    
    48   23  147 1    
    49   23  148 1    
    50   24   25 am   BACKBONE|DICT|INTERRES
    51   24  149 1    
    52   25   26 2    
    53   25   27 1    
    54   27   28 1    
    55   27   29 1    
    56   27  150 1    
    57   28  151 1    
    58   28  152 1    
    59   28  153 1    
    60   29   30 am   BACKBONE|DICT|INTERRES
    61   29  154 1    
    62   30   31 2    
    63   30   32 1    
    64   32   33 1    
    65   32   34 1    
    66   32  155 1    
    67   33  156 1    
    68   33  157 1    
    69   33  158 1    
    70   34   35 am   BACKBONE|DICT|INTERRES
    71   34  159 1    
    72   35   36 2    
    73   35   37 1    
    74   37   38 1    
    75   37   39 1    
    76   37  160 1    
    77   38  161 1    
    78   38  162 1    
    79   38  163 1    
    80   39   40 am   BACKBONE|DICT|INTERRES
    81   39  164 1    
    82   40   41 2    
    83   40   42 1    
    84   42   43 1    
    85   42   44 1    
    86   42  165 1    
    87   43  166 1    
    88   43  167 1    
    89   43  168 1    
    90   44   45 am   BACKBONE|DICT|INTERRES
    91   44  169 1    
    92   45   46 2    
    93   45   47 1    
    94   47   48 1    
    95   47   49 1    
    96   47  170 1    
    97   48  171 1    
    98   48  172 1    
    99   48  173 1    
   100   49   50 am   BACKBONE|DICT|INTERRES
   101   49  174 1    
   102   50   51 2    
   103   50   52 1    
   104   52   53 1    
   105   52   54 1    
   106   52  175 1    
   107   53  176 1    
   108   53  177 1    
   109   53  178 1    
   110   54   55 am   BACKBONE|DICT|INTERRES
   111   54  179 1    
   112   55   56 2    
   113   55   57 1    
   114   57   58 1    
   115   57   59 1    
   116   57  180 1    
   117   58  181 1    
   118   58  182 1    
   119   58  183 1    
   120   59   60 am   BACKBONE|DICT|INTERRES
   121   59  184 1    
   122   60   61 2    
   123   60   62 1    
   124   62   63 1    
   125   62   64 1    
   126   62  185 1    
   127   63  186 1    
   128   63  187 1    
   129   63  188 1    
   130   64   65 am   BACKBONE|DICT|INTERRES
   131   64  189 1    
   132   65   66 2    
   133   67   68 2    
   134   67   69 am   BACKBONE|DICT|INTERRES
   135   69   70 1    
   136   69  190 1    
   137   70   71 1    
   138   70   72 1    
   139   70  191 1    
   140   71  192 1    
   141   71  193 1    
   142   71  194 1    
   143   72   73 2    
   144   72   74 am   BACKBONE|DICT|INTERRES
   145   74   75 1    
   146   74  195 1    
   147   75   76 1    
   148   75   77 1    
   149   75  196 1    
   150   76  197 1    
   151   76  198 1    
   152   76  199 1    
   153   77   78 2    
   154   77   79 am   BACKBONE|DICT|INTERRES
   155   79   80 1    
   156   79  200 1    
   157   80   81 1    
   158   80   82 1    
   159   80  201 1    
   160   81  202 1    
   161   81  203 1    
   162   81  204 1    
   163   82   83 2    
   164   82   84 am   BACKBONE|DICT|INTERRES
   165   84   85 1    
   166   84  205 1    
   167   85   86 1    
   168   85   87 1    
   169   85  206 1    
   170   86  207 1    
   171   86  208 1    
   172   86  209 1    
   173   87   88 2    
   174   87   89 am   BACKBONE|DICT|INTERRES
   175   89   90 1    
   176   89  210 1    
   177   90   91 1    
   178   90   92 1    
   179   90  211 1    
   180   91  212 1    
   181   91  213 1    
   182   91  214 1    
   183   92   93 2    
   184   92   94 am   BACKBONE|DICT|INTERRES
   185   94   95 1    
   186   94  215 1    
   187   95   96 1    
   188   95   97 1    
   189   95  216 1    
   190   96  217 1    
   191   96  218 1    
   192   96  219 1    
   193   97   98 2    
   194   97   99 am   BACKBONE|DICT|INTERRES
   195   99  100 1    
   196   99  220 1    
   197  100  101 1    
   198  100  102 1    
   199  100  221 1    
   200  101  222 1    
   201  101  223 1    
   202  101  224 1    
   203  102  103 2    
   204  102  104 am   BACKBONE|DICT|INTERRES
   205  104  105 1    
   206  104  225 1    
   207  105  106 1    
   208  105  107 1    
   209  105  226 1    
   210  106  227 1    
   211  106  228 1    
   212  106  229 1    
   213  107  108 2    
   214  107  109 am   BACKBONE|DICT|INTERRES
   215  109  110 1    
   216  109  230 1    
   217  110  111 1    
   218  110  112 1    
   219  110  231 1    
   220  111  232 1    
   221  111  233 1    
   222  111  234 1    
   223  112  113 2    
   224  112  114 am   BACKBONE|DICT|INTERRES
   225  114  115 1    
   226  114  235 1    
   227  115  116 1    
   228  115  117 1    
   229  115  236 1    
   230  116  237 1    
   231  116  238 1    
   232  116  239 1    
   233  117  118 2    
   234  117  119 am   BACKBONE|DICT|INTERRES
   235  119  120 1    
   236  119  240 1    
   237  120  121 1    
   238  120  124 1    
   239  120  241 1    
   240  121  122 am   BACKBONE|DICT|INTERRES
   241  121  123 2    
   242  122  242 1    
   243  122  243 1    
   244  124  125 1    
   245  124  244 1    
   246  124  245 1    
   247  125  126 1    
   248  126  246 1    
   249  126  247 1    
@<TRIPOS>SUBSTRUCTURE
     1 UNK         1 GROUP             0       ****    0 ROOT    
