@<TRIPOS>MOLECULE
3R540
247   249    1
SMALL
USER_CHARGES


@<TRIPOS>ATOM
      1 CA          1.9564  -13.0544  -45.5457 C.3       0 UNK        -0.1800 
      2 C           0.9856  -14.1273  -46.0155 C.2       0 UNK         0.5000 
      3 O           0.1357  -14.5639  -45.2408 O.2       0 UNK        -0.5000 
      4 N           1.1145  -14.5637  -47.2764 N.am      1 UNK        -0.5000 
      5 CA          0.2610  -15.5837  -47.8985 C.3       1 UNK         0.1400 
      6 C6          0.8225  -16.0247  -49.2718 C.3       23 UNK        -0.0398 
      7 S7          0.0227  -17.5130  -49.9622 S.3       23 UNK        -0.2404 
      8 C8          1.0785  -17.8139  -51.4132 C.3       23 UNK        -0.0205 
      9 C9          1.8219  -19.1381  -51.3163 C.ar      23 UNK        -0.0193 
     10 C10         1.5401  -20.1632  -52.2234 C.ar      23 UNK        -0.1150 
     11 C11         2.2309  -21.3759  -52.1645 C.ar      23 UNK        -0.0193 
     12 C12         3.2219  -21.5552  -51.1969 C.ar      23 UNK        -0.1150 
     13 C13         3.5161  -20.5393  -50.2829 C.ar      23 UNK        -0.0193 
     14 C14         2.8123  -19.3322  -50.3472 C.ar      23 UNK        -0.1150 
     15 C15         4.6209  -20.7321  -49.2539 C.3       23 UNK        -0.0205 
     16 S16         3.9808  -21.1795  -47.6097 S.3       23 UNK        -0.2404 
     17 C17         3.4139  -22.9014  -47.8606 C.3       23 UNK        -0.0398 
     18 CA          2.0695  -23.2596  -47.1780 C.3       11 UNK         0.1400 
     19 N           2.1142  -23.0864  -45.7223 N.am      11 UNK        -0.5000 
     20 C           1.9499  -24.0724  -44.8295 C.2       10 UNK         0.5000 
     21 O           1.7727  -25.2515  -45.1384 O.2       10 UNK        -0.5000 
     22 CA          1.9862  -23.6975  -43.3327 C.3       10 UNK         0.1400 
     23 CB          3.3968  -23.9126  -42.7632 C.3       10 UNK        -0.1800 
     24 N           1.5654  -22.3268  -43.0414 N.am      10 UNK        -0.5000 
     25 C           0.3453  -21.8243  -43.2721 C.2       9 UNK         0.5000 
     26 O          -0.5875  -22.4749  -43.7429 O.2       9 UNK        -0.5000 
     27 CA          0.1424  -20.3272  -42.9659 C.3       9 UNK         0.1400 
     28 CB         -0.3673  -20.1409  -41.5290 C.3       9 UNK        -0.1800 
     29 N           1.3132  -19.4637  -43.1714 N.am      9 UNK        -0.5000 
     30 C           2.1120  -19.4255  -44.2481 C.2       8 UNK         0.5000 
     31 O           2.0256  -20.2222  -45.1795 O.2       8 UNK        -0.5000 
     32 CA          3.1768  -18.3195  -44.3227 C.3       8 UNK         0.1400 
     33 CB          2.7043  -17.2192  -45.2837 C.3       8 UNK        -0.1800 
     34 N           3.4566  -17.7127  -43.0193 N.am      8 UNK        -0.5000 
     35 C           4.6285  -17.7838  -42.3731 C.2       7 UNK         0.5000 
     36 O           5.5995  -18.4184  -42.7873 O.2       7 UNK        -0.5000 
     37 CA          4.7604  -17.0017  -41.0487 C.3       7 UNK         0.1400 
     38 CB          5.4318  -15.6424  -41.2998 C.3       7 UNK        -0.1800 
     39 N           3.4860  -16.7750  -40.3663 N.am      7 UNK        -0.5000 
     40 C           2.7744  -17.7230  -39.7431 C.2       6 UNK         0.5000 
     41 O           3.1486  -18.8902  -39.6263 O.2       6 UNK        -0.5000 
     42 CA          1.3995  -17.3095  -39.1754 C.3       6 UNK         0.1400 
     43 CB          1.5228  -16.9643  -37.6835 C.3       6 UNK        -0.1800 
     44 N           0.7225  -16.2007  -39.8654 N.am      6 UNK        -0.5000 
     45 C           0.4607  -16.1380  -41.1776 C.2       5 UNK         0.5000 
     46 O           0.9191  -16.9321  -42.0005 O.2       5 UNK        -0.5000 
     47 CA         -0.4400  -14.9859  -41.6595 C.3       5 UNK         0.1400 
     48 CB          0.4041  -13.7366  -41.9515 C.3       5 UNK        -0.1800 
     49 N          -1.1683  -15.3647  -42.8718 N.am      5 UNK        -0.5000 
     50 C          -2.0966  -16.3282  -42.9257 C.2       4 UNK         0.5000 
     51 O          -2.5508  -16.8927  -41.9273 O.2       4 UNK        -0.5000 
     52 CA         -2.5893  -16.7183  -44.3342 C.3       4 UNK         0.1400 
     53 CB         -3.3765  -18.0448  -44.3423 C.3       4 UNK        -0.1800 
     54 N          -3.3669  -15.6688  -45.0016 N.am      4 UNK        -0.5000 
     55 C          -4.4266  -14.9886  -44.5304 C.2       3 UNK         0.5000 
     56 O          -4.8853  -15.1316  -43.3967 O.2       3 UNK        -0.5000 
     57 CA         -5.1478  -14.0251  -45.5035 C.3       3 UNK         0.1400 
     58 CB         -5.5469  -12.6938  -44.8314 C.3       3 UNK        -0.1800 
     59 N          -4.4402  -13.8068  -46.7723 N.am      3 UNK        -0.5000 
     60 C          -3.3076  -13.1170  -46.9598 C.2       2 UNK         0.5000 
     61 O          -2.7114  -12.4943  -46.0795 O.2       2 UNK        -0.5000 
     62 CA         -2.7111  -13.1813  -48.3760 C.3       2 UNK         0.1400 
     63 CB         -2.5545  -11.7796  -48.9852 C.3       2 UNK        -0.1800 
     64 N          -1.4126  -13.8504  -48.3619 N.am      2 UNK        -0.5000 
     65 C          -1.2088  -15.1221  -47.9878 C.2       1 UNK         0.5000 
     66 O          -2.1116  -15.8970  -47.6700 O.2       1 UNK        -0.5000 
     67 C           0.8674  -22.5133  -47.7893 C.2       11 UNK         0.5000 
     68 O           0.2544  -23.0269  -48.7249 O.2       11 UNK        -0.5000 
     69 N           0.5019  -21.3536  -47.2226 N.am      12 UNK        -0.5000 
     70 CA         -0.5979  -20.5012  -47.6778 C.3       12 UNK         0.1400 
     71 CB         -0.5999  -19.1999  -46.8674 C.3       12 UNK        -0.1800 
     72 C          -1.9809  -21.1684  -47.6045 C.2       12 UNK         0.5000 
     73 O          -2.8613  -20.8092  -48.3853 O.2       12 UNK        -0.5000 
     74 N          -2.1474  -22.1465  -46.7030 N.am      13 UNK        -0.5000 
     75 CA         -3.3511  -22.9702  -46.5851 C.3       13 UNK         0.1400 
     76 CB         -3.2274  -23.8794  -45.3544 C.3       13 UNK        -0.1800 
     77 C          -3.6433  -23.8042  -47.8484 C.2       13 UNK         0.5000 
     78 O          -4.8101  -23.9627  -48.2073 O.2       13 UNK        -0.5000 
     79 N          -2.5894  -24.2780  -48.5313 N.am      14 UNK        -0.5000 
     80 CA         -2.6940  -25.0096  -49.7979 C.3       14 UNK         0.1400 
     81 CB         -1.3835  -25.7634  -50.0685 C.3       14 UNK        -0.1800 
     82 C          -3.0598  -24.0927  -50.9812 C.2       14 UNK         0.5000 
     83 O          -3.6625  -24.5613  -51.9456 O.2       14 UNK        -0.5000 
     84 N          -2.7325  -22.7997  -50.8626 N.am      15 UNK        -0.5000 
     85 CA         -3.1108  -21.7389  -51.7945 C.3       15 UNK         0.1400 
     86 CB         -1.9681  -20.7157  -51.8647 C.3       15 UNK        -0.1800 
     87 C          -4.4375  -21.0582  -51.4082 C.2       15 UNK         0.5000 
     88 O          -4.7781  -20.0350  -52.0022 O.2       15 UNK        -0.5000 
     89 N          -5.1511  -21.6029  -50.4107 N.am      16 UNK        -0.5000 
     90 CA         -6.4255  -21.1197  -49.8715 C.3       16 UNK         0.1400 
     91 CB         -7.5547  -21.3402  -50.9003 C.3       16 UNK        -0.1800 
     92 C          -6.3486  -19.6635  -49.3645 C.2       16 UNK         0.5000 
     93 O          -7.2593  -18.8749  -49.6155 O.2       16 UNK        -0.5000 
     94 N          -5.2366  -19.3226  -48.6958 N.am      17 UNK        -0.5000 
     95 CA         -4.8884  -17.9880  -48.1949 C.3       17 UNK         0.1400 
     96 CB         -5.8810  -17.5388  -47.1049 C.3       17 UNK        -0.1800 
     97 C          -4.7132  -16.9555  -49.3299 C.2       17 UNK         0.5000 
     98 O          -5.1096  -15.7961  -49.1859 O.2       17 UNK        -0.5000 
     99 N          -4.1228  -17.4290  -50.4373 N.am      18 UNK        -0.5000 
    100 CA        -3.8500  -16.7433  -51.7039 C.3       18 UNK         0.1400 
    101 CB        -3.0226  -15.4583  -51.4986 C.3       18 UNK        -0.1800 
    102 C         -5.1008  -16.5041  -52.5748 C.2       18 UNK         0.5000 
    103 O         -5.0179  -15.7547  -53.5495 O.2       18 UNK        -0.5000 
    104 N         -6.2274  -17.1560  -52.2504 N.am      19 UNK        -0.5000 
    105 CA        -7.4304  -17.1690  -53.0880 C.3       19 UNK         0.1400 
    106 CB        -8.6497  -17.5400  -52.2315 C.3       19 UNK        -0.1800 
    107 C         -7.3018  -18.1300  -54.2877 C.2       19 UNK         0.5000 
    108 O         -8.0261  -17.9675  -55.2709 O.2       19 UNK        -0.5000 
    109 N         -6.3913  -19.1048  -54.1883 N.am      20 UNK        -0.5000 
    110 CA        -6.0552  -20.0828  -55.2148 C.3       20 UNK         0.1400 
    111 CB        -6.7220  -21.4273  -54.8566 C.3       20 UNK        -0.1800 
    112 C         -4.5204  -20.1647  -55.3389 C.2       20 UNK         0.5000 
    113 O         -3.8320  -19.1629  -55.1294 O.2       20 UNK        -0.5000 
    114 N         -4.0051  -21.3489  -55.6790 N.am      21 UNK        -0.5000 
    115 CA        -2.5863  -21.6716  -55.7707 C.3       21 UNK         0.1400 
    116 CB        -2.0811  -21.3925  -57.1965 C.3       21 UNK        -0.1800 
    117 C         -2.4041  -23.1472  -55.3891 C.2       21 UNK         0.5000 
    118 O         -3.3735  -23.9101  -55.4225 O.2       21 UNK        -0.5000 
    119 N         -1.1698  -23.5163  -55.0316 N.am      22 UNK        -0.5000 
    120 CA        -0.8017  -24.8595  -54.5468 C.3       22 UNK         0.1400 
    121 C         -0.8547  -25.9922  -55.6160 C.2       22 UNK         0.5000 
    122 N         -0.9548  -25.6917  -56.9052 N.am      22 UNK        -0.7600 
    123 O         -0.8039  -27.1684  -55.2670 O.2       22 UNK        -0.5000 
    124 C124        0.5775  -24.8604  -53.8373 C.3       23 UNK        -0.0398 
    125 S125        0.6969  -23.6476  -52.4786 S.3       23 UNK        -0.2404 
    126 C126        1.9219  -22.4863  -53.1547 C.3       23 UNK        -0.0205 
    127 H127        2.5783  -12.6846  -46.3611 H         1 UNK         0.0600 
    128 H128        2.6106  -13.4564  -44.7721 H         1 UNK         0.0600 
    129 H129        1.4076  -12.2112  -45.1263 H         1 UNK         0.0600 
    130 H130        1.8393  -14.1721  -47.8607 H         1 UNK         0.3000 
    131 H131        0.2826  -16.4475  -47.2338 H         1 UNK         0.0600 
    132 H132        0.7468  -15.2147  -49.9995 H         1 UNK         0.0800 
    133 H133        1.8862  -16.2455  -49.1705 H         1 UNK         0.0800 
    134 H134        1.8024  -17.0080  -51.5402 H         1 UNK         0.0800 
    135 H135        0.4468  -17.7921  -52.3024 H         1 UNK         0.0800 
    136 H136        0.7851  -20.0157  -52.9822 H         1 UNK         0.1150 
    137 H137        3.7667  -22.4880  -51.1612 H         1 UNK         0.1150 
    138 H138        3.0388  -18.5417  -49.6458 H         1 UNK         0.1150 
    139 H139        5.3296  -21.4923  -49.5860 H         1 UNK         0.0800 
    140 H140        5.1921  -19.8070  -49.1641 H         1 UNK         0.0800 
    141 H141        4.1941  -23.5603  -47.4777 H         1 UNK         0.0800 
    142 H142        3.3502  -23.1227  -48.9252 H         1 UNK         0.0800 
    143 H143        1.8903  -24.3119  -47.4079 H         1 UNK         0.0600 
    144 H144        2.2399  -22.1344  -45.3911 H         1 UNK         0.3000 
    145 H145        1.3011  -24.3701  -42.8126 H         1 UNK         0.0600 
    146 H146        3.4193  -23.7402  -41.6870 H         1 UNK         0.0600 
    147 H147        3.7362  -24.9351  -42.9341 H         1 UNK         0.0600 
    148 H148        4.1230  -23.2437  -43.2270 H         1 UNK         0.0600 
    149 H149        2.2697  -21.7047  -42.6731 H         1 UNK         0.3000 
    150 H150       -0.6365  -19.9711  -43.6392 H         1 UNK         0.0600 
    151 H151       -1.2300  -20.7785  -41.3311 H         1 UNK         0.0600 
    152 H152       -0.6829  -19.1126  -41.3529 H         1 UNK         0.0600 
    153 H153        0.4016  -20.3878  -40.7958 H         1 UNK         0.0600 
    154 H154        1.4035  -18.7008  -42.5089 H         1 UNK         0.3000 
    155 H155        4.0785  -18.7710  -44.7414 H         1 UNK         0.0600 
    156 H156        2.5448  -17.6157  -46.2873 H         1 UNK         0.0600 
    157 H157        3.4394  -16.4185  -45.3638 H         1 UNK         0.0600 
    158 H158        1.7638  -16.7816  -44.9476 H         1 UNK         0.0600 
    159 H159        2.6866  -17.2071  -42.5901 H         1 UNK         0.3000 
    160 H160        5.4052  -17.5830  -40.3863 H         1 UNK         0.0600 
    161 H161        5.6020  -15.1073  -40.3654 H         1 UNK         0.0600 
    162 H162        6.4023  -15.7686  -41.7817 H         1 UNK         0.0600 
    163 H163        4.8246  -15.0072  -41.9462 H         1 UNK         0.0600 
    164 H164        3.0991  -15.8444  -40.4187 H         1 UNK         0.3000 
    165 H165        0.7485  -18.1811  -39.2661 H         1 UNK         0.0600 
    166 H166        0.5440  -16.7966  -37.2338 H         1 UNK         0.0600 
    167 H167        1.9963  -17.7767  -37.1303 H         1 UNK         0.0600 
    168 H168        2.1235  -16.0673  -37.5278 H         1 UNK         0.0600 
    169 H169        0.3337  -15.4869  -39.2660 H         1 UNK         0.3000 
    170 H170       -1.1679  -14.7517  -40.8802 H         1 UNK         0.0600 
    171 H171        0.9002  -13.3783  -41.0488 H         1 UNK         0.0600 
    172 H172        1.1784  -13.9408  -42.6918 H         1 UNK         0.0600 
    173 H173       -0.2132  -12.9215  -42.3298 H         1 UNK         0.0600 
    174 H174       -0.8022  -14.9927  -43.7473 H         1 UNK         0.3000 
    175 H175       -1.6942  -16.8700  -44.9399 H         1 UNK         0.0600 
    176 H176       -3.5686  -18.3817  -45.3599 H         1 UNK         0.0600 
    177 H177       -2.8173  -18.8371  -43.8439 H         1 UNK         0.0600 
    178 H178       -4.3353  -17.9497  -43.8318 H         1 UNK         0.0600 
    179 H179       -3.0682  -15.4739  -45.9518 H         1 UNK         0.3000 
    180 H180       -6.0780  -14.5247  -45.7760 H         1 UNK         0.0600 
    181 H181       -4.6863  -12.1733  -44.4111 H         1 UNK         0.0600 
    182 H182       -6.2478  -12.8661  -44.0140 H         1 UNK         0.0600 
    183 H183       -6.0352  -12.0234  -45.5387 H         1 UNK         0.0600 
    184 H184       -4.8092  -14.3244  -47.5639 H         1 UNK         0.3000 
    185 H185       -3.3812  -13.7549  -49.0160 H         1 UNK         0.0600 
    186 H186       -3.5123  -11.2587  -49.0125 H         1 UNK         0.0600 
    187 H187       -1.8618  -11.1639  -48.4099 H         1 UNK         0.0600 
    188 H188       -2.1852  -11.8342  -50.0095 H         1 UNK         0.0600 
    189 H189       -0.6080  -13.2692  -48.5424 H         1 UNK         0.3000 
    190 H190        1.0755  -20.9754  -46.4712 H         1 UNK         0.3000 
    191 H191       -0.4065  -20.2568  -48.7244 H         1 UNK         0.0600 
    192 H192        0.3701  -18.7085  -46.9248 H         1 UNK         0.0600 
    193 H193       -0.8253  -19.3775  -45.8176 H         1 UNK         0.0600 
    194 H194       -1.3466  -18.5034  -47.2501 H         1 UNK         0.0600 
    195 H195       -1.3844  -22.3630  -46.0753 H         1 UNK         0.3000 
    196 H196       -4.1993  -22.2999  -46.4306 H         1 UNK         0.0600 
    197 H197       -4.1048  -24.5188  -45.2486 H         1 UNK         0.0600 
    198 H198       -3.1434  -23.2924  -44.4397 H         1 UNK         0.0600 
    199 H199       -2.3520  -24.5270  -45.4181 H         1 UNK         0.0600 
    200 H200       -1.6534  -24.0480  -48.2203 H         1 UNK         0.3000 
    201 H201       -3.4907  -25.7504  -49.7014 H         1 UNK         0.0600 
    202 H202       -1.1633  -26.4714  -49.2696 H         1 UNK         0.0600 
    203 H203       -0.5368  -25.0836  -50.1555 H         1 UNK         0.0600 
    204 H204       -1.4433  -26.3293  -50.9991 H         1 UNK         0.0600 
    205 H205       -2.2471  -22.5039  -50.0267 H         1 UNK         0.3000 
    206 H206       -3.2505  -22.1610  -52.7896 H         1 UNK         0.0600 
    207 H207       -1.0385  -21.2060  -52.1456 H         1 UNK         0.0600 
    208 H208       -2.1681  -19.9459  -52.6111 H         1 UNK         0.0600 
    209 H209       -1.8082  -20.2159  -50.9087 H         1 UNK         0.0600 
    210 H210       -4.7736  -22.4232  -49.9556 H         1 UNK         0.3000 
    211 H211       -6.6453  -21.7355  -48.9984 H         1 UNK         0.0600 
    212 H212       -7.4141  -20.7313  -51.7936 H         1 UNK         0.0600 
    213 H213       -8.5267  -21.0829  -50.4781 H         1 UNK         0.0600 
    214 H214       -7.6035  -22.3832  -51.2128 H         1 UNK         0.0600 
    215 H215       -4.5046  -20.0231  -48.5877 H         1 UNK         0.3000 
    216 H216       -3.9074  -18.0864  -47.7287 H         1 UNK         0.0600 
    217 H217       -5.5299  -16.6311  -46.6241 H         1 UNK         0.0600 
    218 H218       -5.9875  -18.2961  -46.3284 H         1 UNK         0.0600 
    219 H219       -6.8707  -17.3289  -47.5110 H         1 UNK         0.0600 
    220 H220       -3.8951  -18.4138  -50.4431 H         1 UNK         0.3000 
    221 H221       -3.2284  -17.4377  -52.2714 H         1 UNK         0.0600 
    222 H222       -3.6355  -14.6458  -51.1106 H         1 UNK         0.0600 
    223 H223       -2.1947  -15.6210  -50.8104 H         1 UNK         0.0600 
    224 H224       -2.5967  -15.1166  -52.4423 H         1 UNK         0.0600 
    225 H225       -6.2320  -17.7534  -51.4336 H         1 UNK         0.3000 
    226 H226       -7.5934  -16.1640  -53.4826 H         1 UNK         0.0600 
    227 H227       -9.5719  -17.4377  -52.8046 H         1 UNK         0.0600 
    228 H228       -8.5983  -18.5710  -51.8822 H         1 UNK         0.0600 
    229 H229       -8.7342  -16.8925  -51.3585 H         1 UNK         0.0600 
    230 H230       -5.8091  -19.1541  -53.3555 H         1 UNK         0.3000 
    231 H231       -6.4299  -19.7523  -56.1853 H         1 UNK         0.0600 
    232 H232       -7.7936  -21.3022  -54.6994 H         1 UNK         0.0600 
    233 H233       -6.3028  -21.8541  -53.9443 H         1 UNK         0.0600 
    234 H234       -6.6034  -22.1593  -55.6560 H         1 UNK         0.0600 
    235 H235       -4.6132  -22.1528  -55.7778 H         1 UNK         0.3000 
    236 H236       -2.0244  -21.0647  -55.0572 H         1 UNK         0.0600 
    237 H237       -1.0192  -21.6226  -57.2907 H         1 UNK         0.0600 
    238 H238       -2.6157  -21.9904  -57.9357 H         1 UNK         0.0600 
    239 H239       -2.2087  -20.3426  -57.4606 H         1 UNK         0.0600 
    240 H240       -0.4268  -22.8346  -55.0422 H         1 UNK         0.3000 
    241 H241       -1.5465  -25.1333  -53.7967 H         1 UNK         0.0600 
    242 H242       -0.9915  -26.4339  -57.5865 H         1 UNK         0.3800 
    243 H243       -1.0044  -24.7322  -57.2065 H         1 UNK         0.3800 
    244 H244        0.7783  -25.8428  -53.4061 H         1 UNK         0.0800 
    245 H245        1.3755  -24.6828  -54.5602 H         1 UNK         0.0800 
    246 H246        2.8379  -23.0261  -53.4002 H         1 UNK         0.0800 
    247 H247        1.5512  -22.0640  -54.0895 H         1 UNK         0.0800 
@<TRIPOS>BOND
     1    1    2 1    
     2    1  127 1    
     3    1  128 1    
     4    1  129 1    
     5    2    3 2    
     6    2    4 am   BACKBONE|DICT|INTERRES
     7    4    5 1    
     8    4  130 1    
     9    5    6 1    
    10    5   65 1    
    11    5  131 1    
    12    6    7 1    
    13    6  132 1    
    14    6  133 1    
    15    7    8 1    
    16    8    9 1    
    17    8  134 1    
    18    8  135 1    
    19    9   10 ar   
    20    9   14 ar   
    21   10   11 ar   
    22   10  136 1    
    23   11   12 ar   
    24   11  126 1    
    25   12   13 ar   
    26   12  137 1    
    27   13   14 ar   
    28   13   15 1    
    29   14  138 1    
    30   15   16 1    
    31   15  139 1    
    32   15  140 1    
    33   16   17 1    
    34   17   18 1    
    35   17  141 1    
    36   17  142 1    
    37   18   19 1    
    38   18   67 1    
    39   18  143 1    
    40   19   20 am   BACKBONE|DICT|INTERRES
    41   19  144 1    
    42   20   21 2    
    43   20   22 1    
    44   22   23 1    
    45   22   24 1    
    46   22  145 1    
    47   23  146 1    
    48   23  147 1    
    49   23  148 1    
    50   24   25 am   BACKBONE|DICT|INTERRES
    51   24  149 1    
    52   25   26 2    
    53   25   27 1    
    54   27   28 1    
    55   27   29 1    
    56   27  150 1    
    57   28  151 1    
    58   28  152 1    
    59   28  153 1    
    60   29   30 am   BACKBONE|DICT|INTERRES
    61   29  154 1    
    62   30   31 2    
    63   30   32 1    
    64   32   33 1    
    65   32   34 1    
    66   32  155 1    
    67   33  156 1    
    68   33  157 1    
    69   33  158 1    
    70   34   35 am   BACKBONE|DICT|INTERRES
    71   34  159 1    
    72   35   36 2    
    73   35   37 1    
    74   37   38 1    
    75   37   39 1    
    76   37  160 1    
    77   38  161 1    
    78   38  162 1    
    79   38  163 1    
    80   39   40 am   BACKBONE|DICT|INTERRES
    81   39  164 1    
    82   40   41 2    
    83   40   42 1    
    84   42   43 1    
    85   42   44 1    
    86   42  165 1    
    87   43  166 1    
    88   43  167 1    
    89   43  168 1    
    90   44   45 am   BACKBONE|DICT|INTERRES
    91   44  169 1    
    92   45   46 2    
    93   45   47 1    
    94   47   48 1    
    95   47   49 1    
    96   47  170 1    
    97   48  171 1    
    98   48  172 1    
    99   48  173 1    
   100   49   50 am   BACKBONE|DICT|INTERRES
   101   49  174 1    
   102   50   51 2    
   103   50   52 1    
   104   52   53 1    
   105   52   54 1    
   106   52  175 1    
   107   53  176 1    
   108   53  177 1    
   109   53  178 1    
   110   54   55 am   BACKBONE|DICT|INTERRES
   111   54  179 1    
   112   55   56 2    
   113   55   57 1    
   114   57   58 1    
   115   57   59 1    
   116   57  180 1    
   117   58  181 1    
   118   58  182 1    
   119   58  183 1    
   120   59   60 am   BACKBONE|DICT|INTERRES
   121   59  184 1    
   122   60   61 2    
   123   60   62 1    
   124   62   63 1    
   125   62   64 1    
   126   62  185 1    
   127   63  186 1    
   128   63  187 1    
   129   63  188 1    
   130   64   65 am   BACKBONE|DICT|INTERRES
   131   64  189 1    
   132   65   66 2    
   133   67   68 2    
   134   67   69 am   BACKBONE|DICT|INTERRES
   135   69   70 1    
   136   69  190 1    
   137   70   71 1    
   138   70   72 1    
   139   70  191 1    
   140   71  192 1    
   141   71  193 1    
   142   71  194 1    
   143   72   73 2    
   144   72   74 am   BACKBONE|DICT|INTERRES
   145   74   75 1    
   146   74  195 1    
   147   75   76 1    
   148   75   77 1    
   149   75  196 1    
   150   76  197 1    
   151   76  198 1    
   152   76  199 1    
   153   77   78 2    
   154   77   79 am   BACKBONE|DICT|INTERRES
   155   79   80 1    
   156   79  200 1    
   157   80   81 1    
   158   80   82 1    
   159   80  201 1    
   160   81  202 1    
   161   81  203 1    
   162   81  204 1    
   163   82   83 2    
   164   82   84 am   BACKBONE|DICT|INTERRES
   165   84   85 1    
   166   84  205 1    
   167   85   86 1    
   168   85   87 1    
   169   85  206 1    
   170   86  207 1    
   171   86  208 1    
   172   86  209 1    
   173   87   88 2    
   174   87   89 am   BACKBONE|DICT|INTERRES
   175   89   90 1    
   176   89  210 1    
   177   90   91 1    
   178   90   92 1    
   179   90  211 1    
   180   91  212 1    
   181   91  213 1    
   182   91  214 1    
   183   92   93 2    
   184   92   94 am   BACKBONE|DICT|INTERRES
   185   94   95 1    
   186   94  215 1    
   187   95   96 1    
   188   95   97 1    
   189   95  216 1    
   190   96  217 1    
   191   96  218 1    
   192   96  219 1    
   193   97   98 2    
   194   97   99 am   BACKBONE|DICT|INTERRES
   195   99  100 1    
   196   99  220 1    
   197  100  101 1    
   198  100  102 1    
   199  100  221 1    
   200  101  222 1    
   201  101  223 1    
   202  101  224 1    
   203  102  103 2    
   204  102  104 am   BACKBONE|DICT|INTERRES
   205  104  105 1    
   206  104  225 1    
   207  105  106 1    
   208  105  107 1    
   209  105  226 1    
   210  106  227 1    
   211  106  228 1    
   212  106  229 1    
   213  107  108 2    
   214  107  109 am   BACKBONE|DICT|INTERRES
   215  109  110 1    
   216  109  230 1    
   217  110  111 1    
   218  110  112 1    
   219  110  231 1    
   220  111  232 1    
   221  111  233 1    
   222  111  234 1    
   223  112  113 2    
   224  112  114 am   BACKBONE|DICT|INTERRES
   225  114  115 1    
   226  114  235 1    
   227  115  116 1    
   228  115  117 1    
   229  115  236 1    
   230  116  237 1    
   231  116  238 1    
   232  116  239 1    
   233  117  118 2    
   234  117  119 am   BACKBONE|DICT|INTERRES
   235  119  120 1    
   236  119  240 1    
   237  120  121 1    
   238  120  124 1    
   239  120  241 1    
   240  121  122 am   BACKBONE|DICT|INTERRES
   241  121  123 2    
   242  122  242 1    
   243  122  243 1    
   244  124  125 1    
   245  124  244 1    
   246  124  245 1    
   247  125  126 1    
   248  126  246 1    
   249  126  247 1    
@<TRIPOS>SUBSTRUCTURE
     1 UNK         1 GROUP             0       ****    0 ROOT    
