@<TRIPOS>MOLECULE
3R540
247   249    1
SMALL
USER_CHARGES


@<TRIPOS>ATOM
      1 CA          6.4170  -11.1340  -44.6052 C.3       0 UNK        -0.1800 
      2 C           5.1854  -11.8973  -45.0655 C.2       0 UNK         0.5000 
      3 O           4.0856  -11.6426  -44.5749 O.2       0 UNK        -0.5000 
      4 N           5.3531  -12.8282  -46.0141 N.am      1 UNK        -0.5000 
      5 CA          4.2842  -13.6786  -46.5563 C.3       1 UNK         0.1400 
      6 C6          4.8550  -14.8246  -47.4283 C.3       23 UNK        -0.0398 
      7 S7          3.8391  -16.3363  -47.3431 S.3       23 UNK        -0.2404 
      8 C8          3.3910  -16.5625  -49.0916 C.3       23 UNK        -0.0205 
      9 C9          2.5946  -17.8417  -49.3014 C.ar      23 UNK        -0.0193 
     10 C10         1.2767  -17.7919  -49.7677 C.ar      23 UNK        -0.1150 
     11 C11         0.5524  -18.9711  -49.9693 C.ar      23 UNK        -0.0193 
     12 C12         1.1461  -20.2020  -49.6805 C.ar      23 UNK        -0.1150 
     13 C13         2.4609  -20.2647  -49.2137 C.ar      23 UNK        -0.0193 
     14 C14         3.1851  -19.0826  -49.0416 C.ar      23 UNK        -0.1150 
     15 C15         3.0850  -21.6108  -48.8760 C.3       23 UNK        -0.0205 
     16 S16         3.4761  -21.7975  -47.1018 S.3       23 UNK        -0.2404 
     17 C17         1.9786  -21.1807  -46.2550 C.3       23 UNK        -0.0398 
     18 CA          0.9521  -22.2839  -45.9083 C.3       11 UNK         0.1400 
     19 N           0.1837  -21.9216  -44.7119 N.am      11 UNK        -0.5000 
     20 C          -0.7178  -22.6945  -44.0891 C.2       10 UNK         0.5000 
     21 O          -1.0033  -23.8381  -44.4437 O.2       10 UNK        -0.5000 
     22 CA         -1.4564  -22.0551  -42.9022 C.3       10 UNK         0.1400 
     23 CB         -0.5932  -22.0927  -41.6314 C.3       10 UNK        -0.1800 
     24 N          -1.8240  -20.6725  -43.2111 N.am      10 UNK        -0.5000 
     25 C          -2.9221  -20.3256  -43.8980 C.2       9 UNK         0.5000 
     26 O          -3.7910  -21.1268  -44.2415 O.2       9 UNK        -0.5000 
     27 CA         -3.0771  -18.8401  -44.2824 C.3       9 UNK         0.1400 
     28 CB         -3.9059  -18.0950  -43.2253 C.3       9 UNK        -0.1800 
     29 N          -1.8024  -18.1434  -44.4650 N.am      9 UNK        -0.5000 
     30 C          -0.9250  -18.3948  -45.4472 C.2       8 UNK         0.5000 
     31 O          -1.1034  -19.2392  -46.3212 O.2       8 UNK        -0.5000 
     32 CA          0.3996  -17.6091  -45.4129 C.3       8 UNK         0.1400 
     33 CB          0.2487  -16.2928  -46.1875 C.3       8 UNK        -0.1800 
     34 N           0.8839  -17.3323  -44.0551 N.am      8 UNK        -0.5000 
     35 C           1.1344  -18.2608  -43.1198 C.2       7 UNK         0.5000 
     36 O           0.9643  -19.4690  -43.2979 O.2       7 UNK        -0.5000 
     37 CA          1.6237  -17.7284  -41.7604 C.3       7 UNK         0.1400 
     38 CB          1.9506  -18.8447  -40.7459 C.3       7 UNK        -0.1800 
     39 N           2.7362  -16.7849  -41.9079 N.am      7 UNK        -0.5000 
     40 C           3.9828  -17.0425  -42.3378 C.2       6 UNK         0.5000 
     41 O           4.3749  -18.1654  -42.6559 O.2       6 UNK        -0.5000 
     42 CA          4.9626  -15.8498  -42.4444 C.3       6 UNK         0.1400 
     43 CB          5.7142  -15.8629  -43.7855 C.3       6 UNK        -0.1800 
     44 N           4.3026  -14.5512  -42.2931 N.am      6 UNK        -0.5000 
     45 C           4.0233  -13.9502  -41.1288 C.2       5 UNK         0.5000 
     46 O           4.3682  -14.3889  -40.0318 O.2       5 UNK        -0.5000 
     47 CA          3.1711  -12.6690  -41.2037 C.3       5 UNK         0.1400 
     48 CB          4.0555  -11.4176  -41.0998 C.3       5 UNK        -0.1800 
     49 N           2.3639  -12.5857  -42.4244 N.am      5 UNK        -0.5000 
     50 C           1.3042  -13.3568  -42.7077 C.2       4 UNK         0.5000 
     51 O           0.9350  -14.2820  -41.9829 O.2       4 UNK        -0.5000 
     52 CA          0.5722  -13.1061  -44.0438 C.3       4 UNK         0.1400 
     53 CB         -0.9572  -13.2555  -43.9169 C.3       4 UNK        -0.1800 
     54 N           0.9351  -11.8509  -44.7091 N.am      4 UNK        -0.5000 
     55 C           0.7159  -10.5922  -44.2964 C.2       3 UNK         0.5000 
     56 O           0.0794  -10.3064  -43.2819 O.2       3 UNK        -0.5000 
     57 CA          1.3470   -9.4597  -45.1344 C.3       3 UNK         0.1400 
     58 CB          2.2705   -8.5909  -44.2629 C.3       3 UNK        -0.1800 
     59 N           2.1327   -9.9806  -46.2555 N.am      3 UNK        -0.5000 
     60 C           1.7093  -10.0774  -47.5232 C.2       2 UNK         0.5000 
     61 O           0.6182   -9.6616  -47.9135 O.2       2 UNK        -0.5000 
     62 CA          2.6547  -10.7779  -48.5231 C.3       2 UNK         0.1400 
     63 CB          3.4805   -9.7398  -49.2978 C.3       2 UNK        -0.1800 
     64 N           3.5675  -11.7380  -47.8939 N.am      2 UNK        -0.5000 
     65 C           3.1888  -12.8755  -47.2923 C.2       1 UNK         0.5000 
     66 O           2.0194  -13.2535  -47.2369 O.2       1 UNK        -0.5000 
     67 C           0.0465  -22.6234  -47.1155 C.2       11 UNK         0.5000 
     68 O           0.3700  -23.5262  -47.8881 O.2       11 UNK        -0.5000 
     69 N          -1.1104  -21.9492  -47.2123 N.am      12 UNK        -0.5000 
     70 CA         -2.1785  -22.1621  -48.1933 C.3       12 UNK         0.1400 
     71 CB         -3.3061  -21.1503  -47.9464 C.3       12 UNK        -0.1800 
     72 C          -2.7572  -23.5892  -48.2465 C.2       12 UNK         0.5000 
     73 O          -3.4414  -23.9112  -49.2187 O.2       12 UNK        -0.5000 
     74 N          -2.4469  -24.4446  -47.2605 N.am      13 UNK        -0.5000 
     75 CA         -2.6700  -25.8928  -47.3030 C.3       13 UNK         0.1400 
     76 CB         -2.1859  -26.5205  -45.9891 C.3       13 UNK        -0.1800 
     77 C          -1.9911  -26.5769  -48.5100 C.2       13 UNK         0.5000 
     78 O          -2.5314  -27.5530  -49.0300 O.2       13 UNK        -0.5000 
     79 N          -0.8691  -26.0120  -48.9855 N.am      14 UNK        -0.5000 
     80 CA         -0.1851  -26.4077  -50.2210 C.3       14 UNK         0.1400 
     81 CB          1.1746  -25.6955  -50.2880 C.3       14 UNK        -0.1800 
     82 C          -1.0039  -26.1181  -51.4984 C.2       14 UNK         0.5000 
     83 O          -0.7772  -26.7655  -52.5205 O.2       14 UNK        -0.5000 
     84 N          -1.9529  -25.1766  -51.4100 N.am      15 UNK        -0.5000 
     85 CA         -2.9235  -24.8245  -52.4464 C.3       15 UNK         0.1400 
     86 CB         -2.9459  -23.2918  -52.5993 C.3       15 UNK        -0.1800 
     87 C          -4.3202  -25.3890  -52.1081 C.2       15 UNK         0.5000 
     88 O          -5.3240  -24.8356  -52.5590 O.2       15 UNK        -0.5000 
     89 N          -4.3633  -26.4591  -51.2968 N.am      16 UNK        -0.5000 
     90 CA         -5.5520  -27.1741  -50.8188 C.3       16 UNK         0.1400 
     91 CB         -6.2391  -27.9233  -51.9785 C.3       16 UNK        -0.1800 
     92 C          -6.5119  -26.2775  -50.0082 C.2       16 UNK         0.5000 
     93 O          -7.7288  -26.3549  -50.1803 O.2       16 UNK        -0.5000 
     94 N          -5.9249  -25.4398  -49.1409 N.am      17 UNK        -0.5000 
     95 CA         -6.5654  -24.4096  -48.3168 C.3       17 UNK         0.1400 
     96 CB         -7.6010  -25.0122  -47.3439 C.3       17 UNK        -0.1800 
     97 C          -7.1141  -23.2589  -49.1823 C.2       17 UNK         0.5000 
     98 O          -8.2442  -22.8119  -48.9793 O.2       17 UNK        -0.5000 
     99 N          -6.2796  -22.8127  -50.1343 N.am      18 UNK        -0.5000 
    100 CA        -6.5360  -21.7649  -51.1278 C.3       18 UNK         0.1400 
    101 CB        -6.6312  -20.3809  -50.4496 C.3       18 UNK        -0.1800 
    102 C         -7.7525  -22.0844  -52.0231 C.2       18 UNK         0.5000 
    103 O         -8.6894  -21.2873  -52.1177 O.2       18 UNK        -0.5000 
    104 N         -7.7286  -23.2668  -52.6518 N.am      19 UNK        -0.5000 
    105 CA        -8.7826  -23.7854  -53.5245 C.3       19 UNK         0.1400 
    106 CB        -8.6109  -25.3073  -53.6603 C.3       19 UNK        -0.1800 
    107 C         -8.7922  -23.0750  -54.8933 C.2       19 UNK         0.5000 
    108 O         -8.3191  -23.6343  -55.8845 O.2       19 UNK        -0.5000 
    109 N         -9.3127  -21.8394  -54.9061 N.am      20 UNK        -0.5000 
    110 CA        -9.4088  -20.9215  -56.0499 C.3       20 UNK         0.1400 
    111 CB       -10.3595  -21.4805  -57.1296 C.3       20 UNK        -0.1800 
    112 C         -8.0293  -20.5105  -56.6108 C.2       20 UNK         0.5000 
    113 O         -7.8849  -20.2820  -57.8134 O.2       20 UNK        -0.5000 
    114 N         -7.0406  -20.4188  -55.7172 N.am      21 UNK        -0.5000 
    115 CA        -5.6540  -20.0621  -55.9816 C.3       21 UNK         0.1400 
    116 CB        -4.8951  -21.2887  -56.5206 C.3       21 UNK        -0.1800 
    117 C         -5.0365  -19.5713  -54.6661 C.2       21 UNK         0.5000 
    118 O         -5.5807  -19.8542  -53.5968 O.2       21 UNK        -0.5000 
    119 N         -3.9026  -18.8687  -54.7624 N.am      22 UNK        -0.5000 
    120 CA        -3.1241  -18.3407  -53.6255 C.3       22 UNK         0.1400 
    121 C         -3.7755  -17.1348  -52.8782 C.2       22 UNK         0.5000 
    122 N         -4.8025  -16.4952  -53.4246 N.am      22 UNK        -0.7600 
    123 O         -3.3293  -16.7482  -51.8020 O.2       22 UNK        -0.5000 
    124 C124       -2.6360  -19.4671  -52.6621 C.3       23 UNK        -0.0398 
    125 S125       -0.8558  -19.3522  -52.2907 S.3       23 UNK        -0.2404 
    126 C126       -0.8621  -18.9304  -50.5219 C.3       23 UNK        -0.0205 
    127 H127        6.6539  -11.3941  -43.5738 H         1 UNK         0.0600 
    128 H128        6.2322  -10.0610  -44.6544 H         1 UNK         0.0600 
    129 H129        7.2866  -11.3589  -45.2229 H         1 UNK         0.0600 
    130 H130        6.2785  -12.9866  -46.3876 H         1 UNK         0.3000 
    131 H131        3.7961  -14.1244  -45.6870 H         1 UNK         0.0600 
    132 H132        5.0018  -14.5087  -48.4629 H         1 UNK         0.0800 
    133 H133        5.8444  -15.1115  -47.0689 H         1 UNK         0.0800 
    134 H134        2.8251  -15.6927  -49.4296 H         1 UNK         0.0800 
    135 H135        4.2967  -16.6053  -49.6981 H         1 UNK         0.0800 
    136 H136        0.8180  -16.8378  -49.9862 H         1 UNK         0.1150 
    137 H137        0.5831  -21.1128  -49.8290 H         1 UNK         0.1150 
    138 H138        4.2025  -19.1268  -48.6784 H         1 UNK         0.1150 
    139 H139        2.4305  -22.4279  -49.1818 H         1 UNK         0.0800 
    140 H140        4.0033  -21.7309  -49.4520 H         1 UNK         0.0800 
    141 H141        1.5119  -20.3626  -46.8021 H         1 UNK         0.0800 
    142 H142        2.3453  -20.7237  -45.3346 H         1 UNK         0.0800 
    143 H143        1.4972  -23.1944  -45.6510 H         1 UNK         0.0600 
    144 H144        0.3780  -21.0067  -44.3155 H         1 UNK         0.3000 
    145 H145       -2.3601  -22.6377  -42.7104 H         1 UNK         0.0600 
    146 H146       -1.1146  -21.6412  -40.7873 H         1 UNK         0.0600 
    147 H147       -0.3562  -23.1208  -41.3552 H         1 UNK         0.0600 
    148 H148        0.3517  -21.5653  -41.7626 H         1 UNK         0.0600 
    149 H149       -1.1288  -19.9661  -43.0095 H         1 UNK         0.3000 
    150 H150       -3.6184  -18.8029  -45.2303 H         1 UNK         0.0600 
    151 H151       -4.8767  -18.5718  -43.0829 H         1 UNK         0.0600 
    152 H152       -4.0931  -17.0638  -43.5252 H         1 UNK         0.0600 
    153 H153       -3.4031  -18.0785  -42.2575 H         1 UNK         0.0600 
    154 H154       -1.5712  -17.4350  -43.7848 H         1 UNK         0.3000 
    155 H155        1.1600  -18.2098  -45.9144 H         1 UNK         0.0600 
    156 H156       -0.0341  -16.4834  -47.2237 H         1 UNK         0.0600 
    157 H157        1.1841  -15.7359  -46.2101 H         1 UNK         0.0600 
    158 H158       -0.5177  -15.6513  -45.7522 H         1 UNK         0.0600 
    159 H159        1.0463  -16.3658  -43.8180 H         1 UNK         0.3000 
    160 H160        0.7950  -17.1522  -41.3462 H         1 UNK         0.0600 
    161 H161        2.7149  -19.5272  -41.1183 H         1 UNK         0.0600 
    162 H162        1.0639  -19.4406  -40.5275 H         1 UNK         0.0600 
    163 H163        2.3020  -18.4291  -39.8016 H         1 UNK         0.0600 
    164 H164        2.5045  -15.8235  -41.6919 H         1 UNK         0.3000 
    165 H165        5.6994  -15.9672  -41.6472 H         1 UNK         0.0600 
    166 H166        6.3638  -14.9935  -43.8890 H         1 UNK         0.0600 
    167 H167        6.3438  -16.7491  -43.8731 H         1 UNK         0.0600 
    168 H168        5.0233  -15.8728  -44.6265 H         1 UNK         0.0600 
    169 H169        3.9803  -14.1042  -43.1383 H         1 UNK         0.3000 
    170 H170        2.4904  -12.6773  -40.3499 H         1 UNK         0.0600 
    171 H171        4.7677  -11.3570  -41.9224 H         1 UNK         0.0600 
    172 H172        3.4546  -10.5080  -41.1099 H         1 UNK         0.0600 
    173 H173        4.6273  -11.4196  -40.1710 H         1 UNK         0.0600 
    174 H174        2.6746  -11.9185  -43.1226 H         1 UNK         0.3000 
    175 H175        0.9215  -13.8919  -44.7117 H         1 UNK         0.0600 
    176 H176       -1.4481  -13.1041  -44.8783 H         1 UNK         0.0600 
    177 H177       -1.3778  -12.5421  -43.2081 H         1 UNK         0.0600 
    178 H178       -1.2274  -14.2538  -43.5709 H         1 UNK         0.0600 
    179 H179        1.4506  -11.9693  -45.5721 H         1 UNK         0.3000 
    180 H180        0.5328   -8.8317  -45.5012 H         1 UNK         0.0600 
    181 H181        2.7139   -7.7823  -44.8441 H         1 UNK         0.0600 
    182 H182        3.0824   -9.1751  -43.8279 H         1 UNK         0.0600 
    183 H183        1.7195   -8.1326  -43.4407 H         1 UNK         0.0600 
    184 H184        3.0305  -10.3786  -46.0090 H         1 UNK         0.3000 
    185 H185        2.0322  -11.3224  -49.2363 H         1 UNK         0.0600 
    186 H186        2.8321   -9.0232  -49.8037 H         1 UNK         0.0600 
    187 H187        4.1402   -9.1759  -48.6370 H         1 UNK         0.0600 
    188 H188        4.0955  -10.2150  -50.0623 H         1 UNK         0.0600 
    189 H189        4.5455  -11.4875  -47.8753 H         1 UNK         0.3000 
    190 H190       -1.2444  -21.1589  -46.5885 H         1 UNK         0.3000 
    191 H191       -1.7532  -21.9654  -49.1787 H         1 UNK         0.0600 
    192 H192       -4.1109  -21.2789  -48.6696 H         1 UNK         0.0600 
    193 H193       -3.7385  -21.2672  -46.9528 H         1 UNK         0.0600 
    194 H194       -2.9509  -20.1245  -48.0402 H         1 UNK         0.0600 
    195 H195       -1.8956  -24.1027  -46.4823 H         1 UNK         0.3000 
    196 H196       -3.7446  -26.0632  -47.3844 H         1 UNK         0.0600 
    197 H197       -2.3618  -27.5970  -45.9805 H         1 UNK         0.0600 
    198 H198       -2.7127  -26.0981  -45.1332 H         1 UNK         0.0600 
    199 H199       -1.1178  -26.3592  -45.8373 H         1 UNK         0.0600 
    200 H200       -0.4879  -25.2001  -48.5068 H         1 UNK         0.3000 
    201 H201       -0.0082  -27.4843  -50.1787 H         1 UNK         0.0600 
    202 H202        1.7815  -25.9179  -49.4101 H         1 UNK         0.0600 
    203 H203        1.0579  -24.6126  -50.3480 H         1 UNK         0.0600 
    204 H204        1.7405  -26.0138  -51.1644 H         1 UNK         0.0600 
    205 H205       -2.1087  -24.7299  -50.5144 H         1 UNK         0.3000 
    206 H206       -2.6295  -25.2560  -53.4049 H         1 UNK         0.0600 
    207 H207       -1.9542  -22.9075  -52.8382 H         1 UNK         0.0600 
    208 H208       -3.6132  -22.9840  -53.4055 H         1 UNK         0.0600 
    209 H209       -3.2827  -22.7981  -51.6875 H         1 UNK         0.0600 
    210 H210       -3.4842  -26.8162  -50.9449 H         1 UNK         0.3000 
    211 H211       -5.1906  -27.9277  -50.1177 H         1 UNK         0.0600 
    212 H212       -6.6248  -27.2384  -52.7316 H         1 UNK         0.0600 
    213 H213       -7.0765  -28.5226  -51.6194 H         1 UNK         0.0600 
    214 H214       -5.5442  -28.6027  -52.4719 H         1 UNK         0.0600 
    215 H215       -4.9136  -25.3935  -49.1559 H         1 UNK         0.3000 
    216 H216       -5.7744  -23.9739  -47.7052 H         1 UNK         0.0600 
    217 H217       -7.9504  -24.2591  -46.6369 H         1 UNK         0.0600 
    218 H218       -7.1685  -25.8266  -46.7628 H         1 UNK         0.0600 
    219 H219       -8.4780  -25.3980  -47.8638 H         1 UNK         0.0600 
    220 H220       -5.3801  -23.2709  -50.2069 H         1 UNK         0.3000 
    221 H221       -5.6661  -21.7522  -51.7851 H         1 UNK         0.0600 
    222 H222       -7.4643  -20.3259  -49.7487 H         1 UNK         0.0600 
    223 H223       -5.7181  -20.1406  -49.9074 H         1 UNK         0.0600 
    224 H224       -6.7778  -19.5930  -51.1890 H         1 UNK         0.0600 
    225 H225       -6.9033  -23.8552  -52.5524 H         1 UNK         0.3000 
    226 H226       -9.7490  -23.6059  -53.0487 H         1 UNK         0.0600 
    227 H227       -8.6837  -25.7986  -52.6903 H         1 UNK         0.0600 
    228 H228       -9.3853  -25.7337  -54.2989 H         1 UNK         0.0600 
    229 H229       -7.6450  -25.5644  -54.0966 H         1 UNK         0.0600 
    230 H230       -9.5847  -21.4521  -54.0084 H         1 UNK         0.3000 
    231 H231       -9.8579  -20.0056  -55.6635 H         1 UNK         0.0600 
    232 H232       -9.9458  -22.3631  -57.6180 H         1 UNK         0.0600 
    233 H233      -10.5490  -20.7379  -57.9055 H         1 UNK         0.0600 
    234 H234      -11.3242  -21.7540  -56.7024 H         1 UNK         0.0600 
    235 H235       -7.2402  -20.5720  -54.7361 H         1 UNK         0.3000 
    236 H236       -5.6192  -19.2494  -56.7100 H         1 UNK         0.0600 
    237 H237       -5.3243  -21.6397  -57.4591 H         1 UNK         0.0600 
    238 H238       -3.8480  -21.0524  -56.7127 H         1 UNK         0.0600 
    239 H239       -4.9215  -22.1179  -55.8119 H         1 UNK         0.0600 
    240 H240       -3.5237  -18.6722  -55.6781 H         1 UNK         0.3000 
    241 H241       -2.2474  -17.9033  -54.1043 H         1 UNK         0.0600 
    242 H242       -5.1787  -16.7883  -54.3116 H         1 UNK         0.3800 
    243 H243       -5.2109  -15.7112  -52.9405 H         1 UNK         0.3800 
    244 H244       -2.7748  -20.4460  -53.1208 H         1 UNK         0.0800 
    245 H245       -3.2245  -19.5008  -51.7433 H         1 UNK         0.0800 
    246 H246       -1.3046  -17.9434  -50.3803 H         1 UNK         0.0800 
    247 H247       -1.4881  -19.6356  -49.9750 H         1 UNK         0.0800 
@<TRIPOS>BOND
     1    1    2 1    
     2    1  127 1    
     3    1  128 1    
     4    1  129 1    
     5    2    3 2    
     6    2    4 am   BACKBONE|DICT|INTERRES
     7    4    5 1    
     8    4  130 1    
     9    5    6 1    
    10    5   65 1    
    11    5  131 1    
    12    6    7 1    
    13    6  132 1    
    14    6  133 1    
    15    7    8 1    
    16    8    9 1    
    17    8  134 1    
    18    8  135 1    
    19    9   10 ar   
    20    9   14 ar   
    21   10   11 ar   
    22   10  136 1    
    23   11   12 ar   
    24   11  126 1    
    25   12   13 ar   
    26   12  137 1    
    27   13   14 ar   
    28   13   15 1    
    29   14  138 1    
    30   15   16 1    
    31   15  139 1    
    32   15  140 1    
    33   16   17 1    
    34   17   18 1    
    35   17  141 1    
    36   17  142 1    
    37   18   19 1    
    38   18   67 1    
    39   18  143 1    
    40   19   20 am   BACKBONE|DICT|INTERRES
    41   19  144 1    
    42   20   21 2    
    43   20   22 1    
    44   22   23 1    
    45   22   24 1    
    46   22  145 1    
    47   23  146 1    
    48   23  147 1    
    49   23  148 1    
    50   24   25 am   BACKBONE|DICT|INTERRES
    51   24  149 1    
    52   25   26 2    
    53   25   27 1    
    54   27   28 1    
    55   27   29 1    
    56   27  150 1    
    57   28  151 1    
    58   28  152 1    
    59   28  153 1    
    60   29   30 am   BACKBONE|DICT|INTERRES
    61   29  154 1    
    62   30   31 2    
    63   30   32 1    
    64   32   33 1    
    65   32   34 1    
    66   32  155 1    
    67   33  156 1    
    68   33  157 1    
    69   33  158 1    
    70   34   35 am   BACKBONE|DICT|INTERRES
    71   34  159 1    
    72   35   36 2    
    73   35   37 1    
    74   37   38 1    
    75   37   39 1    
    76   37  160 1    
    77   38  161 1    
    78   38  162 1    
    79   38  163 1    
    80   39   40 am   BACKBONE|DICT|INTERRES
    81   39  164 1    
    82   40   41 2    
    83   40   42 1    
    84   42   43 1    
    85   42   44 1    
    86   42  165 1    
    87   43  166 1    
    88   43  167 1    
    89   43  168 1    
    90   44   45 am   BACKBONE|DICT|INTERRES
    91   44  169 1    
    92   45   46 2    
    93   45   47 1    
    94   47   48 1    
    95   47   49 1    
    96   47  170 1    
    97   48  171 1    
    98   48  172 1    
    99   48  173 1    
   100   49   50 am   BACKBONE|DICT|INTERRES
   101   49  174 1    
   102   50   51 2    
   103   50   52 1    
   104   52   53 1    
   105   52   54 1    
   106   52  175 1    
   107   53  176 1    
   108   53  177 1    
   109   53  178 1    
   110   54   55 am   BACKBONE|DICT|INTERRES
   111   54  179 1    
   112   55   56 2    
   113   55   57 1    
   114   57   58 1    
   115   57   59 1    
   116   57  180 1    
   117   58  181 1    
   118   58  182 1    
   119   58  183 1    
   120   59   60 am   BACKBONE|DICT|INTERRES
   121   59  184 1    
   122   60   61 2    
   123   60   62 1    
   124   62   63 1    
   125   62   64 1    
   126   62  185 1    
   127   63  186 1    
   128   63  187 1    
   129   63  188 1    
   130   64   65 am   BACKBONE|DICT|INTERRES
   131   64  189 1    
   132   65   66 2    
   133   67   68 2    
   134   67   69 am   BACKBONE|DICT|INTERRES
   135   69   70 1    
   136   69  190 1    
   137   70   71 1    
   138   70   72 1    
   139   70  191 1    
   140   71  192 1    
   141   71  193 1    
   142   71  194 1    
   143   72   73 2    
   144   72   74 am   BACKBONE|DICT|INTERRES
   145   74   75 1    
   146   74  195 1    
   147   75   76 1    
   148   75   77 1    
   149   75  196 1    
   150   76  197 1    
   151   76  198 1    
   152   76  199 1    
   153   77   78 2    
   154   77   79 am   BACKBONE|DICT|INTERRES
   155   79   80 1    
   156   79  200 1    
   157   80   81 1    
   158   80   82 1    
   159   80  201 1    
   160   81  202 1    
   161   81  203 1    
   162   81  204 1    
   163   82   83 2    
   164   82   84 am   BACKBONE|DICT|INTERRES
   165   84   85 1    
   166   84  205 1    
   167   85   86 1    
   168   85   87 1    
   169   85  206 1    
   170   86  207 1    
   171   86  208 1    
   172   86  209 1    
   173   87   88 2    
   174   87   89 am   BACKBONE|DICT|INTERRES
   175   89   90 1    
   176   89  210 1    
   177   90   91 1    
   178   90   92 1    
   179   90  211 1    
   180   91  212 1    
   181   91  213 1    
   182   91  214 1    
   183   92   93 2    
   184   92   94 am   BACKBONE|DICT|INTERRES
   185   94   95 1    
   186   94  215 1    
   187   95   96 1    
   188   95   97 1    
   189   95  216 1    
   190   96  217 1    
   191   96  218 1    
   192   96  219 1    
   193   97   98 2    
   194   97   99 am   BACKBONE|DICT|INTERRES
   195   99  100 1    
   196   99  220 1    
   197  100  101 1    
   198  100  102 1    
   199  100  221 1    
   200  101  222 1    
   201  101  223 1    
   202  101  224 1    
   203  102  103 2    
   204  102  104 am   BACKBONE|DICT|INTERRES
   205  104  105 1    
   206  104  225 1    
   207  105  106 1    
   208  105  107 1    
   209  105  226 1    
   210  106  227 1    
   211  106  228 1    
   212  106  229 1    
   213  107  108 2    
   214  107  109 am   BACKBONE|DICT|INTERRES
   215  109  110 1    
   216  109  230 1    
   217  110  111 1    
   218  110  112 1    
   219  110  231 1    
   220  111  232 1    
   221  111  233 1    
   222  111  234 1    
   223  112  113 2    
   224  112  114 am   BACKBONE|DICT|INTERRES
   225  114  115 1    
   226  114  235 1    
   227  115  116 1    
   228  115  117 1    
   229  115  236 1    
   230  116  237 1    
   231  116  238 1    
   232  116  239 1    
   233  117  118 2    
   234  117  119 am   BACKBONE|DICT|INTERRES
   235  119  120 1    
   236  119  240 1    
   237  120  121 1    
   238  120  124 1    
   239  120  241 1    
   240  121  122 am   BACKBONE|DICT|INTERRES
   241  121  123 2    
   242  122  242 1    
   243  122  243 1    
   244  124  125 1    
   245  124  244 1    
   246  124  245 1    
   247  125  126 1    
   248  126  246 1    
   249  126  247 1    
@<TRIPOS>SUBSTRUCTURE
     1 UNK         1 GROUP             0       ****    0 ROOT    
