@<TRIPOS>MOLECULE
3R540
247   249    1
SMALL
USER_CHARGES


@<TRIPOS>ATOM
      1 CA          5.1211  -13.6144  -48.4745 C.3       0 UNK        -0.1800 
      2 C           3.9744  -14.5190  -48.0493 C.2       0 UNK         0.5000 
      3 O           2.9559  -14.5803  -48.7381 O.2       0 UNK        -0.5000 
      4 N           4.1254  -15.2054  -46.9064 N.am      1 UNK        -0.5000 
      5 CA          3.1924  -16.2037  -46.3479 C.3       1 UNK         0.1400 
      6 C6          3.0110  -17.4468  -47.2626 C.3       23 UNK        -0.0398 
      7 S7          4.5938  -18.2090  -47.7725 S.3       23 UNK        -0.2404 
      8 C8          4.5454  -18.0090  -49.5839 C.3       23 UNK        -0.0205 
      9 C9          3.5113  -18.9299  -50.2116 C.ar      23 UNK        -0.0193 
     10 C10         2.2912  -18.4231  -50.6651 C.ar      23 UNK        -0.1150 
     11 C11         1.3235  -19.2806  -51.1927 C.ar      23 UNK        -0.0193 
     12 C12         1.5753  -20.6547  -51.2421 C.ar      23 UNK        -0.1150 
     13 C13         2.7936  -21.1796  -50.7969 C.ar      23 UNK        -0.0193 
     14 C14         3.7702  -20.2989  -50.3146 C.ar      23 UNK        -0.1150 
     15 C15         2.9949  -22.6958  -50.8677 C.3       23 UNK        -0.0205 
     16 S16         4.4056  -23.4054  -49.9364 S.3       23 UNK        -0.2404 
     17 C17         4.1417  -22.8690  -48.2088 C.3       23 UNK        -0.0398 
     18 CA          3.1833  -23.7693  -47.3903 C.3       11 UNK         0.1400 
     19 N           3.5219  -23.7373  -45.9635 N.am      11 UNK        -0.5000 
     20 C           2.9314  -24.4630  -45.0031 C.2       10 UNK         0.5000 
     21 O           2.0671  -25.3102  -45.2192 O.2       10 UNK        -0.5000 
     22 CA          3.3387  -24.1498  -43.5503 C.3       10 UNK         0.1400 
     23 CB          4.4965  -25.0570  -43.1093 C.3       10 UNK        -0.1800 
     24 N           3.7154  -22.7475  -43.3455 N.am      10 UNK        -0.5000 
     25 C           2.8908  -21.7032  -43.4999 C.2       9 UNK         0.5000 
     26 O           1.7046  -21.8023  -43.8270 O.2       9 UNK        -0.5000 
     27 CA          3.5245  -20.3176  -43.3367 C.3       9 UNK         0.1400 
     28 CB          4.2257  -19.9044  -44.6419 C.3       9 UNK        -0.1800 
     29 N           2.4889  -19.3487  -42.9934 N.am      9 UNK        -0.5000 
     30 C           2.7040  -18.1645  -42.4081 C.2       8 UNK         0.5000 
     31 O           3.8314  -17.7464  -42.1393 O.2       8 UNK        -0.5000 
     32 CA          1.4708  -17.2987  -42.0658 C.3       8 UNK         0.1400 
     33 CB          1.8037  -15.7966  -42.0218 C.3       8 UNK        -0.1800 
     34 N           0.3523  -17.5013  -42.9885 N.am      8 UNK        -0.5000 
     35 C          -0.6027  -18.4272  -42.8467 C.2       7 UNK         0.5000 
     36 O          -0.6170  -19.2645  -41.9438 O.2       7 UNK        -0.5000 
     37 CA         -1.7187  -18.3854  -43.9045 C.3       7 UNK         0.1400 
     38 CB         -2.6275  -19.6314  -43.8950 C.3       7 UNK        -0.1800 
     39 N          -2.5105  -17.1542  -43.8368 N.am      7 UNK        -0.5000 
     40 C          -3.2313  -16.6909  -42.8023 C.2       6 UNK         0.5000 
     41 O          -3.3383  -17.2643  -41.7186 O.2       6 UNK        -0.5000 
     42 CA         -3.9664  -15.3519  -43.0172 C.3       6 UNK         0.1400 
     43 CB         -3.2509  -14.2161  -42.2703 C.3       6 UNK        -0.1800 
     44 N          -4.0785  -15.0072  -44.4389 N.am      6 UNK        -0.5000 
     45 C          -5.0863  -15.4095  -45.2273 C.2       5 UNK         0.5000 
     46 O          -6.0762  -16.0198  -44.8235 O.2       5 UNK        -0.5000 
     47 CA         -4.9240  -15.1314  -46.7288 C.3       5 UNK         0.1400 
     48 CB         -5.0203  -13.6310  -47.0462 C.3       5 UNK        -0.1800 
     49 N          -3.6439  -15.6584  -47.1985 N.am      5 UNK        -0.5000 
     50 C          -3.4430  -16.9383  -47.5454 C.2       4 UNK         0.5000 
     51 O          -4.3415  -17.7762  -47.5748 O.2       4 UNK        -0.5000 
     52 CA         -2.0067  -17.3705  -47.9087 C.3       4 UNK         0.1400 
     53 CB         -1.9688  -18.5391  -48.9128 C.3       4 UNK        -0.1800 
     54 N          -1.1406  -16.2672  -48.3217 N.am      4 UNK        -0.5000 
     55 C          -1.3222  -15.4363  -49.3591 C.2       3 UNK         0.5000 
     56 O          -2.1524  -15.6276  -50.2458 O.2       3 UNK        -0.5000 
     57 CA         -0.4647  -14.1512  -49.3787 C.3       3 UNK         0.1400 
     58 CB         -1.2704  -12.9321  -49.8723 C.3       3 UNK        -0.1800 
     59 N           0.1873  -13.8453  -48.0963 N.am      3 UNK        -0.5000 
     60 C          -0.3910  -13.6203  -46.9028 C.2       2 UNK         0.5000 
     61 O          -1.6098  -13.6403  -46.7189 O.2       2 UNK        -0.5000 
     62 CA          0.5667  -13.4305  -45.7051 C.3       2 UNK         0.1400 
     63 CB         -0.1245  -13.6392  -44.3446 C.3       2 UNK        -0.1800 
     64 N           1.7683  -14.2658  -45.8141 N.am      2 UNK        -0.5000 
     65 C           1.8227  -15.6014  -45.9433 C.2       1 UNK         0.5000 
     66 O           0.8419  -16.3371  -45.7957 O.2       1 UNK        -0.5000 
     67 C           1.7161  -23.3553  -47.6220 C.2       11 UNK         0.5000 
     68 O           0.9753  -24.0579  -48.3081 O.2       11 UNK        -0.5000 
     69 N           1.3159  -22.2366  -47.0026 N.am      12 UNK        -0.5000 
     70 CA         -0.0377  -21.6966  -47.0772 C.3       12 UNK         0.1400 
     71 CB         -0.0432  -20.2661  -46.5359 C.3       12 UNK        -0.1800 
     72 C          -1.0668  -22.5633  -46.3336 C.2       12 UNK         0.5000 
     73 O          -2.2053  -22.6720  -46.7901 O.2       12 UNK        -0.5000 
     74 N          -0.6434  -23.1836  -45.2236 N.am      13 UNK        -0.5000 
     75 CA         -1.4335  -24.1607  -44.4757 C.3       13 UNK         0.1400 
     76 CB         -0.7484  -24.4700  -43.1370 C.3       13 UNK        -0.1800 
     77 C          -1.6791  -25.4463  -45.2882 C.2       13 UNK         0.5000 
     78 O          -2.8116  -25.9256  -45.3288 O.2       13 UNK        -0.5000 
     79 N          -0.6376  -25.9475  -45.9696 N.am      14 UNK        -0.5000 
     80 CA         -0.7096  -27.0842  -46.8933 C.3       14 UNK         0.1400 
     81 CB          0.7093  -27.5095  -47.3001 C.3       14 UNK        -0.1800 
     82 C          -1.5717  -26.7916  -48.1370 C.2       14 UNK         0.5000 
     83 O          -2.2841  -27.6796  -48.6058 O.2       14 UNK        -0.5000 
     84 N          -1.5329  -25.5396  -48.6142 N.am      15 UNK        -0.5000 
     85 CA         -2.3953  -25.0073  -49.6731 C.3       15 UNK         0.1400 
     86 CB         -1.7579  -23.7271  -50.2390 C.3       15 UNK        -0.1800 
     87 C          -3.8474  -24.7390  -49.2148 C.2       15 UNK         0.5000 
     88 O          -4.6775  -24.3782  -50.0496 O.2       15 UNK        -0.5000 
     89 N          -4.1270  -24.9135  -47.9135 N.am      16 UNK        -0.5000 
     90 CA         -5.4164  -24.7523  -47.2375 C.3       16 UNK         0.1400 
     91 CB         -6.4323  -25.7999  -47.7403 C.3       16 UNK        -0.1800 
     92 C          -5.9517  -23.3073  -47.2869 C.2       16 UNK         0.5000 
     93 O          -7.1572  -23.1084  -47.4474 O.2       16 UNK        -0.5000 
     94 N          -5.0404  -22.3328  -47.1325 N.am      17 UNK        -0.5000 
     95 CA         -5.2747  -20.8857  -47.1635 C.3       17 UNK         0.1400 
     96 CB         -6.1081  -20.4336  -45.9465 C.3       17 UNK        -0.1800 
     97 C          -5.8710  -20.4378  -48.5136 C.2       17 UNK         0.5000 
     98 O          -7.0274  -20.0165  -48.5839 O.2       17 UNK        -0.5000 
     99 N          -5.0609  -20.5906  -49.5709 N.am      18 UNK        -0.5000 
    100 CA        -5.4137  -20.3313  -50.9691 C.3       18 UNK         0.1400 
    101 CB        -4.2092  -20.6909  -51.8544 C.3       18 UNK        -0.1800 
    102 C         -5.8793  -18.8931  -51.2699 C.2       18 UNK         0.5000 
    103 O         -6.7161  -18.7088  -52.1552 O.2       18 UNK        -0.5000 
    104 N         -5.3327  -17.9089  -50.5402 N.am      19 UNK        -0.5000 
    105 CA        -5.5989  -16.4726  -50.6633 C.3       19 UNK         0.1400 
    106 CB        -6.9757  -16.1457  -50.0430 C.3       19 UNK        -0.1800 
    107 C         -5.4270  -15.9788  -52.1178 C.2       19 UNK         0.5000 
    108 O         -4.3360  -16.1049  -52.6751 O.2       19 UNK        -0.5000 
    109 N         -6.5099  -15.4781  -52.7288 N.am      20 UNK        -0.5000 
    110 CA        -6.5653  -14.9961  -54.1110 C.3       20 UNK         0.1400 
    111 CB        -7.9689  -14.4377  -54.3885 C.3       20 UNK        -0.1800 
    112 C         -6.1855  -16.0480  -55.1736 C.2       20 UNK         0.5000 
    113 O         -5.6784  -15.6716  -56.2317 O.2       20 UNK        -0.5000 
    114 N         -6.3821  -17.3421  -54.8730 N.am      21 UNK        -0.5000 
    115 CA        -5.9892  -18.4552  -55.7442 C.3       21 UNK         0.1400 
    116 CB        -6.6718  -19.7504  -55.2779 C.3       21 UNK        -0.1800 
    117 C         -4.4607  -18.6408  -55.8524 C.2       21 UNK         0.5000 
    118 O         -4.0056  -19.3210  -56.7727 O.2       21 UNK        -0.5000 
    119 N         -3.6951  -18.0165  -54.9452 N.am      22 UNK        -0.5000 
    120 CA        -2.2339  -17.8822  -55.0389 C.3       22 UNK         0.1400 
    121 C         -1.7627  -16.8609  -56.1224 C.2       22 UNK         0.5000 
    122 N         -2.6327  -16.0308  -56.6902 N.am      22 UNK        -0.7600 
    123 O         -0.5866  -16.8290  -56.4726 O.2       22 UNK        -0.5000 
    124 C124       -1.6149  -17.5721  -53.6493 C.3       23 UNK        -0.0398 
    125 S125        0.0590  -18.2711  -53.4387 S.3       23 UNK        -0.2404 
    126 C126       -0.0026  -18.7242  -51.6827 C.3       23 UNK        -0.0205 
    127 H127        5.9472  -13.6449  -47.7638 H         1 UNK         0.0600 
    128 H128        4.7764  -12.5834  -48.5535 H         1 UNK         0.0600 
    129 H129        5.4989  -13.9246  -49.4487 H         1 UNK         0.0600 
    130 H130        4.9869  -15.0963  -46.3892 H         1 UNK         0.3000 
    131 H131        3.6446  -16.5473  -45.4162 H         1 UNK         0.0600 
    132 H132        2.4349  -18.2135  -46.7444 H         1 UNK         0.0800 
    133 H133        2.4270  -17.1839  -48.1447 H         1 UNK         0.0800 
    134 H134        4.3455  -16.9667  -49.8359 H         1 UNK         0.0800 
    135 H135        5.5302  -18.2398  -49.9923 H         1 UNK         0.0800 
    136 H136        2.0910  -17.3625  -50.6020 H         1 UNK         0.1150 
    137 H137        0.8173  -21.3196  -51.6327 H         1 UNK         0.1150 
    138 H138        4.7283  -20.6695  -49.9817 H         1 UNK         0.1150 
    139 H139        2.0814  -23.1960  -50.5462 H         1 UNK         0.0800 
    140 H140        3.1249  -22.9645  -51.9167 H         1 UNK         0.0800 
    141 H141        5.1338  -22.8966  -47.7560 H         1 UNK         0.0800 
    142 H142        3.8464  -21.8211  -48.1585 H         1 UNK         0.0800 
    143 H143        3.2975  -24.8040  -47.7210 H         1 UNK         0.0600 
    144 H144        4.2305  -23.0768  -45.6823 H         1 UNK         0.3000 
    145 H145        2.4789  -24.3602  -42.9120 H         1 UNK         0.0600 
    146 H146        4.7406  -24.9024  -42.0581 H         1 UNK         0.0600 
    147 H147        4.2346  -26.1093  -43.2288 H         1 UNK         0.0600 
    148 H148        5.3983  -24.8745  -43.6949 H         1 UNK         0.0600 
    149 H149        4.6759  -22.5777  -43.0828 H         1 UNK         0.3000 
    150 H150        4.2534  -20.3634  -42.5247 H         1 UNK         0.0600 
    151 H151        5.0404  -20.5869  -44.8859 H         1 UNK         0.0600 
    152 H152        4.6565  -18.9058  -44.5696 H         1 UNK         0.0600 
    153 H153        3.5317  -19.9108  -45.4821 H         1 UNK         0.0600 
    154 H154        1.5411  -19.6756  -43.1342 H         1 UNK         0.3000 
    155 H155        1.1589  -17.5892  -41.0605 H         1 UNK         0.0600 
    156 H156        0.9237  -15.2072  -41.7640 H         1 UNK         0.0600 
    157 H157        2.1817  -15.4381  -42.9789 H         1 UNK         0.0600 
    158 H158        2.5628  -15.5825  -41.2685 H         1 UNK         0.0600 
    159 H159        0.3341  -16.9039  -43.8071 H         1 UNK         0.3000 
    160 H160       -1.2067  -18.3560  -44.8623 H         1 UNK         0.0600 
    161 H161       -3.1972  -19.7132  -42.9691 H         1 UNK         0.0600 
    162 H162       -2.0405  -20.5450  -43.9981 H         1 UNK         0.0600 
    163 H163       -3.3354  -19.6052  -44.7232 H         1 UNK         0.0600 
    164 H164       -2.4947  -16.5787  -44.6638 H         1 UNK         0.3000 
    165 H165       -4.9657  -15.4519  -42.5879 H         1 UNK         0.0600 
    166 H166       -2.2056  -14.1326  -42.5616 H         1 UNK         0.0600 
    167 H167       -3.7321  -13.2550  -42.4525 H         1 UNK         0.0600 
    168 H168       -3.2713  -14.3898  -41.1937 H         1 UNK         0.0600 
    169 H169       -3.3204  -14.4780  -44.8477 H         1 UNK         0.3000 
    170 H170       -5.7379  -15.6339  -47.2539 H         1 UNK         0.0600 
    171 H171       -5.9827  -13.2281  -46.7289 H         1 UNK         0.0600 
    172 H172       -4.2423  -13.0538  -46.5460 H         1 UNK         0.0600 
    173 H173       -4.9297  -13.4521  -48.1178 H         1 UNK         0.0600 
    174 H174       -2.8610  -15.0100  -47.1935 H         1 UNK         0.3000 
    175 H175       -1.5745  -17.7262  -46.9776 H         1 UNK         0.0600 
    176 H176       -2.5297  -19.3979  -48.5449 H         1 UNK         0.0600 
    177 H177       -2.3911  -18.2608  -49.8782 H         1 UNK         0.0600 
    178 H178       -0.9460  -18.8788  -49.0672 H         1 UNK         0.0600 
    179 H179       -0.4234  -16.0182  -47.6521 H         1 UNK         0.3000 
    180 H180        0.3388  -14.3344  -50.0935 H         1 UNK         0.0600 
    181 H181       -2.1359  -12.7358  -49.2385 H         1 UNK         0.0600 
    182 H182       -1.6387  -13.0892  -50.8869 H         1 UNK         0.0600 
    183 H183       -0.6548  -12.0329  -49.8886 H         1 UNK         0.0600 
    184 H184        1.2020  -13.8874  -48.1335 H         1 UNK         0.3000 
    185 H185        0.9028  -12.3938  -45.7496 H         1 UNK         0.0600 
    186 H186        0.5665  -13.4564  -43.5224 H         1 UNK         0.0600 
    187 H187       -0.9563  -12.9444  -44.2234 H         1 UNK         0.0600 
    188 H188       -0.5182  -14.6498  -44.2376 H         1 UNK         0.0600 
    189 H189        2.6341  -13.7619  -45.9463 H         1 UNK         0.3000 
    190 H190        1.9631  -21.7502  -46.4013 H         1 UNK         0.3000 
    191 H191       -0.3325  -21.6581  -48.1275 H         1 UNK         0.0600 
    192 H192        0.5457  -19.6021  -47.1680 H         1 UNK         0.0600 
    193 H193       -1.0632  -19.8879  -46.5180 H         1 UNK         0.0600 
    194 H194        0.3512  -20.2103  -45.5213 H         1 UNK         0.0600 
    195 H195        0.2887  -22.9831  -44.8803 H         1 UNK         0.3000 
    196 H196       -2.4043  -23.7088  -44.2608 H         1 UNK         0.0600 
    197 H197       -1.3762  -25.1150  -42.5212 H         1 UNK         0.0600 
    198 H198       -0.5597  -23.5585  -42.5691 H         1 UNK         0.0600 
    199 H199        0.2029  -24.9813  -43.2778 H         1 UNK         0.0600 
    200 H200        0.2805  -25.5299  -45.8413 H         1 UNK         0.3000 
    201 H201       -1.1726  -27.9172  -46.3602 H         1 UNK         0.0600 
    202 H202        1.2989  -27.7959  -46.4291 H         1 UNK         0.0600 
    203 H203        1.2401  -26.7072  -47.8129 H         1 UNK         0.0600 
    204 H204        0.6827  -28.3683  -47.9718 H         1 UNK         0.0600 
    205 H205       -0.8475  -24.8993  -48.2263 H         1 UNK         0.3000 
    206 H206       -2.4409  -25.7448  -50.4767 H         1 UNK         0.0600 
    207 H207       -0.7253  -23.8978  -50.5443 H         1 UNK         0.0600 
    208 H208       -2.2995  -23.3784  -51.1183 H         1 UNK         0.0600 
    209 H209       -1.7644  -22.9188  -49.5090 H         1 UNK         0.0600 
    210 H210       -3.3660  -25.1894  -47.3060 H         1 UNK         0.3000 
    211 H211       -5.2316  -24.9624  -46.1834 H         1 UNK         0.0600 
    212 H212       -6.7208  -25.6214  -48.7765 H         1 UNK         0.0600 
    213 H213       -7.3425  -25.7814  -47.1400 H         1 UNK         0.0600 
    214 H214       -6.0226  -26.8079  -47.6746 H         1 UNK         0.0600 
    215 H215       -4.0658  -22.6072  -47.0234 H         1 UNK         0.3000 
    216 H216       -4.2938  -20.4174  -47.0747 H         1 UNK         0.0600 
    217 H217       -5.6386  -20.7399  -45.0119 H         1 UNK         0.0600 
    218 H218       -7.1180  -20.8439  -45.9647 H         1 UNK         0.0600 
    219 H219       -6.1970  -19.3465  -45.9247 H         1 UNK         0.0600 
    220 H220       -4.1483  -20.9895  -49.4130 H         1 UNK         0.3000 
    221 H221       -6.2391  -20.9983  -51.2259 H         1 UNK         0.0600 
    222 H222       -3.3233  -20.1159  -51.5826 H         1 UNK         0.0600 
    223 H223       -3.9641  -21.7493  -51.7702 H         1 UNK         0.0600 
    224 H224       -4.4148  -20.4917  -52.9064 H         1 UNK         0.0600 
    225 H225       -4.6940  -18.1680  -49.8008 H         1 UNK         0.3000 
    226 H226       -4.8388  -15.9597  -50.0737 H         1 UNK         0.0600 
    227 H227       -7.0315  -16.5050  -49.0157 H         1 UNK         0.0600 
    228 H228       -7.1535  -15.0699  -50.0178 H         1 UNK         0.0600 
    229 H229       -7.7959  -16.6131  -50.5892 H         1 UNK         0.0600 
    230 H230       -7.3754  -15.4480  -52.2101 H         1 UNK         0.3000 
    231 H231       -5.8485  -14.1771  -54.1985 H         1 UNK         0.0600 
    232 H232       -8.0394  -14.0425  -55.4029 H         1 UNK         0.0600 
    233 H233       -8.2123  -13.6224  -53.7069 H         1 UNK         0.0600 
    234 H234       -8.7353  -15.2065  -54.2818 H         1 UNK         0.0600 
    235 H235       -6.7461  -17.5900  -53.9589 H         1 UNK         0.3000 
    236 H236       -6.3556  -18.2334  -56.7487 H         1 UNK         0.0600 
    237 H237       -7.7505  -19.6211  -55.1894 H         1 UNK         0.0600 
    238 H238       -6.4989  -20.5573  -55.9910 H         1 UNK         0.0600 
    239 H239       -6.2927  -20.0860  -54.3142 H         1 UNK         0.0600 
    240 H240       -4.1408  -17.4557  -54.2270 H         1 UNK         0.3000 
    241 H241       -1.8571  -18.8552  -55.3600 H         1 UNK         0.0600 
    242 H242       -3.6135  -16.0361  -56.4385 H         1 UNK         0.3800 
    243 H243       -2.3069  -15.3864  -57.3932 H         1 UNK         0.3800 
    244 H244       -2.2481  -17.9915  -52.8657 H         1 UNK         0.0800 
    245 H245       -1.5887  -16.4988  -53.4512 H         1 UNK         0.0800 
    246 H246       -0.2674  -17.8373  -51.1058 H         1 UNK         0.0800 
    247 H247       -0.7956  -19.4564  -51.5248 H         1 UNK         0.0800 
@<TRIPOS>BOND
     1    1    2 1    
     2    1  127 1    
     3    1  128 1    
     4    1  129 1    
     5    2    3 2    
     6    2    4 am   BACKBONE|DICT|INTERRES
     7    4    5 1    
     8    4  130 1    
     9    5    6 1    
    10    5   65 1    
    11    5  131 1    
    12    6    7 1    
    13    6  132 1    
    14    6  133 1    
    15    7    8 1    
    16    8    9 1    
    17    8  134 1    
    18    8  135 1    
    19    9   10 ar   
    20    9   14 ar   
    21   10   11 ar   
    22   10  136 1    
    23   11   12 ar   
    24   11  126 1    
    25   12   13 ar   
    26   12  137 1    
    27   13   14 ar   
    28   13   15 1    
    29   14  138 1    
    30   15   16 1    
    31   15  139 1    
    32   15  140 1    
    33   16   17 1    
    34   17   18 1    
    35   17  141 1    
    36   17  142 1    
    37   18   19 1    
    38   18   67 1    
    39   18  143 1    
    40   19   20 am   BACKBONE|DICT|INTERRES
    41   19  144 1    
    42   20   21 2    
    43   20   22 1    
    44   22   23 1    
    45   22   24 1    
    46   22  145 1    
    47   23  146 1    
    48   23  147 1    
    49   23  148 1    
    50   24   25 am   BACKBONE|DICT|INTERRES
    51   24  149 1    
    52   25   26 2    
    53   25   27 1    
    54   27   28 1    
    55   27   29 1    
    56   27  150 1    
    57   28  151 1    
    58   28  152 1    
    59   28  153 1    
    60   29   30 am   BACKBONE|DICT|INTERRES
    61   29  154 1    
    62   30   31 2    
    63   30   32 1    
    64   32   33 1    
    65   32   34 1    
    66   32  155 1    
    67   33  156 1    
    68   33  157 1    
    69   33  158 1    
    70   34   35 am   BACKBONE|DICT|INTERRES
    71   34  159 1    
    72   35   36 2    
    73   35   37 1    
    74   37   38 1    
    75   37   39 1    
    76   37  160 1    
    77   38  161 1    
    78   38  162 1    
    79   38  163 1    
    80   39   40 am   BACKBONE|DICT|INTERRES
    81   39  164 1    
    82   40   41 2    
    83   40   42 1    
    84   42   43 1    
    85   42   44 1    
    86   42  165 1    
    87   43  166 1    
    88   43  167 1    
    89   43  168 1    
    90   44   45 am   BACKBONE|DICT|INTERRES
    91   44  169 1    
    92   45   46 2    
    93   45   47 1    
    94   47   48 1    
    95   47   49 1    
    96   47  170 1    
    97   48  171 1    
    98   48  172 1    
    99   48  173 1    
   100   49   50 am   BACKBONE|DICT|INTERRES
   101   49  174 1    
   102   50   51 2    
   103   50   52 1    
   104   52   53 1    
   105   52   54 1    
   106   52  175 1    
   107   53  176 1    
   108   53  177 1    
   109   53  178 1    
   110   54   55 am   BACKBONE|DICT|INTERRES
   111   54  179 1    
   112   55   56 2    
   113   55   57 1    
   114   57   58 1    
   115   57   59 1    
   116   57  180 1    
   117   58  181 1    
   118   58  182 1    
   119   58  183 1    
   120   59   60 am   BACKBONE|DICT|INTERRES
   121   59  184 1    
   122   60   61 2    
   123   60   62 1    
   124   62   63 1    
   125   62   64 1    
   126   62  185 1    
   127   63  186 1    
   128   63  187 1    
   129   63  188 1    
   130   64   65 am   BACKBONE|DICT|INTERRES
   131   64  189 1    
   132   65   66 2    
   133   67   68 2    
   134   67   69 am   BACKBONE|DICT|INTERRES
   135   69   70 1    
   136   69  190 1    
   137   70   71 1    
   138   70   72 1    
   139   70  191 1    
   140   71  192 1    
   141   71  193 1    
   142   71  194 1    
   143   72   73 2    
   144   72   74 am   BACKBONE|DICT|INTERRES
   145   74   75 1    
   146   74  195 1    
   147   75   76 1    
   148   75   77 1    
   149   75  196 1    
   150   76  197 1    
   151   76  198 1    
   152   76  199 1    
   153   77   78 2    
   154   77   79 am   BACKBONE|DICT|INTERRES
   155   79   80 1    
   156   79  200 1    
   157   80   81 1    
   158   80   82 1    
   159   80  201 1    
   160   81  202 1    
   161   81  203 1    
   162   81  204 1    
   163   82   83 2    
   164   82   84 am   BACKBONE|DICT|INTERRES
   165   84   85 1    
   166   84  205 1    
   167   85   86 1    
   168   85   87 1    
   169   85  206 1    
   170   86  207 1    
   171   86  208 1    
   172   86  209 1    
   173   87   88 2    
   174   87   89 am   BACKBONE|DICT|INTERRES
   175   89   90 1    
   176   89  210 1    
   177   90   91 1    
   178   90   92 1    
   179   90  211 1    
   180   91  212 1    
   181   91  213 1    
   182   91  214 1    
   183   92   93 2    
   184   92   94 am   BACKBONE|DICT|INTERRES
   185   94   95 1    
   186   94  215 1    
   187   95   96 1    
   188   95   97 1    
   189   95  216 1    
   190   96  217 1    
   191   96  218 1    
   192   96  219 1    
   193   97   98 2    
   194   97   99 am   BACKBONE|DICT|INTERRES
   195   99  100 1    
   196   99  220 1    
   197  100  101 1    
   198  100  102 1    
   199  100  221 1    
   200  101  222 1    
   201  101  223 1    
   202  101  224 1    
   203  102  103 2    
   204  102  104 am   BACKBONE|DICT|INTERRES
   205  104  105 1    
   206  104  225 1    
   207  105  106 1    
   208  105  107 1    
   209  105  226 1    
   210  106  227 1    
   211  106  228 1    
   212  106  229 1    
   213  107  108 2    
   214  107  109 am   BACKBONE|DICT|INTERRES
   215  109  110 1    
   216  109  230 1    
   217  110  111 1    
   218  110  112 1    
   219  110  231 1    
   220  111  232 1    
   221  111  233 1    
   222  111  234 1    
   223  112  113 2    
   224  112  114 am   BACKBONE|DICT|INTERRES
   225  114  115 1    
   226  114  235 1    
   227  115  116 1    
   228  115  117 1    
   229  115  236 1    
   230  116  237 1    
   231  116  238 1    
   232  116  239 1    
   233  117  118 2    
   234  117  119 am   BACKBONE|DICT|INTERRES
   235  119  120 1    
   236  119  240 1    
   237  120  121 1    
   238  120  124 1    
   239  120  241 1    
   240  121  122 am   BACKBONE|DICT|INTERRES
   241  121  123 2    
   242  122  242 1    
   243  122  243 1    
   244  124  125 1    
   245  124  244 1    
   246  124  245 1    
   247  125  126 1    
   248  126  246 1    
   249  126  247 1    
@<TRIPOS>SUBSTRUCTURE
     1 UNK         1 GROUP             0       ****    0 ROOT    
