@<TRIPOS>MOLECULE
3R540
247   249    1
SMALL
USER_CHARGES


@<TRIPOS>ATOM
      1 CA         -5.5005  -17.5570  -41.8534 C.3       0 UNK        -0.1800 
      2 C          -4.5922  -16.4949  -42.4552 C.2       0 UNK         0.5000 
      3 O          -4.3298  -15.4765  -41.8150 O.2       0 UNK        -0.5000 
      4 N          -4.0980  -16.7399  -43.6770 N.am      1 UNK        -0.5000 
      5 CA         -3.2425  -15.8402  -44.4673 C.3       1 UNK         0.1400 
      6 C6         -2.8968  -16.4295  -45.8578 C.3       23 UNK        -0.0398 
      7 S7         -4.3685  -16.9606  -46.7999 S.3       23 UNK        -0.2404 
      8 C8         -3.9702  -16.3745  -48.4760 C.3       23 UNK        -0.0205 
      9 C9         -3.0856  -17.3528  -49.2378 C.ar      23 UNK        -0.0193 
     10 C10        -3.6440  -18.1820  -50.2157 C.ar      23 UNK        -0.1150 
     11 C11        -2.8366  -19.0313  -50.9818 C.ar      23 UNK        -0.0193 
     12 C12        -1.4637  -19.0727  -50.7245 C.ar      23 UNK        -0.1150 
     13 C13        -0.8914  -18.2665  -49.7365 C.ar      23 UNK        -0.0193 
     14 C14        -1.7073  -17.4002  -49.0037 C.ar      23 UNK        -0.1150 
     15 C15         0.6134  -18.2982  -49.4971 C.3       23 UNK        -0.0205 
     16 S16         1.0923  -19.3456  -48.0830 S.3       23 UNK        -0.2404 
     17 C17         0.6667  -21.0225  -48.6731 C.3       23 UNK        -0.0398 
     18 CA         -0.1940  -21.8880  -47.7167 C.3       11 UNK         0.1400 
     19 N           0.6037  -22.5326  -46.6677 N.am      11 UNK        -0.5000 
     20 C           0.2392  -23.6696  -46.0569 C.2       10 UNK         0.5000 
     21 O          -0.8109  -24.2638  -46.2987 O.2       10 UNK        -0.5000 
     22 CA          1.1831  -24.2149  -44.9717 C.3       10 UNK         0.1400 
     23 CB          2.4323  -24.8497  -45.6015 C.3       10 UNK        -0.1800 
     24 N           1.5878  -23.1856  -44.0167 N.am      10 UNK        -0.5000 
     25 C           0.7584  -22.5739  -43.1591 C.2       9 UNK         0.5000 
     26 O          -0.4381  -22.8425  -43.0559 O.2       9 UNK        -0.5000 
     27 CA          1.3630  -21.4428  -42.3025 C.3       9 UNK         0.1400 
     28 CB          1.9080  -21.9996  -40.9793 C.3       9 UNK        -0.1800 
     29 N           2.4235  -20.6959  -42.9882 N.am      9 UNK        -0.5000 
     30 C           2.2476  -20.0026  -44.1204 C.2       8 UNK         0.5000 
     31 O           1.1658  -19.9219  -44.7052 O.2       8 UNK        -0.5000 
     32 CA          3.5022  -19.3633  -44.7366 C.3       8 UNK         0.1400 
     33 CB          4.2602  -20.4008  -45.5803 C.3       8 UNK        -0.1800 
     34 N           3.1372  -18.2435  -45.5991 N.am      8 UNK        -0.5000 
     35 C           2.8903  -17.0030  -45.1696 C.2       7 UNK         0.5000 
     36 O           3.0278  -16.6380  -43.9994 O.2       7 UNK        -0.5000 
     37 CA          2.3643  -16.0171  -46.2263 C.3       7 UNK         0.1400 
     38 CB          0.8305  -15.9992  -46.2228 C.3       7 UNK        -0.1800 
     39 N           2.8490  -14.6648  -45.9626 N.am      7 UNK        -0.5000 
     40 C           4.0592  -14.2087  -46.3084 C.2       6 UNK         0.5000 
     41 O           4.8731  -14.8568  -46.9677 O.2       6 UNK        -0.5000 
     42 CA          4.4211  -12.7863  -45.8388 C.3       6 UNK         0.1400 
     43 CB          3.9990  -11.7482  -46.8896 C.3       6 UNK        -0.1800 
     44 N           3.8132  -12.4358  -44.5540 N.am      6 UNK        -0.5000 
     45 C           4.1679  -12.9459  -43.3685 C.2       5 UNK         0.5000 
     46 O           5.0869  -13.7537  -43.2292 O.2       5 UNK        -0.5000 
     47 CA          3.3743  -12.4951  -42.1244 C.3       5 UNK         0.1400 
     48 CB          4.1020  -11.3560  -41.3852 C.3       5 UNK        -0.1800 
     49 N           1.9613  -12.1605  -42.3601 N.am      5 UNK        -0.5000 
     50 C           1.4283  -11.1318  -43.0391 C.2       4 UNK         0.5000 
     51 O           2.1029  -10.2993  -43.6453 O.2       4 UNK        -0.5000 
     52 CA         -0.1110  -11.0264  -43.0962 C.3       4 UNK         0.1400 
     53 CB         -0.6042  -11.1956  -44.5427 C.3       4 UNK        -0.1800 
     54 N          -0.7901  -12.0069  -42.2460 N.am      4 UNK        -0.5000 
     55 C          -0.9525  -11.8883  -40.9186 C.2       3 UNK         0.5000 
     56 O          -0.6189  -10.8886  -40.2818 O.2       3 UNK        -0.5000 
     57 CA         -1.5548  -13.0949  -40.1640 C.3       3 UNK         0.1400 
     58 CB         -3.0526  -12.8733  -39.9073 C.3       3 UNK        -0.1800 
     59 N          -1.3763  -14.3729  -40.8580 N.am      3 UNK        -0.5000 
     60 C          -0.1929  -14.9306  -41.1569 C.2       2 UNK         0.5000 
     61 O           0.8842  -14.4744  -40.7744 O.2       2 UNK        -0.5000 
     62 CA         -0.1976  -16.1541  -42.0956 C.3       2 UNK         0.1400 
     63 CB          0.0778  -17.4486  -41.3163 C.3       2 UNK        -0.1800 
     64 N          -1.4296  -16.3182  -42.8717 N.am      2 UNK        -0.5000 
     65 C          -1.9368  -15.4389  -43.7491 C.2       1 UNK         0.5000 
     66 O          -1.4263  -14.3445  -43.9861 O.2       1 UNK        -0.5000 
     67 C          -1.4401  -21.1771  -47.1426 C.2       11 UNK         0.5000 
     68 O          -2.4478  -21.0806  -47.8369 O.2       11 UNK        -0.5000 
     69 N          -1.3740  -20.7525  -45.8717 N.am      12 UNK        -0.5000 
     70 CA         -2.5074  -20.2368  -45.1069 C.3       12 UNK         0.1400 
     71 CB         -1.9911  -19.5956  -43.8125 C.3       12 UNK        -0.1800 
     72 C          -3.5612  -21.3120  -44.7886 C.2       12 UNK         0.5000 
     73 O          -4.7490  -20.9931  -44.7430 O.2       12 UNK        -0.5000 
     74 N          -3.1200  -22.5599  -44.5787 N.am      13 UNK        -0.5000 
     75 CA         -3.9967  -23.7211  -44.4376 C.3       13 UNK         0.1400 
     76 CB         -3.2344  -24.8701  -43.7593 C.3       13 UNK        -0.1800 
     77 C          -4.5605  -24.1504  -45.8033 C.2       13 UNK         0.5000 
     78 O          -5.7711  -24.3250  -45.9417 O.2       13 UNK        -0.5000 
     79 N          -3.6771  -24.2636  -46.8026 N.am      14 UNK        -0.5000 
     80 CA         -3.9884  -24.6195  -48.1871 C.3       14 UNK         0.1400 
     81 CB         -2.7695  -25.3493  -48.7826 C.3       14 UNK        -0.1800 
     82 C          -4.4052  -23.3972  -49.0341 C.2       14 UNK         0.5000 
     83 O          -3.9985  -23.2947  -50.1938 O.2       14 UNK        -0.5000 
     84 N          -5.2192  -22.4942  -48.4676 N.am      15 UNK        -0.5000 
     85 CA         -5.6058  -21.1914  -49.0307 C.3       15 UNK         0.1400 
     86 CB         -6.0983  -20.2784  -47.8954 C.3       15 UNK        -0.1800 
     87 C          -6.6008  -21.2651  -50.2144 C.2       15 UNK         0.5000 
     88 O          -7.5583  -20.4927  -50.2775 O.2       15 UNK        -0.5000 
     89 N          -6.3373  -22.1949  -51.1334 N.am      16 UNK        -0.5000 
     90 CA         -7.0268  -22.4689  -52.3900 C.3       16 UNK         0.1400 
     91 CB         -8.4947  -22.8811  -52.1628 C.3       16 UNK        -0.1800 
     92 C          -6.2667  -23.5828  -53.1251 C.2       16 UNK         0.5000 
     93 O          -6.0394  -23.4786  -54.3298 O.2       16 UNK        -0.5000 
     94 N          -5.8701  -24.6200  -52.3714 N.am      17 UNK        -0.5000 
     95 CA         -5.1402  -25.7918  -52.8574 C.3       17 UNK         0.1400 
     96 CB         -5.2185  -26.9032  -51.7997 C.3       17 UNK        -0.1800 
     97 C          -3.6772  -25.5059  -53.2489 C.2       17 UNK         0.5000 
     98 O          -3.1340  -26.2277  -54.0873 O.2       17 UNK        -0.5000 
     99 N          -3.0634  -24.4637  -52.6674 N.am      18 UNK        -0.5000 
    100 CA        -1.7352  -23.9564  -53.0202 C.3       18 UNK         0.1400 
    101 CB        -1.2058  -23.0698  -51.8786 C.3       18 UNK        -0.1800 
    102 C         -1.7601  -23.2278  -54.3808 C.2       18 UNK         0.5000 
    103 O         -1.6555  -22.0000  -54.4441 O.2       18 UNK        -0.5000 
    104 N         -1.9181  -24.0141  -55.4530 N.am      19 UNK        -0.5000 
    105 CA        -2.0949  -23.5892  -56.8444 C.3       19 UNK         0.1400 
    106 CB        -2.3337  -24.8328  -57.7130 C.3       19 UNK        -0.1800 
    107 C         -0.9449  -22.7409  -57.4219 C.2       19 UNK         0.5000 
    108 O         -1.1613  -22.0158  -58.3927 O.2       19 UNK        -0.5000 
    109 N          0.2398  -22.8049  -56.7995 N.am      20 UNK        -0.5000 
    110 CA         1.3902  -21.9491  -57.0967 C.3       20 UNK         0.1400 
    111 CB         2.5954  -22.4352  -56.2773 C.3       20 UNK        -0.1800 
    112 C          1.1276  -20.4507  -56.8319 C.2       20 UNK         0.5000 
    113 O          1.7656  -19.6105  -57.4679 O.2       20 UNK        -0.5000 
    114 N          0.1972  -20.1478  -55.9159 N.am      21 UNK        -0.5000 
    115 CA        -0.2423  -18.7942  -55.5833 C.3       21 UNK         0.1400 
    116 CB        -0.0032  -18.5471  -54.0868 C.3       21 UNK        -0.1800 
    117 C         -1.7241  -18.5833  -55.9367 C.2       21 UNK         0.5000 
    118 O         -2.0660  -17.5367  -56.4886 O.2       21 UNK        -0.5000 
    119 N         -2.5733  -19.5688  -55.6178 N.am      22 UNK        -0.5000 
    120 CA        -4.0359  -19.5069  -55.7905 C.3       22 UNK         0.1400 
    121 C         -4.5556  -20.0750  -57.1436 C.2       22 UNK         0.5000 
    122 N         -3.7098  -20.5216  -58.0618 N.am      22 UNK        -0.7600 
    123 O         -5.7597  -20.0852  -57.3841 O.2       22 UNK        -0.5000 
    124 C124       -4.7700  -20.1309  -54.5734 C.3       23 UNK        -0.0398 
    125 S125       -4.6609  -19.0495  -53.1076 S.3       23 UNK        -0.2404 
    126 C126       -3.4187  -19.9076  -52.0894 C.3       23 UNK        -0.0205 
    127 H127       -5.6169  -18.4147  -42.5167 H         1 UNK         0.0600 
    128 H128       -6.4884  -17.1391  -41.6599 H         1 UNK         0.0600 
    129 H129       -5.0879  -17.9115  -40.9089 H         1 UNK         0.0600 
    130 H130       -4.3931  -17.5758  -44.1612 H         1 UNK         0.3000 
    131 H131       -3.8124  -14.9217  -44.6222 H         1 UNK         0.0600 
    132 H132       -2.3547  -15.6816  -46.4387 H         1 UNK         0.0800 
    133 H133       -2.2227  -17.2820  -45.7691 H         1 UNK         0.0800 
    134 H134       -4.9075  -16.2271  -49.0146 H         1 UNK         0.0800 
    135 H135       -3.4967  -15.3928  -48.4354 H         1 UNK         0.0800 
    136 H136       -4.7086  -18.1470  -50.3983 H         1 UNK         0.1150 
    137 H137       -0.8340  -19.7332  -51.3012 H         1 UNK         0.1150 
    138 H138       -1.2650  -16.7576  -48.2580 H         1 UNK         0.1150 
    139 H139        1.1351  -18.6411  -50.3921 H         1 UNK         0.0800 
    140 H140        0.9690  -17.2834  -49.3135 H         1 UNK         0.0800 
    141 H141        1.5969  -21.5426  -48.9049 H         1 UNK         0.0800 
    142 H142        0.1504  -20.9468  -49.6277 H         1 UNK         0.0800 
    143 H143       -0.5880  -22.6939  -48.3402 H         1 UNK         0.0600 
    144 H144        1.4453  -22.0572  -46.3788 H         1 UNK         0.3000 
    145 H145        0.6459  -24.9926  -44.4242 H         1 UNK         0.0600 
    146 H146        3.0612  -25.3164  -44.8431 H         1 UNK         0.0600 
    147 H147        2.1567  -25.6265  -46.3160 H         1 UNK         0.0600 
    148 H148        3.0379  -24.1144  -46.1329 H         1 UNK         0.0600 
    149 H149        2.5563  -22.9039  -44.0298 H         1 UNK         0.3000 
    150 H150        0.5600  -20.7424  -42.0683 H         1 UNK         0.0600 
    151 H151        2.7390  -22.6870  -41.1425 H         1 UNK         0.0600 
    152 H152        1.1336  -22.5434  -40.4365 H         1 UNK         0.0600 
    153 H153        2.2568  -21.1980  -40.3280 H         1 UNK         0.0600 
    154 H154        3.3416  -20.7301  -42.5688 H         1 UNK         0.3000 
    155 H155        4.1548  -19.0112  -43.9348 H         1 UNK         0.0600 
    156 H156        3.6440  -20.7898  -46.3921 H         1 UNK         0.0600 
    157 H157        4.5776  -21.2488  -44.9722 H         1 UNK         0.0600 
    158 H158        5.1578  -19.9673  -46.0218 H         1 UNK         0.0600 
    159 H159        2.9011  -18.4832  -46.5521 H         1 UNK         0.3000 
    160 H160        2.7041  -16.3371  -47.2139 H         1 UNK         0.0600 
    161 H161        0.4390  -15.3640  -47.0173 H         1 UNK         0.0600 
    162 H162        0.4528  -15.6241  -45.2749 H         1 UNK         0.0600 
    163 H163        0.4196  -16.9991  -46.3647 H         1 UNK         0.0600 
    164 H164        2.2710  -14.0839  -45.3748 H         1 UNK         0.3000 
    165 H165        5.5066  -12.7389  -45.7283 H         1 UNK         0.0600 
    166 H166        4.4513  -11.9660  -47.8581 H         1 UNK         0.0600 
    167 H167        2.9171  -11.7319  -47.0276 H         1 UNK         0.0600 
    168 H168        4.3152  -10.7453  -46.6019 H         1 UNK         0.0600 
    169 H169        3.1010  -11.7130  -44.5555 H         1 UNK         0.3000 
    170 H170        3.3558  -13.3548  -41.4529 H         1 UNK         0.0600 
    171 H171        3.5764  -11.0808  -40.4708 H         1 UNK         0.0600 
    172 H172        4.1954  -10.4620  -42.0022 H         1 UNK         0.0600 
    173 H173        5.1103  -11.6598  -41.1013 H         1 UNK         0.0600 
    174 H174        1.3161  -12.8047  -41.9166 H         1 UNK         0.3000 
    175 H175       -0.3825  -10.0230  -42.7619 H         1 UNK         0.0600 
    176 H176       -1.6917  -11.1449  -44.5994 H         1 UNK         0.0600 
    177 H177       -0.2093  -10.4075  -45.1851 H         1 UNK         0.0600 
    178 H178       -0.2897  -12.1494  -44.9675 H         1 UNK         0.0600 
    179 H179       -1.0913  -12.8605  -42.7075 H         1 UNK         0.3000 
    180 H180       -1.0468  -13.1654  -39.2001 H         1 UNK         0.0600 
    181 H181       -3.6142  -12.8122  -40.8406 H         1 UNK         0.0600 
    182 H182       -3.2238  -11.9465  -39.3583 H         1 UNK         0.0600 
    183 H183       -3.4762  -13.6849  -39.3153 H         1 UNK         0.0600 
    184 H184       -2.2177  -14.8057  -41.2197 H         1 UNK         0.3000 
    185 H185        0.6180  -16.0077  -42.8058 H         1 UNK         0.0600 
    186 H186        0.9948  -17.3661  -40.7313 H         1 UNK         0.0600 
    187 H187       -0.7336  -17.6849  -40.6270 H         1 UNK         0.0600 
    188 H188        0.2055  -18.2932  -41.9931 H         1 UNK         0.0600 
    189 H189       -1.9457  -17.1694  -42.7108 H         1 UNK         0.3000 
    190 H190       -0.4749  -20.7669  -45.4003 H         1 UNK         0.3000 
    191 H191       -2.9969  -19.4710  -45.7095 H         1 UNK         0.0600 
    192 H192       -1.2691  -18.8093  -44.0290 H         1 UNK         0.0600 
    193 H193       -2.8068  -19.1607  -43.2360 H         1 UNK         0.0600 
    194 H194       -1.5019  -20.3284  -43.1725 H         1 UNK         0.0600 
    195 H195       -2.1228  -22.7329  -44.5671 H         1 UNK         0.3000 
    196 H196       -4.8369  -23.4517  -43.7939 H         1 UNK         0.0600 
    197 H197       -3.8792  -25.7394  -43.6255 H         1 UNK         0.0600 
    198 H198       -2.8768  -24.5743  -42.7728 H         1 UNK         0.0600 
    199 H199       -2.3707  -25.1890  -44.3427 H         1 UNK         0.0600 
    200 H200       -2.6934  -24.1084  -46.5983 H         1 UNK         0.3000 
    201 H201       -4.8295  -25.3153  -48.1977 H         1 UNK         0.0600 
    202 H202       -2.9564  -25.6836  -49.8025 H         1 UNK         0.0600 
    203 H203       -1.8927  -24.7026  -48.8110 H         1 UNK         0.0600 
    204 H204       -2.5130  -26.2312  -48.1955 H         1 UNK         0.0600 
    205 H205       -5.5398  -22.6835  -47.5278 H         1 UNK         0.3000 
    206 H206       -4.6990  -20.7341  -49.4272 H         1 UNK         0.0600 
    207 H207       -5.3114  -20.1219  -47.1589 H         1 UNK         0.0600 
    208 H208       -6.3738  -19.2915  -48.2692 H         1 UNK         0.0600 
    209 H209       -6.9657  -20.6979  -47.3853 H         1 UNK         0.0600 
    210 H210       -5.4804  -22.7240  -50.9825 H         1 UNK         0.3000 
    211 H211       -6.9972  -21.5670  -53.0035 H         1 UNK         0.0600 
    212 H212       -8.5759  -23.7199  -51.4708 H         1 UNK         0.0600 
    213 H213       -8.9644  -23.1813  -53.1004 H         1 UNK         0.0600 
    214 H214       -9.0861  -22.0586  -51.7617 H         1 UNK         0.0600 
    215 H215       -6.1267  -24.6296  -51.3959 H         1 UNK         0.3000 
    216 H216       -5.6448  -26.1501  -53.7572 H         1 UNK         0.0600 
    217 H217       -4.6618  -27.7867  -52.1153 H         1 UNK         0.0600 
    218 H218       -6.2501  -27.2145  -51.6342 H         1 UNK         0.0600 
    219 H219       -4.8107  -26.5813  -50.8424 H         1 UNK         0.0600 
    220 H220       -3.5513  -23.9556  -51.9363 H         1 UNK         0.3000 
    221 H221       -1.0527  -24.8033  -53.1166 H         1 UNK         0.0600 
    222 H222       -1.8807  -22.2449  -51.6582 H         1 UNK         0.0600 
    223 H223       -1.0826  -23.6456  -50.9617 H         1 UNK         0.0600 
    224 H224       -0.2335  -22.6434  -52.1280 H         1 UNK         0.0600 
    225 H225       -2.0670  -25.0013  -55.2701 H         1 UNK         0.3000 
    226 H226       -2.9962  -22.9750  -56.8765 H         1 UNK         0.0600 
    227 H227       -2.5105  -24.5569  -58.7535 H         1 UNK         0.0600 
    228 H228       -1.4767  -25.5072  -57.6919 H         1 UNK         0.0600 
    229 H229       -3.2077  -25.3891  -57.3732 H         1 UNK         0.0600 
    230 H230        0.3301  -23.4325  -56.0146 H         1 UNK         0.3000 
    231 H231        1.6265  -22.0599  -58.1570 H         1 UNK         0.0600 
    232 H232        2.4064  -22.3668  -55.2051 H         1 UNK         0.0600 
    233 H233        3.4815  -21.8368  -56.4932 H         1 UNK         0.0600 
    234 H234        2.8402  -23.4715  -56.5110 H         1 UNK         0.0600 
    235 H235       -0.2871  -20.9062  -55.4482 H         1 UNK         0.3000 
    236 H236        0.3318  -18.0517  -56.1413 H         1 UNK         0.0600 
    237 H237       -0.3887  -17.5748  -53.7772 H         1 UNK         0.0600 
    238 H238       -0.4950  -19.3071  -53.4826 H         1 UNK         0.0600 
    239 H239        1.0604  -18.5694  -53.8494 H         1 UNK         0.0600 
    240 H240       -2.2190  -20.4095  -55.1701 H         1 UNK         0.3000 
    241 H241       -4.3306  -18.4563  -55.8265 H         1 UNK         0.0600 
    242 H242       -2.7118  -20.5353  -57.9077 H         1 UNK         0.3800 
    243 H243       -4.0757  -20.8651  -58.9353 H         1 UNK         0.3800 
    244 H244       -4.3821  -21.1257  -54.3486 H         1 UNK         0.0800 
    245 H245       -5.8331  -20.2625  -54.7806 H         1 UNK         0.0800 
    246 H246       -2.6181  -20.2404  -52.7484 H         1 UNK         0.0800 
    247 H247       -3.8566  -20.8051  -51.6551 H         1 UNK         0.0800 
@<TRIPOS>BOND
     1    1    2 1    
     2    1  127 1    
     3    1  128 1    
     4    1  129 1    
     5    2    3 2    
     6    2    4 am   BACKBONE|DICT|INTERRES
     7    4    5 1    
     8    4  130 1    
     9    5    6 1    
    10    5   65 1    
    11    5  131 1    
    12    6    7 1    
    13    6  132 1    
    14    6  133 1    
    15    7    8 1    
    16    8    9 1    
    17    8  134 1    
    18    8  135 1    
    19    9   10 ar   
    20    9   14 ar   
    21   10   11 ar   
    22   10  136 1    
    23   11   12 ar   
    24   11  126 1    
    25   12   13 ar   
    26   12  137 1    
    27   13   14 ar   
    28   13   15 1    
    29   14  138 1    
    30   15   16 1    
    31   15  139 1    
    32   15  140 1    
    33   16   17 1    
    34   17   18 1    
    35   17  141 1    
    36   17  142 1    
    37   18   19 1    
    38   18   67 1    
    39   18  143 1    
    40   19   20 am   BACKBONE|DICT|INTERRES
    41   19  144 1    
    42   20   21 2    
    43   20   22 1    
    44   22   23 1    
    45   22   24 1    
    46   22  145 1    
    47   23  146 1    
    48   23  147 1    
    49   23  148 1    
    50   24   25 am   BACKBONE|DICT|INTERRES
    51   24  149 1    
    52   25   26 2    
    53   25   27 1    
    54   27   28 1    
    55   27   29 1    
    56   27  150 1    
    57   28  151 1    
    58   28  152 1    
    59   28  153 1    
    60   29   30 am   BACKBONE|DICT|INTERRES
    61   29  154 1    
    62   30   31 2    
    63   30   32 1    
    64   32   33 1    
    65   32   34 1    
    66   32  155 1    
    67   33  156 1    
    68   33  157 1    
    69   33  158 1    
    70   34   35 am   BACKBONE|DICT|INTERRES
    71   34  159 1    
    72   35   36 2    
    73   35   37 1    
    74   37   38 1    
    75   37   39 1    
    76   37  160 1    
    77   38  161 1    
    78   38  162 1    
    79   38  163 1    
    80   39   40 am   BACKBONE|DICT|INTERRES
    81   39  164 1    
    82   40   41 2    
    83   40   42 1    
    84   42   43 1    
    85   42   44 1    
    86   42  165 1    
    87   43  166 1    
    88   43  167 1    
    89   43  168 1    
    90   44   45 am   BACKBONE|DICT|INTERRES
    91   44  169 1    
    92   45   46 2    
    93   45   47 1    
    94   47   48 1    
    95   47   49 1    
    96   47  170 1    
    97   48  171 1    
    98   48  172 1    
    99   48  173 1    
   100   49   50 am   BACKBONE|DICT|INTERRES
   101   49  174 1    
   102   50   51 2    
   103   50   52 1    
   104   52   53 1    
   105   52   54 1    
   106   52  175 1    
   107   53  176 1    
   108   53  177 1    
   109   53  178 1    
   110   54   55 am   BACKBONE|DICT|INTERRES
   111   54  179 1    
   112   55   56 2    
   113   55   57 1    
   114   57   58 1    
   115   57   59 1    
   116   57  180 1    
   117   58  181 1    
   118   58  182 1    
   119   58  183 1    
   120   59   60 am   BACKBONE|DICT|INTERRES
   121   59  184 1    
   122   60   61 2    
   123   60   62 1    
   124   62   63 1    
   125   62   64 1    
   126   62  185 1    
   127   63  186 1    
   128   63  187 1    
   129   63  188 1    
   130   64   65 am   BACKBONE|DICT|INTERRES
   131   64  189 1    
   132   65   66 2    
   133   67   68 2    
   134   67   69 am   BACKBONE|DICT|INTERRES
   135   69   70 1    
   136   69  190 1    
   137   70   71 1    
   138   70   72 1    
   139   70  191 1    
   140   71  192 1    
   141   71  193 1    
   142   71  194 1    
   143   72   73 2    
   144   72   74 am   BACKBONE|DICT|INTERRES
   145   74   75 1    
   146   74  195 1    
   147   75   76 1    
   148   75   77 1    
   149   75  196 1    
   150   76  197 1    
   151   76  198 1    
   152   76  199 1    
   153   77   78 2    
   154   77   79 am   BACKBONE|DICT|INTERRES
   155   79   80 1    
   156   79  200 1    
   157   80   81 1    
   158   80   82 1    
   159   80  201 1    
   160   81  202 1    
   161   81  203 1    
   162   81  204 1    
   163   82   83 2    
   164   82   84 am   BACKBONE|DICT|INTERRES
   165   84   85 1    
   166   84  205 1    
   167   85   86 1    
   168   85   87 1    
   169   85  206 1    
   170   86  207 1    
   171   86  208 1    
   172   86  209 1    
   173   87   88 2    
   174   87   89 am   BACKBONE|DICT|INTERRES
   175   89   90 1    
   176   89  210 1    
   177   90   91 1    
   178   90   92 1    
   179   90  211 1    
   180   91  212 1    
   181   91  213 1    
   182   91  214 1    
   183   92   93 2    
   184   92   94 am   BACKBONE|DICT|INTERRES
   185   94   95 1    
   186   94  215 1    
   187   95   96 1    
   188   95   97 1    
   189   95  216 1    
   190   96  217 1    
   191   96  218 1    
   192   96  219 1    
   193   97   98 2    
   194   97   99 am   BACKBONE|DICT|INTERRES
   195   99  100 1    
   196   99  220 1    
   197  100  101 1    
   198  100  102 1    
   199  100  221 1    
   200  101  222 1    
   201  101  223 1    
   202  101  224 1    
   203  102  103 2    
   204  102  104 am   BACKBONE|DICT|INTERRES
   205  104  105 1    
   206  104  225 1    
   207  105  106 1    
   208  105  107 1    
   209  105  226 1    
   210  106  227 1    
   211  106  228 1    
   212  106  229 1    
   213  107  108 2    
   214  107  109 am   BACKBONE|DICT|INTERRES
   215  109  110 1    
   216  109  230 1    
   217  110  111 1    
   218  110  112 1    
   219  110  231 1    
   220  111  232 1    
   221  111  233 1    
   222  111  234 1    
   223  112  113 2    
   224  112  114 am   BACKBONE|DICT|INTERRES
   225  114  115 1    
   226  114  235 1    
   227  115  116 1    
   228  115  117 1    
   229  115  236 1    
   230  116  237 1    
   231  116  238 1    
   232  116  239 1    
   233  117  118 2    
   234  117  119 am   BACKBONE|DICT|INTERRES
   235  119  120 1    
   236  119  240 1    
   237  120  121 1    
   238  120  124 1    
   239  120  241 1    
   240  121  122 am   BACKBONE|DICT|INTERRES
   241  121  123 2    
   242  122  242 1    
   243  122  243 1    
   244  124  125 1    
   245  124  244 1    
   246  124  245 1    
   247  125  126 1    
   248  126  246 1    
   249  126  247 1    
@<TRIPOS>SUBSTRUCTURE
     1 UNK         1 GROUP             0       ****    0 ROOT    
