@<TRIPOS>MOLECULE
3R540
247   249    1
SMALL
USER_CHARGES


@<TRIPOS>ATOM
      1 CA          1.7426   -8.5397  -47.5751 C.3       0 UNK        -0.1800 
      2 C           1.8105  -10.0590  -47.5445 C.2       0 UNK         0.5000 
      3 O           1.8712  -10.6432  -46.4630 O.2       0 UNK        -0.5000 
      4 N           1.7829  -10.6978  -48.7236 N.am      1 UNK        -0.5000 
      5 CA          1.8661  -12.1510  -48.9396 C.3       1 UNK         0.1400 
      6 C6          1.7522  -12.4842  -50.4509 C.3       23 UNK        -0.0398 
      7 S7          2.0861  -14.2325  -50.8580 S.3       23 UNK        -0.2404 
      8 C8          0.4026  -14.8458  -51.1939 C.3       23 UNK        -0.0205 
      9 C9          0.3210  -16.3402  -50.9377 C.ar      23 UNK        -0.0193 
     10 C10         0.5762  -17.2551  -51.9629 C.ar      23 UNK        -0.1150 
     11 C11         0.5666  -18.6296  -51.7042 C.ar      23 UNK        -0.0193 
     12 C12         0.2994  -19.0839  -50.4087 C.ar      23 UNK        -0.1150 
     13 C13         0.0216  -18.1768  -49.3817 C.ar      23 UNK        -0.0193 
     14 C14         0.0225  -16.8072  -49.6559 C.ar      23 UNK        -0.1150 
     15 C15        -0.2283  -18.6684  -47.9663 C.3       23 UNK        -0.0205 
     16 S16        -1.9248  -19.2735  -47.7309 S.3       23 UNK        -0.2404 
     17 C17        -1.8006  -19.8091  -45.9925 C.3       23 UNK        -0.0398 
     18 CA         -1.2101  -21.2364  -45.8615 C.3       11 UNK         0.1400 
     19 N          -0.3235  -21.3662  -44.7008 N.am      11 UNK        -0.5000 
     20 C           0.5325  -22.3779  -44.4976 C.2       10 UNK         0.5000 
     21 O           0.6694  -23.3169  -45.2826 O.2       10 UNK        -0.5000 
     22 CA          1.3203  -22.3796  -43.1721 C.3       10 UNK         0.1400 
     23 CB          2.7283  -21.8038  -43.3778 C.3       10 UNK        -0.1800 
     24 N           0.6647  -21.6727  -42.0649 N.am      10 UNK        -0.5000 
     25 C          -0.5413  -21.9786  -41.5584 C.2       9 UNK         0.5000 
     26 O          -1.2769  -22.8370  -42.0483 O.2       9 UNK        -0.5000 
     27 CA         -1.0177  -21.1800  -40.3253 C.3       9 UNK         0.1400 
     28 CB         -2.0091  -21.9720  -39.4471 C.3       9 UNK        -0.1800 
     29 N           0.0792  -20.6301  -39.5211 N.am      9 UNK        -0.5000 
     30 C           1.0281  -21.3065  -38.8521 C.2       8 UNK         0.5000 
     31 O           1.0603  -22.5353  -38.7708 O.2       8 UNK        -0.5000 
     32 CA          2.1315  -20.4656  -38.1645 C.3       8 UNK         0.1400 
     33 CB          3.4872  -21.2014  -38.1134 C.3       8 UNK        -0.1800 
     34 N           2.2960  -19.1181  -38.7306 N.am      8 UNK        -0.5000 
     35 C           2.6235  -18.8130  -39.9941 C.2       7 UNK         0.5000 
     36 O           2.8785  -19.6489  -40.8639 O.2       7 UNK        -0.5000 
     37 CA          2.5972  -17.3172  -40.3616 C.3       7 UNK         0.1400 
     38 CB          4.0232  -16.7689  -40.5141 C.3       7 UNK        -0.1800 
     39 N           1.8559  -17.0792  -41.6007 N.am      7 UNK        -0.5000 
     40 C           0.5820  -17.4372  -41.8244 C.2       6 UNK         0.5000 
     41 O          -0.1409  -17.9435  -40.9641 O.2       6 UNK        -0.5000 
     42 CA          0.0137  -17.2202  -43.2393 C.3       6 UNK         0.1400 
     43 CB         -1.2113  -16.2963  -43.2145 C.3       6 UNK        -0.1800 
     44 N           1.0054  -16.6850  -44.1738 N.am      6 UNK        -0.5000 
     45 C           1.8207  -17.4301  -44.9330 C.2       5 UNK         0.5000 
     46 O           1.7424  -18.6560  -45.0024 O.2       5 UNK        -0.5000 
     47 CA          2.9141  -16.6968  -45.7366 C.3       5 UNK         0.1400 
     48 CB          2.7665  -16.9239  -47.2470 C.3       5 UNK        -0.1800 
     49 N           2.9471  -15.2560  -45.4750 N.am      5 UNK        -0.5000 
     50 C           3.6350  -14.6970  -44.4715 C.2       4 UNK         0.5000 
     51 O           4.2858  -15.3424  -43.6496 O.2       4 UNK        -0.5000 
     52 CA          3.5622  -13.1662  -44.3471 C.3       4 UNK         0.1400 
     53 CB          4.4664  -12.4947  -45.3922 C.3       4 UNK        -0.1800 
     54 N           2.2067  -12.6289  -44.4659 N.am      4 UNK        -0.5000 
     55 C           1.1938  -12.8884  -43.6269 C.2       3 UNK         0.5000 
     56 O           1.2619  -13.6970  -42.7015 O.2       3 UNK        -0.5000 
     57 CA         -0.1173  -12.1247  -43.8703 C.3       3 UNK         0.1400 
     58 CB          0.0116  -10.6600  -43.4221 C.3       3 UNK        -0.1800 
     59 N          -0.4801  -12.1702  -45.2845 N.am      3 UNK        -0.5000 
     60 C          -1.3799  -13.0128  -45.8089 C.2       2 UNK         0.5000 
     61 O          -2.0871  -13.7599  -45.1343 O.2       2 UNK        -0.5000 
     62 CA         -1.5314  -13.0370  -47.3439 C.3       2 UNK         0.1400 
     63 CB         -2.8211  -12.3188  -47.7696 C.3       2 UNK        -0.1800 
     64 N          -0.4067  -12.4519  -48.0754 N.am      2 UNK        -0.5000 
     65 C           0.8402  -12.9425  -48.0979 C.2       1 UNK         0.5000 
     66 O           1.2022  -13.9289  -47.4552 O.2       1 UNK        -0.5000 
     67 C          -2.3071  -22.3225  -45.9321 C.2       11 UNK         0.5000 
     68 O          -2.8972  -22.5011  -46.9968 O.2       11 UNK        -0.5000 
     69 N          -2.5389  -23.0728  -44.8427 N.am      12 UNK        -0.5000 
     70 CA         -3.4140  -24.2488  -44.8309 C.3       12 UNK         0.1400 
     71 CB         -3.5527  -24.7738  -43.3950 C.3       12 UNK        -0.1800 
     72 C          -2.9223  -25.3674  -45.7724 C.2       12 UNK         0.5000 
     73 O          -3.7450  -26.0391  -46.3947 O.2       12 UNK        -0.5000 
     74 N          -1.5945  -25.5046  -45.9151 N.am      13 UNK        -0.5000 
     75 CA         -0.9530  -26.4285  -46.8557 C.3       13 UNK         0.1400 
     76 CB          0.5235  -26.5989  -46.4680 C.3       13 UNK        -0.1800 
     77 C          -1.0785  -25.9729  -48.3243 C.2       13 UNK         0.5000 
     78 O          -0.9993  -26.8068  -49.2263 O.2       13 UNK        -0.5000 
     79 N          -1.2974  -24.6681  -48.5335 N.am      14 UNK        -0.5000 
     80 CA         -1.5598  -24.0413  -49.8293 C.3       14 UNK         0.1400 
     81 CB         -0.8354  -22.6851  -49.8752 C.3       14 UNK        -0.1800 
     82 C          -3.0698  -23.8662  -50.0896 C.2       14 UNK         0.5000 
     83 O          -3.4355  -23.1681  -51.0342 O.2       14 UNK        -0.5000 
     84 N          -3.9227  -24.4599  -49.2385 N.am      15 UNK        -0.5000 
     85 CA         -5.3887  -24.4170  -49.2783 C.3       15 UNK         0.1400 
     86 CB         -5.9084  -25.2499  -50.4673 C.3       15 UNK        -0.1800 
     87 C          -5.9548  -22.9793  -49.2480 C.2       15 UNK         0.5000 
     88 O          -6.9020  -22.6675  -49.9720 O.2       15 UNK        -0.5000 
     89 N          -5.3276  -22.1212  -48.4287 N.am      16 UNK        -0.5000 
     90 CA         -5.5868  -20.6852  -48.2752 C.3       16 UNK         0.1400 
     91 CB         -6.9996  -20.4306  -47.7097 C.3       16 UNK        -0.1800 
     92 C          -5.2925  -19.8713  -49.5545 C.2       16 UNK         0.5000 
     93 O          -5.8887  -18.8125  -49.7603 O.2       16 UNK        -0.5000 
     94 N          -4.3825  -20.3881  -50.3931 N.am      17 UNK        -0.5000 
     95 CA         -3.8601  -19.8583  -51.6562 C.3       17 UNK         0.1400 
     96 CB         -3.2203  -18.4703  -51.4700 C.3       17 UNK        -0.1800 
     97 C          -4.8743  -19.8400  -52.8117 C.2       17 UNK         0.5000 
     98 O          -4.5291  -20.2405  -53.9235 O.2       17 UNK        -0.5000 
     99 N          -6.0991  -19.3758  -52.5398 N.am      18 UNK        -0.5000 
    100 CA        -7.1689  -19.1585  -53.5127 C.3       18 UNK         0.1400 
    101 CB        -8.3491  -18.4675  -52.8134 C.3       18 UNK        -0.1800 
    102 C         -7.6368  -20.4383  -54.2266 C.2       18 UNK         0.5000 
    103 O         -7.9112  -20.3916  -55.4262 O.2       18 UNK        -0.5000 
    104 N         -7.7092  -21.5550  -53.4891 N.am      19 UNK        -0.5000 
    105 CA        -8.1164  -22.8541  -54.0281 C.3       19 UNK         0.1400 
    106 CB        -8.5958  -23.7551  -52.8827 C.3       19 UNK        -0.1800 
    107 C         -6.9985  -23.5392  -54.8357 C.2       19 UNK         0.5000 
    108 O         -7.2996  -24.2686  -55.7814 O.2       19 UNK        -0.5000 
    109 N         -5.7353  -23.2896  -54.4627 N.am      20 UNK        -0.5000 
    110 CA        -4.5568  -23.7840  -55.1768 C.3       20 UNK         0.1400 
    111 CB        -3.3503  -23.7869  -54.2262 C.3       20 UNK        -0.1800 
    112 C         -4.2407  -22.9554  -56.4346 C.2       20 UNK         0.5000 
    113 O         -3.6981  -23.5031  -57.3948 O.2       20 UNK        -0.5000 
    114 N         -4.5693  -21.6549  -56.3906 N.am      21 UNK        -0.5000 
    115 CA        -4.2574  -20.6183  -57.3793 C.3       21 UNK         0.1400 
    116 CB        -4.9817  -20.8839  -58.7154 C.3       21 UNK        -0.1800 
    117 C         -2.7353  -20.4103  -57.5317 C.2       21 UNK         0.5000 
    118 O         -2.2369  -20.2291  -58.6442 O.2       21 UNK        -0.5000 
    119 N         -2.0235  -20.4648  -56.3983 N.am      22 UNK        -0.5000 
    120 CA        -0.5572  -20.3743  -56.3093 C.3       22 UNK         0.1400 
    121 C          0.0365  -18.9429  -56.4745 C.2       22 UNK         0.5000 
    122 N         -0.7669  -17.8867  -56.5123 N.am      22 UNK        -0.7600 
    123 O          1.2501  -18.7907  -56.5844 O.2       22 UNK        -0.5000 
    124 C124       -0.0266  -21.0914  -55.0401 C.3       23 UNK        -0.0398 
    125 S125       -0.6438  -20.3695  -53.4796 S.3       23 UNK        -0.2404 
    126 C126        0.8740  -19.6178  -52.8181 C.3       23 UNK        -0.0205 
    127 H127        2.6315   -8.1169  -47.1071 H         1 UNK         0.0600 
    128 H128        1.6777   -8.1558  -48.5933 H         1 UNK         0.0600 
    129 H129        0.8686   -8.1936  -47.0235 H         1 UNK         0.0600 
    130 H130        1.7263  -10.1409  -49.5645 H         1 UNK         0.3000 
    131 H131        2.8581  -12.4574  -48.6019 H         1 UNK         0.0600 
    132 H132        0.7763  -12.1914  -50.8420 H         1 UNK         0.0800 
    133 H133        2.4794  -11.8904  -51.0064 H         1 UNK         0.0800 
    134 H134        0.1302  -14.6176  -52.2254 H         1 UNK         0.0800 
    135 H135       -0.3226  -14.3317  -50.5613 H         1 UNK         0.0800 
    136 H136        0.8030  -16.8962  -52.9571 H         1 UNK         0.1150 
    137 H137        0.3071  -20.1433  -50.2001 H         1 UNK         0.1150 
    138 H138       -0.1729  -16.0993  -48.8624 H         1 UNK         0.1150 
    139 H139        0.4845  -19.4585  -47.7257 H         1 UNK         0.0800 
    140 H140       -0.0480  -17.8638  -47.2532 H         1 UNK         0.0800 
    141 H141       -1.1714  -19.0836  -45.4792 H         1 UNK         0.0800 
    142 H142       -2.7811  -19.7288  -45.5196 H         1 UNK         0.0800 
    143 H143       -0.5694  -21.4179  -46.7271 H         1 UNK         0.0600 
    144 H144       -0.3688  -20.6400  -44.0030 H         1 UNK         0.3000 
    145 H145        1.4254  -23.4234  -42.8697 H         1 UNK         0.0600 
    146 H146        3.3413  -21.9371  -42.4862 H         1 UNK         0.0600 
    147 H147        3.2416  -22.3009  -44.2019 H         1 UNK         0.0600 
    148 H148        2.6969  -20.7377  -43.6036 H         1 UNK         0.0600 
    149 H149        1.2182  -20.9605  -41.6031 H         1 UNK         0.3000 
    150 H150       -1.5563  -20.3191  -40.7232 H         1 UNK         0.0600 
    151 H151       -2.9043  -22.2379  -40.0105 H         1 UNK         0.0600 
    152 H152       -2.3318  -21.3842  -38.5879 H         1 UNK         0.0600 
    153 H153       -1.5725  -22.8993  -39.0758 H         1 UNK         0.0600 
    154 H154        0.1601  -19.6207  -39.5616 H         1 UNK         0.3000 
    155 H155        1.7975  -20.3225  -37.1359 H         1 UNK         0.0600 
    156 H156        4.2478  -20.5935  -37.6235 H         1 UNK         0.0600 
    157 H157        3.8497  -21.4534  -39.1104 H         1 UNK         0.0600 
    158 H158        3.4077  -22.1323  -37.5509 H         1 UNK         0.0600 
    159 H159        2.0826  -18.3597  -38.0971 H         1 UNK         0.3000 
    160 H160        2.0957  -16.7620  -39.5664 H         1 UNK         0.0600 
    161 H161        4.5594  -17.2656  -41.3239 H         1 UNK         0.0600 
    162 H162        4.5989  -16.9146  -39.5993 H         1 UNK         0.0600 
    163 H163        4.0139  -15.6995  -40.7267 H         1 UNK         0.0600 
    164 H164        2.3803  -16.6765  -42.3636 H         1 UNK         0.3000 
    165 H165       -0.3209  -18.1997  -43.5804 H         1 UNK         0.0600 
    166 H166       -0.9522  -15.2872  -42.8942 H         1 UNK         0.0600 
    167 H167       -1.6669  -16.2311  -44.2024 H         1 UNK         0.0600 
    168 H168       -1.9760  -16.6708  -42.5331 H         1 UNK         0.0600 
    169 H169        1.1452  -15.6840  -44.1565 H         1 UNK         0.3000 
    170 H170        3.8665  -17.1393  -45.4372 H         1 UNK         0.0600 
    171 H171        2.7272  -17.9864  -47.4894 H         1 UNK         0.0600 
    172 H172        1.8600  -16.4607  -47.6292 H         1 UNK         0.0600 
    173 H173        3.6083  -16.4977  -47.7927 H         1 UNK         0.0600 
    174 H174        2.4018  -14.6693  -46.1024 H         1 UNK         0.3000 
    175 H175        3.9349  -12.8991  -43.3561 H         1 UNK         0.0600 
    176 H176        4.1192  -12.6883  -46.4077 H         1 UNK         0.0600 
    177 H177        4.4960  -11.4141  -45.2509 H         1 UNK         0.0600 
    178 H178        5.4911  -12.8610  -45.3180 H         1 UNK         0.0600 
    179 H179        2.0660  -11.9398  -45.2017 H         1 UNK         0.3000 
    180 H180       -0.8943  -12.5906  -43.2605 H         1 UNK         0.0600 
    181 H181        0.2833  -10.5980  -42.3676 H         1 UNK         0.0600 
    182 H182        0.7733  -10.1242  -43.9895 H         1 UNK         0.0600 
    183 H183       -0.9318  -10.1282  -43.5466 H         1 UNK         0.0600 
    184 H184        0.0861  -11.6114  -45.9113 H         1 UNK         0.3000 
    185 H185       -1.6101  -14.0850  -47.6408 H         1 UNK         0.0600 
    186 H186       -3.6918  -12.7496  -47.2731 H         1 UNK         0.0600 
    187 H187       -2.7916  -11.2578  -47.5183 H         1 UNK         0.0600 
    188 H188       -2.9864  -12.4067  -48.8436 H         1 UNK         0.0600 
    189 H189       -0.6007  -11.6097  -48.5973 H         1 UNK         0.3000 
    190 H190       -2.0250  -22.8854  -43.9879 H         1 UNK         0.3000 
    191 H191       -4.4011  -23.9344  -45.1764 H         1 UNK         0.0600 
    192 H192       -4.2381  -25.6212  -43.3532 H         1 UNK         0.0600 
    193 H193       -3.9448  -24.0045  -42.7294 H         1 UNK         0.0600 
    194 H194       -2.5943  -25.1059  -42.9939 H         1 UNK         0.0600 
    195 H195       -0.9785  -24.8859  -45.4020 H         1 UNK         0.3000 
    196 H196       -1.4415  -27.4013  -46.7686 H         1 UNK         0.0600 
    197 H197        1.0123  -27.3335  -47.1092 H         1 UNK         0.0600 
    198 H198        0.6253  -26.9464  -45.4398 H         1 UNK         0.0600 
    199 H199        1.0759  -25.6635  -46.5633 H         1 UNK         0.0600 
    200 H200       -1.3916  -24.0640  -47.7291 H         1 UNK         0.3000 
    201 H201       -1.1630  -24.6646  -50.6329 H         1 UNK         0.0600 
    202 H202        0.2293  -22.7969  -49.6702 H         1 UNK         0.0600 
    203 H203       -1.2463  -21.9833  -49.1493 H         1 UNK         0.0600 
    204 H204       -0.9281  -22.2256  -50.8603 H         1 UNK         0.0600 
    205 H205       -3.5291  -24.9832  -48.4682 H         1 UNK         0.3000 
    206 H206       -5.7334  -24.8979  -48.3618 H         1 UNK         0.0600 
    207 H207       -5.4956  -26.2585  -50.4511 H         1 UNK         0.0600 
    208 H208       -6.9938  -25.3467  -50.4303 H         1 UNK         0.0600 
    209 H209       -5.6452  -24.7971  -51.4240 H         1 UNK         0.0600 
    210 H210       -4.5136  -22.4578  -47.9175 H         1 UNK         0.3000 
    211 H211       -4.8713  -20.3344  -47.5305 H         1 UNK         0.0600 
    212 H212       -7.7777  -20.6774  -48.4324 H         1 UNK         0.0600 
    213 H213       -7.1284  -19.3820  -47.4393 H         1 UNK         0.0600 
    214 H214       -7.1762  -21.0200  -46.8101 H         1 UNK         0.0600 
    215 H215       -4.0272  -21.3098  -50.1678 H         1 UNK         0.3000 
    216 H216       -3.0705  -20.5520  -51.9434 H         1 UNK         0.0600 
    217 H217       -3.9609  -17.7012  -51.2504 H         1 UNK         0.0600 
    218 H218       -2.6883  -18.1637  -52.3714 H         1 UNK         0.0600 
    219 H219       -2.4987  -18.4778  -50.6556 H         1 UNK         0.0600 
    220 H220       -6.2718  -19.0702  -51.5856 H         1 UNK         0.3000 
    221 H221       -6.7821  -18.4812  -54.2769 H         1 UNK         0.0600 
    222 H222       -8.7517  -19.0798  -52.0054 H         1 UNK         0.0600 
    223 H223       -8.0493  -17.5090  -52.3892 H         1 UNK         0.0600 
    224 H224       -9.1609  -18.2723  -53.5153 H         1 UNK         0.0600 
    225 H225       -7.4664  -21.5161  -52.5084 H         1 UNK         0.3000 
    226 H226       -8.9614  -22.7014  -54.7031 H         1 UNK         0.0600 
    227 H227       -9.4358  -23.3070  -52.3518 H         1 UNK         0.0600 
    228 H228       -8.9256  -24.7249  -53.2574 H         1 UNK         0.0600 
    229 H229       -7.8017  -23.9341  -52.1610 H         1 UNK         0.0600 
    230 H230       -5.5697  -22.6699  -53.6830 H         1 UNK         0.3000 
    231 H231       -4.7386  -24.8133  -55.4932 H         1 UNK         0.0600 
    232 H232       -3.1460  -22.7926  -53.8264 H         1 UNK         0.0600 
    233 H233       -3.5184  -24.4601  -53.3859 H         1 UNK         0.0600 
    234 H234       -2.4482  -24.1266  -54.7365 H         1 UNK         0.0600 
    235 H235       -4.9311  -21.2992  -55.5111 H         1 UNK         0.3000 
    236 H236       -4.6521  -19.6861  -56.9726 H         1 UNK         0.0600 
    237 H237       -6.0513  -21.0261  -58.5604 H         1 UNK         0.0600 
    238 H238       -4.8620  -20.0412  -59.3971 H         1 UNK         0.0600 
    239 H239       -4.5948  -21.7690  -59.2208 H         1 UNK         0.0600 
    240 H240       -2.5134  -20.5856  -55.5219 H         1 UNK         0.3000 
    241 H241       -0.1615  -20.9347  -57.1586 H         1 UNK         0.0600 
    242 H242       -1.7630  -17.9999  -56.4198 H         1 UNK         0.3800 
    243 H243       -0.3731  -16.9664  -56.6275 H         1 UNK         0.3800 
    244 H244        1.0645  -21.1125  -55.0380 H         1 UNK         0.0800 
    245 H245       -0.3342  -22.1377  -55.0622 H         1 UNK         0.0800 
    246 H246        1.4134  -19.1148  -53.6223 H         1 UNK         0.0800 
    247 H247        1.5340  -20.4031  -52.4465 H         1 UNK         0.0800 
@<TRIPOS>BOND
     1    1    2 1    
     2    1  127 1    
     3    1  128 1    
     4    1  129 1    
     5    2    3 2    
     6    2    4 am   BACKBONE|DICT|INTERRES
     7    4    5 1    
     8    4  130 1    
     9    5    6 1    
    10    5   65 1    
    11    5  131 1    
    12    6    7 1    
    13    6  132 1    
    14    6  133 1    
    15    7    8 1    
    16    8    9 1    
    17    8  134 1    
    18    8  135 1    
    19    9   10 ar   
    20    9   14 ar   
    21   10   11 ar   
    22   10  136 1    
    23   11   12 ar   
    24   11  126 1    
    25   12   13 ar   
    26   12  137 1    
    27   13   14 ar   
    28   13   15 1    
    29   14  138 1    
    30   15   16 1    
    31   15  139 1    
    32   15  140 1    
    33   16   17 1    
    34   17   18 1    
    35   17  141 1    
    36   17  142 1    
    37   18   19 1    
    38   18   67 1    
    39   18  143 1    
    40   19   20 am   BACKBONE|DICT|INTERRES
    41   19  144 1    
    42   20   21 2    
    43   20   22 1    
    44   22   23 1    
    45   22   24 1    
    46   22  145 1    
    47   23  146 1    
    48   23  147 1    
    49   23  148 1    
    50   24   25 am   BACKBONE|DICT|INTERRES
    51   24  149 1    
    52   25   26 2    
    53   25   27 1    
    54   27   28 1    
    55   27   29 1    
    56   27  150 1    
    57   28  151 1    
    58   28  152 1    
    59   28  153 1    
    60   29   30 am   BACKBONE|DICT|INTERRES
    61   29  154 1    
    62   30   31 2    
    63   30   32 1    
    64   32   33 1    
    65   32   34 1    
    66   32  155 1    
    67   33  156 1    
    68   33  157 1    
    69   33  158 1    
    70   34   35 am   BACKBONE|DICT|INTERRES
    71   34  159 1    
    72   35   36 2    
    73   35   37 1    
    74   37   38 1    
    75   37   39 1    
    76   37  160 1    
    77   38  161 1    
    78   38  162 1    
    79   38  163 1    
    80   39   40 am   BACKBONE|DICT|INTERRES
    81   39  164 1    
    82   40   41 2    
    83   40   42 1    
    84   42   43 1    
    85   42   44 1    
    86   42  165 1    
    87   43  166 1    
    88   43  167 1    
    89   43  168 1    
    90   44   45 am   BACKBONE|DICT|INTERRES
    91   44  169 1    
    92   45   46 2    
    93   45   47 1    
    94   47   48 1    
    95   47   49 1    
    96   47  170 1    
    97   48  171 1    
    98   48  172 1    
    99   48  173 1    
   100   49   50 am   BACKBONE|DICT|INTERRES
   101   49  174 1    
   102   50   51 2    
   103   50   52 1    
   104   52   53 1    
   105   52   54 1    
   106   52  175 1    
   107   53  176 1    
   108   53  177 1    
   109   53  178 1    
   110   54   55 am   BACKBONE|DICT|INTERRES
   111   54  179 1    
   112   55   56 2    
   113   55   57 1    
   114   57   58 1    
   115   57   59 1    
   116   57  180 1    
   117   58  181 1    
   118   58  182 1    
   119   58  183 1    
   120   59   60 am   BACKBONE|DICT|INTERRES
   121   59  184 1    
   122   60   61 2    
   123   60   62 1    
   124   62   63 1    
   125   62   64 1    
   126   62  185 1    
   127   63  186 1    
   128   63  187 1    
   129   63  188 1    
   130   64   65 am   BACKBONE|DICT|INTERRES
   131   64  189 1    
   132   65   66 2    
   133   67   68 2    
   134   67   69 am   BACKBONE|DICT|INTERRES
   135   69   70 1    
   136   69  190 1    
   137   70   71 1    
   138   70   72 1    
   139   70  191 1    
   140   71  192 1    
   141   71  193 1    
   142   71  194 1    
   143   72   73 2    
   144   72   74 am   BACKBONE|DICT|INTERRES
   145   74   75 1    
   146   74  195 1    
   147   75   76 1    
   148   75   77 1    
   149   75  196 1    
   150   76  197 1    
   151   76  198 1    
   152   76  199 1    
   153   77   78 2    
   154   77   79 am   BACKBONE|DICT|INTERRES
   155   79   80 1    
   156   79  200 1    
   157   80   81 1    
   158   80   82 1    
   159   80  201 1    
   160   81  202 1    
   161   81  203 1    
   162   81  204 1    
   163   82   83 2    
   164   82   84 am   BACKBONE|DICT|INTERRES
   165   84   85 1    
   166   84  205 1    
   167   85   86 1    
   168   85   87 1    
   169   85  206 1    
   170   86  207 1    
   171   86  208 1    
   172   86  209 1    
   173   87   88 2    
   174   87   89 am   BACKBONE|DICT|INTERRES
   175   89   90 1    
   176   89  210 1    
   177   90   91 1    
   178   90   92 1    
   179   90  211 1    
   180   91  212 1    
   181   91  213 1    
   182   91  214 1    
   183   92   93 2    
   184   92   94 am   BACKBONE|DICT|INTERRES
   185   94   95 1    
   186   94  215 1    
   187   95   96 1    
   188   95   97 1    
   189   95  216 1    
   190   96  217 1    
   191   96  218 1    
   192   96  219 1    
   193   97   98 2    
   194   97   99 am   BACKBONE|DICT|INTERRES
   195   99  100 1    
   196   99  220 1    
   197  100  101 1    
   198  100  102 1    
   199  100  221 1    
   200  101  222 1    
   201  101  223 1    
   202  101  224 1    
   203  102  103 2    
   204  102  104 am   BACKBONE|DICT|INTERRES
   205  104  105 1    
   206  104  225 1    
   207  105  106 1    
   208  105  107 1    
   209  105  226 1    
   210  106  227 1    
   211  106  228 1    
   212  106  229 1    
   213  107  108 2    
   214  107  109 am   BACKBONE|DICT|INTERRES
   215  109  110 1    
   216  109  230 1    
   217  110  111 1    
   218  110  112 1    
   219  110  231 1    
   220  111  232 1    
   221  111  233 1    
   222  111  234 1    
   223  112  113 2    
   224  112  114 am   BACKBONE|DICT|INTERRES
   225  114  115 1    
   226  114  235 1    
   227  115  116 1    
   228  115  117 1    
   229  115  236 1    
   230  116  237 1    
   231  116  238 1    
   232  116  239 1    
   233  117  118 2    
   234  117  119 am   BACKBONE|DICT|INTERRES
   235  119  120 1    
   236  119  240 1    
   237  120  121 1    
   238  120  124 1    
   239  120  241 1    
   240  121  122 am   BACKBONE|DICT|INTERRES
   241  121  123 2    
   242  122  242 1    
   243  122  243 1    
   244  124  125 1    
   245  124  244 1    
   246  124  245 1    
   247  125  126 1    
   248  126  246 1    
   249  126  247 1    
@<TRIPOS>SUBSTRUCTURE
     1 UNK         1 GROUP             0       ****    0 ROOT    
