@<TRIPOS>MOLECULE
3R540
247   249    1
SMALL
USER_CHARGES


@<TRIPOS>ATOM
      1 CA          5.1643  -10.0982  -47.8417 C.3       0 UNK        -0.1800 
      2 C           4.4685  -11.3828  -47.4181 C.2       0 UNK         0.5000 
      3 O           5.1004  -12.4404  -47.3837 O.2       0 UNK        -0.5000 
      4 N           3.1740  -11.3000  -47.0751 N.am      1 UNK        -0.5000 
      5 CA          2.3444  -12.4430  -46.6694 C.3       1 UNK         0.1400 
      6 C6          0.8470  -12.0730  -46.5323 C.3       23 UNK        -0.0398 
      7 S7         -0.2325  -13.5328  -46.7309 S.3       23 UNK        -0.2404 
      8 C8         -0.6476  -13.4109  -48.4954 C.3       23 UNK        -0.0205 
      9 C9         -1.2405  -14.7088  -49.0197 C.ar      23 UNK        -0.0193 
     10 C10        -2.6121  -14.9542  -48.9171 C.ar      23 UNK        -0.1150 
     11 C11        -3.1645  -16.1327  -49.4295 C.ar      23 UNK        -0.0193 
     12 C12        -2.3324  -17.0710  -50.0490 C.ar      23 UNK        -0.1150 
     13 C13        -0.9598  -16.8294  -50.1659 C.ar      23 UNK        -0.0193 
     14 C14        -0.4190  -15.6538  -49.6386 C.ar      23 UNK        -0.1150 
     15 C15        -0.0586  -17.8048  -50.9045 C.3       23 UNK        -0.0205 
     16 S16         0.7693  -18.9689  -49.7789 S.3       23 UNK        -0.2404 
     17 C17        -0.4906  -20.2690  -49.5580 C.3       23 UNK        -0.0398 
     18 CA         -0.9263  -20.4082  -48.0812 C.3       11 UNK         0.1400 
     19 N          -1.6129  -19.2004  -47.6008 N.am      11 UNK        -0.5000 
     20 C          -1.6325  -18.7873  -46.3311 C.2       10 UNK         0.5000 
     21 O          -1.0056  -19.3418  -45.4260 O.2       10 UNK        -0.5000 
     22 CA         -2.5426  -17.5961  -46.0168 C.3       10 UNK         0.1400 
     23 CB         -3.9945  -18.0698  -45.8154 C.3       10 UNK        -0.1800 
     24 N          -2.0592  -16.9056  -44.8260 N.am      10 UNK        -0.5000 
     25 C          -2.3645  -15.6408  -44.5092 C.2       9 UNK         0.5000 
     26 O          -3.1747  -14.9629  -45.1433 O.2       9 UNK        -0.5000 
     27 CA         -1.6647  -15.0464  -43.2729 C.3       9 UNK         0.1400 
     28 CB         -2.3084  -13.7249  -42.7998 C.3       9 UNK        -0.1800 
     29 N          -1.6324  -16.0226  -42.1829 N.am      9 UNK        -0.5000 
     30 C          -0.8128  -15.9673  -41.1242 C.2       8 UNK         0.5000 
     31 O           0.0356  -15.0905  -40.9566 O.2       8 UNK        -0.5000 
     32 CA         -0.9617  -17.0862  -40.0736 C.3       8 UNK         0.1400 
     33 CB         -2.0744  -16.7413  -39.0715 C.3       8 UNK        -0.1800 
     34 N          -1.2333  -18.3989  -40.6654 N.am      8 UNK        -0.5000 
     35 C          -0.3553  -19.0811  -41.4128 C.2       7 UNK         0.5000 
     36 O           0.7892  -18.6783  -41.6335 O.2       7 UNK        -0.5000 
     37 CA         -0.8397  -20.4173  -42.0182 C.3       7 UNK         0.1400 
     38 CB         -2.3201  -20.3660  -42.4483 C.3       7 UNK        -0.1800 
     39 N          -0.0374  -20.7467  -43.1914 N.am      7 UNK        -0.5000 
     40 C           1.1125  -21.4353  -43.1928 C.2       6 UNK         0.5000 
     41 O           1.5646  -22.0257  -42.2112 O.2       6 UNK        -0.5000 
     42 CA          1.8944  -21.4495  -44.5184 C.3       6 UNK         0.1400 
     43 CB          1.3876  -22.5751  -45.4321 C.3       6 UNK        -0.1800 
     44 N           1.7394  -20.1729  -45.2123 N.am      6 UNK        -0.5000 
     45 C           2.6089  -19.1592  -45.1695 C.2       5 UNK         0.5000 
     46 O           3.7222  -19.2160  -44.6418 O.2       5 UNK        -0.5000 
     47 CA          2.0957  -17.8413  -45.7775 C.3       5 UNK         0.1400 
     48 CB          1.3582  -17.0256  -44.7047 C.3       5 UNK        -0.1800 
     49 N           3.1367  -17.0096  -46.3807 N.am      5 UNK        -0.5000 
     50 C           3.8910  -17.3612  -47.4309 C.2       4 UNK         0.5000 
     51 O           3.8435  -18.4668  -47.9711 O.2       4 UNK        -0.5000 
     52 CA          4.8348  -16.2903  -48.0102 C.3       4 UNK         0.1400 
     53 CB          4.0934  -15.4437  -49.0569 C.3       4 UNK        -0.1800 
     54 N           5.4307  -15.4063  -47.0060 N.am      4 UNK        -0.5000 
     55 C           6.4036  -15.7757  -46.1601 C.2       3 UNK         0.5000 
     56 O           6.8553  -16.9195  -46.0965 O.2       3 UNK        -0.5000 
     57 CA          6.9941  -14.6840  -45.2500 C.3       3 UNK         0.1400 
     58 CB          8.0641  -13.8762  -46.0016 C.3       3 UNK        -0.1800 
     59 N           5.9605  -13.7739  -44.7617 N.am      3 UNK        -0.5000 
     60 C           5.3241  -13.9105  -43.5898 C.2       2 UNK         0.5000 
     61 O           5.6072  -14.7695  -42.7539 O.2       2 UNK        -0.5000 
     62 CA          4.1666  -12.9312  -43.2963 C.3       2 UNK         0.1400 
     63 CB          4.6627  -11.7527  -42.4448 C.3       2 UNK        -0.1800 
     64 N           3.5087  -12.4063  -44.4960 N.am      2 UNK        -0.5000 
     65 C           2.8786  -13.1580  -45.4101 C.2       1 UNK         0.5000 
     66 O           2.7783  -14.3785  -45.3252 O.2       1 UNK        -0.5000 
     67 C          -1.7828  -21.6818  -47.8907 C.2       11 UNK         0.5000 
     68 O          -1.2839  -22.7812  -48.1338 O.2       11 UNK        -0.5000 
     69 N          -3.0436  -21.5173  -47.4611 N.am      12 UNK        -0.5000 
     70 CA         -4.0941  -22.5365  -47.3665 C.3       12 UNK         0.1400 
     71 CB         -5.3668  -21.8739  -46.8176 C.3       12 UNK        -0.1800 
     72 C          -3.7486  -23.7939  -46.5437 C.2       12 UNK         0.5000 
     73 O          -4.3170  -24.8550  -46.7996 O.2       12 UNK        -0.5000 
     74 N          -2.8293  -23.6643  -45.5775 N.am      13 UNK        -0.5000 
     75 CA         -2.3407  -24.7772  -44.7599 C.3       13 UNK         0.1400 
     76 CB         -1.6452  -24.2214  -43.5087 C.3       13 UNK        -0.1800 
     77 C          -1.4075  -25.7402  -45.5237 C.2       13 UNK         0.5000 
     78 O          -1.2851  -26.8960  -45.1158 O.2       13 UNK        -0.5000 
     79 N          -0.7732  -25.2616  -46.6031 N.am      14 UNK        -0.5000 
     80 CA          0.0899  -26.0534  -47.4799 C.3       14 UNK         0.1400 
     81 CB          1.4066  -25.2993  -47.7267 C.3       14 UNK        -0.1800 
     82 C          -0.6253  -26.3473  -48.8058 C.2       14 UNK         0.5000 
     83 O          -0.7186  -27.5075  -49.2088 O.2       14 UNK        -0.5000 
     84 N          -1.1358  -25.2924  -49.4513 N.am      15 UNK        -0.5000 
     85 CA         -1.9105  -25.3577  -50.6836 C.3       15 UNK         0.1400 
     86 CB         -1.6642  -24.0708  -51.4907 C.3       15 UNK        -0.1800 
     87 C          -3.3899  -25.5352  -50.3175 C.2       15 UNK         0.5000 
     88 O          -4.1145  -24.5461  -50.2257 O.2       15 UNK        -0.5000 
     89 N          -3.8027  -26.7878  -50.0830 N.am      16 UNK        -0.5000 
     90 CA         -5.1122  -27.1829  -49.5441 C.3       16 UNK         0.1400 
     91 CB         -5.1547  -28.7144  -49.4291 C.3       16 UNK        -0.1800 
     92 C          -6.3474  -26.6680  -50.3153 C.2       16 UNK         0.5000 
     93 O          -7.4211  -26.5509  -49.7233 O.2       16 UNK        -0.5000 
     94 N          -6.1787  -26.3541  -51.6072 N.am      17 UNK        -0.5000 
     95 CA         -7.1903  -25.7146  -52.4523 C.3       17 UNK         0.1400 
     96 CB         -6.7564  -25.8422  -53.9207 C.3       17 UNK        -0.1800 
     97 C          -7.4461  -24.2333  -52.0982 C.2       17 UNK         0.5000 
     98 O          -8.4999  -23.7071  -52.4586 O.2       17 UNK        -0.5000 
     99 N          -6.4832  -23.5917  -51.4177 N.am      18 UNK        -0.5000 
    100 CA        -6.4281  -22.1985  -50.9673 C.3       18 UNK         0.1400 
    101 CB        -7.5364  -21.8882  -49.9433 C.3       18 UNK        -0.1800 
    102 C         -6.4014  -21.1825  -52.1208 C.2       18 UNK         0.5000 
    103 O         -5.3764  -20.5343  -52.3364 O.2       18 UNK        -0.5000 
    104 N         -7.5131  -21.0780  -52.8588 N.am      19 UNK        -0.5000 
    105 CA        -7.7398  -20.1329  -53.9552 C.3       19 UNK         0.1400 
    106 CB        -9.1783  -20.2956  -54.4667 C.3       19 UNK        -0.1800 
    107 C         -6.7369  -20.2649  -55.1155 C.2       19 UNK         0.5000 
    108 O         -6.4200  -19.2633  -55.7568 O.2       19 UNK        -0.5000 
    109 N         -6.2211  -21.4827  -55.3315 N.am      20 UNK        -0.5000 
    110 CA        -5.1887  -21.7949  -56.3214 C.3       20 UNK         0.1400 
    111 CB        -4.9898  -23.3174  -56.3685 C.3       20 UNK        -0.1800 
    112 C         -3.8435  -21.0889  -56.0540 C.2       20 UNK         0.5000 
    113 O         -3.1153  -20.8046  -57.0057 O.2       20 UNK        -0.5000 
    114 N         -3.5448  -20.8187  -54.7761 N.am      21 UNK        -0.5000 
    115 CA        -2.3498  -20.1010  -54.3368 C.3       21 UNK         0.1400 
    116 CB        -1.7577  -20.8268  -53.1195 C.3       21 UNK        -0.1800 
    117 C         -2.6700  -18.6339  -54.0012 C.2       21 UNK         0.5000 
    118 O         -1.8613  -17.7561  -54.3027 O.2       21 UNK        -0.5000 
    119 N         -3.8329  -18.3956  -53.3805 N.am      22 UNK        -0.5000 
    120 CA        -4.3199  -17.0671  -52.9785 C.3       22 UNK         0.1400 
    121 C         -4.7518  -16.1504  -54.1604 C.2       22 UNK         0.5000 
    122 N         -5.2267  -16.6862  -55.2781 N.am      22 UNK        -0.7600 
    123 O         -4.6373  -14.9313  -54.0724 O.2       22 UNK        -0.5000 
    124 C124       -5.4369  -17.2024  -51.9098 C.3       23 UNK        -0.0398 
    125 S125       -5.5612  -15.7799  -50.7728 S.3       23 UNK        -0.2404 
    126 C126       -4.6599  -16.3814  -49.3078 C.3       23 UNK        -0.0205 
    127 H127        6.0052   -9.8925  -47.1795 H         1 UNK         0.0600 
    128 H128        4.4894   -9.2425  -47.8127 H         1 UNK         0.0600 
    129 H129        5.5456  -10.1977  -48.8578 H         1 UNK         0.0600 
    130 H130        2.7104  -10.4031  -47.1117 H         1 UNK         0.3000 
    131 H131        2.4270  -13.1580  -47.4887 H         1 UNK         0.0600 
    132 H132        0.6407  -11.6032  -45.5689 H         1 UNK         0.0800 
    133 H133        0.5663  -11.3362  -47.2862 H         1 UNK         0.0800 
    134 H134       -1.3500  -12.5897  -48.6461 H         1 UNK         0.0800 
    135 H135        0.2484  -13.1590  -49.0652 H         1 UNK         0.0800 
    136 H136       -3.2503  -14.2245  -48.4384 H         1 UNK         0.1150 
    137 H137       -2.7573  -17.9730  -50.4667 H         1 UNK         0.1150 
    138 H138        0.6419  -15.4659  -49.7284 H         1 UNK         0.1150 
    139 H139       -0.6213  -18.3429  -51.6660 H         1 UNK         0.0800 
    140 H140        0.7074  -17.2469  -51.4451 H         1 UNK         0.0800 
    141 H141       -0.0497  -21.1991  -49.9225 H         1 UNK         0.0800 
    142 H142       -1.3533  -20.0737  -50.1953 H         1 UNK         0.0800 
    143 H143       -0.0228  -20.5617  -47.4886 H         1 UNK         0.0600 
    144 H144       -2.1005  -18.6590  -48.3002 H         1 UNK         0.3000 
    145 H145       -2.4943  -16.9052  -46.8583 H         1 UNK         0.0600 
    146 H146       -4.6642  -17.2316  -45.6236 H         1 UNK         0.0600 
    147 H147       -4.3718  -18.5789  -46.7026 H         1 UNK         0.0600 
    148 H148       -4.0789  -18.7616  -44.9765 H         1 UNK         0.0600 
    149 H149       -1.3683  -17.4142  -44.2919 H         1 UNK         0.3000 
    150 H150       -0.6379  -14.8334  -43.5777 H         1 UNK         0.0600 
    151 H151       -3.3387  -13.8767  -42.4765 H         1 UNK         0.0600 
    152 H152       -2.3181  -12.9847  -43.6010 H         1 UNK         0.0600 
    153 H153       -1.7586  -13.2834  -41.9690 H         1 UNK         0.0600 
    154 H154       -2.3078  -16.7718  -42.2386 H         1 UNK         0.3000 
    155 H155       -0.0201  -17.1506  -39.5238 H         1 UNK         0.0600 
    156 H156       -3.0510  -16.6879  -39.5541 H         1 UNK         0.0600 
    157 H157       -1.8884  -15.7755  -38.5998 H         1 UNK         0.0600 
    158 H158       -2.1326  -17.4840  -38.2756 H         1 UNK         0.0600 
    159 H159       -2.1517  -18.7876  -40.5082 H         1 UNK         0.3000 
    160 H160       -0.7218  -21.1953  -41.2615 H         1 UNK         0.0600 
    161 H161       -2.6021  -21.2596  -43.0040 H         1 UNK         0.0600 
    162 H162       -2.5263  -19.5064  -43.0868 H         1 UNK         0.0600 
    163 H163       -2.9845  -20.3076  -41.5859 H         1 UNK         0.0600 
    164 H164       -0.3168  -20.2675  -44.0423 H         1 UNK         0.3000 
    165 H165        2.9469  -21.6346  -44.2937 H         1 UNK         0.0600 
    166 H166        1.5007  -23.5477  -44.9518 H         1 UNK         0.0600 
    167 H167        0.3339  -22.4520  -45.6823 H         1 UNK         0.0600 
    168 H168        1.9508  -22.6036  -46.3647 H         1 UNK         0.0600 
    169 H169        0.8183  -19.9832  -45.5891 H         1 UNK         0.3000 
    170 H170        1.3857  -18.0860  -46.5705 H         1 UNK         0.0600 
    171 H171        0.6250  -17.6322  -44.1752 H         1 UNK         0.0600 
    172 H172        2.0469  -16.6341  -43.9549 H         1 UNK         0.0600 
    173 H173        0.8268  -16.1848  -45.1497 H         1 UNK         0.0600 
    174 H174        3.2268  -16.0707  -46.0005 H         1 UNK         0.3000 
    175 H175        5.6481  -16.8106  -48.5207 H         1 UNK         0.0600 
    176 H176        4.7445  -14.6834  -49.4888 H         1 UNK         0.0600 
    177 H177        3.7321  -16.0681  -49.8752 H         1 UNK         0.0600 
    178 H178        3.2273  -14.9428  -48.6268 H         1 UNK         0.0600 
    179 H179        5.1487  -14.4326  -47.0302 H         1 UNK         0.3000 
    180 H180        7.4838  -15.1791  -44.4086 H         1 UNK         0.0600 
    181 H181        7.6482  -13.3555  -46.8648 H         1 UNK         0.0600 
    182 H182        8.8607  -14.5272  -46.3638 H         1 UNK         0.0600 
    183 H183        8.5233  -13.1316  -45.3512 H         1 UNK         0.0600 
    184 H184        5.6442  -13.0641  -45.4109 H         1 UNK         0.3000 
    185 H185        3.4165  -13.4783  -42.7212 H         1 UNK         0.0600 
    186 H186        3.8390  -11.1004  -42.1544 H         1 UNK         0.0600 
    187 H187        5.1350  -12.1053  -41.5269 H         1 UNK         0.0600 
    188 H188        5.3969  -11.1504  -42.9814 H         1 UNK         0.0600 
    189 H189        3.5756  -11.4114  -44.6532 H         1 UNK         0.3000 
    190 H190       -3.3395  -20.5745  -47.2653 H         1 UNK         0.3000 
    191 H191       -4.3045  -22.8667  -48.3822 H         1 UNK         0.0600 
    192 H192       -5.6969  -21.0571  -47.4598 H         1 UNK         0.0600 
    193 H193       -6.1878  -22.5899  -46.7600 H         1 UNK         0.0600 
    194 H194       -5.2100  -21.4723  -45.8156 H         1 UNK         0.0600 
    195 H195       -2.4182  -22.7571  -45.4187 H         1 UNK         0.3000 
    196 H196       -3.2020  -25.3612  -44.4282 H         1 UNK         0.0600 
    197 H197       -1.2626  -25.0278  -42.8817 H         1 UNK         0.0600 
    198 H198       -2.3363  -23.6411  -42.8982 H         1 UNK         0.0600 
    199 H199       -0.8034  -23.5822  -43.7670 H         1 UNK         0.0600 
    200 H200       -0.9757  -24.3159  -46.9078 H         1 UNK         0.3000 
    201 H201        0.3381  -27.0112  -47.0181 H         1 UNK         0.0600 
    202 H202        2.0420  -25.8412  -48.4283 H         1 UNK         0.0600 
    203 H203        1.2357  -24.3039  -48.1387 H         1 UNK         0.0600 
    204 H204        1.9712  -25.1879  -46.8015 H         1 UNK         0.0600 
    205 H205       -1.0755  -24.3741  -49.0185 H         1 UNK         0.3000 
    206 H206       -1.5914  -26.2067  -51.2919 H         1 UNK         0.0600 
    207 H207       -0.6157  -23.9793  -51.7741 H         1 UNK         0.0600 
    208 H208       -2.2523  -24.0697  -52.4092 H         1 UNK         0.0600 
    209 H209       -1.9343  -23.1773  -50.9260 H         1 UNK         0.0600 
    210 H210       -3.1183  -27.5278  -50.1596 H         1 UNK         0.3000 
    211 H211       -5.1780  -26.7677  -48.5370 H         1 UNK         0.0600 
    212 H212       -5.0476  -29.1926  -50.4035 H         1 UNK         0.0600 
    213 H213       -6.0999  -29.0501  -49.0002 H         1 UNK         0.0600 
    214 H214       -4.3584  -29.0842  -48.7828 H         1 UNK         0.0600 
    215 H215       -5.2658  -26.4925  -52.0143 H         1 UNK         0.3000 
    216 H216       -8.1343  -26.2488  -52.3259 H         1 UNK         0.0600 
    217 H217       -7.4825  -25.3759  -54.5882 H         1 UNK         0.0600 
    218 H218       -6.6708  -26.8880  -54.2165 H         1 UNK         0.0600 
    219 H219       -5.7926  -25.3643  -54.0965 H         1 UNK         0.0600 
    220 H220       -5.6604  -24.1284  -51.1519 H         1 UNK         0.3000 
    221 H221       -5.4744  -22.0953  -50.4477 H         1 UNK         0.0600 
    222 H222       -8.5350  -21.9887  -50.3686 H         1 UNK         0.0600 
    223 H223       -7.4726  -22.5589  -49.0865 H         1 UNK         0.0600 
    224 H224       -7.4431  -20.8691  -49.5660 H         1 UNK         0.0600 
    225 H225       -8.2576  -21.7400  -52.6639 H         1 UNK         0.3000 
    226 H226       -7.6344  -19.1259  -53.5481 H         1 UNK         0.0600 
    227 H227       -9.3897  -19.5922  -55.2733 H         1 UNK         0.0600 
    228 H228       -9.3563  -21.3010  -54.8507 H         1 UNK         0.0600 
    229 H229       -9.9022  -20.1064  -53.6739 H         1 UNK         0.0600 
    230 H230       -6.5431  -22.2433  -54.7519 H         1 UNK         0.3000 
    231 H231       -5.5496  -21.4630  -57.2971 H         1 UNK         0.0600 
    232 H232       -4.6124  -23.7013  -55.4202 H         1 UNK         0.0600 
    233 H233       -4.2711  -23.5925  -57.1415 H         1 UNK         0.0600 
    234 H234       -5.9229  -23.8336  -56.5953 H         1 UNK         0.0600 
    235 H235       -4.2190  -21.0537  -54.0587 H         1 UNK         0.3000 
    236 H236       -1.5937  -20.1043  -55.1247 H         1 UNK         0.0600 
    237 H237       -1.5087  -21.8576  -53.3691 H         1 UNK         0.0600 
    238 H238       -0.8360  -20.3498  -52.7875 H         1 UNK         0.0600 
    239 H239       -2.4522  -20.8434  -52.2787 H         1 UNK         0.0600 
    240 H240       -4.4243  -19.1821  -53.1272 H         1 UNK         0.3000 
    241 H241       -3.4722  -16.5640  -52.5110 H         1 UNK         0.0600 
    242 H242       -5.4893  -16.0775  -56.0366 H         1 UNK         0.3800 
    243 H243       -5.3969  -17.6832  -55.3669 H         1 UNK         0.3800 
    244 H244       -5.2723  -18.0932  -51.3037 H         1 UNK         0.0800 
    245 H245       -6.4081  -17.3564  -52.3822 H         1 UNK         0.0800 
    246 H246       -4.8622  -17.4395  -49.1378 H         1 UNK         0.0800 
    247 H247       -5.0449  -15.8623  -48.4284 H         1 UNK         0.0800 
@<TRIPOS>BOND
     1    1    2 1    
     2    1  127 1    
     3    1  128 1    
     4    1  129 1    
     5    2    3 2    
     6    2    4 am   BACKBONE|DICT|INTERRES
     7    4    5 1    
     8    4  130 1    
     9    5    6 1    
    10    5   65 1    
    11    5  131 1    
    12    6    7 1    
    13    6  132 1    
    14    6  133 1    
    15    7    8 1    
    16    8    9 1    
    17    8  134 1    
    18    8  135 1    
    19    9   10 ar   
    20    9   14 ar   
    21   10   11 ar   
    22   10  136 1    
    23   11   12 ar   
    24   11  126 1    
    25   12   13 ar   
    26   12  137 1    
    27   13   14 ar   
    28   13   15 1    
    29   14  138 1    
    30   15   16 1    
    31   15  139 1    
    32   15  140 1    
    33   16   17 1    
    34   17   18 1    
    35   17  141 1    
    36   17  142 1    
    37   18   19 1    
    38   18   67 1    
    39   18  143 1    
    40   19   20 am   BACKBONE|DICT|INTERRES
    41   19  144 1    
    42   20   21 2    
    43   20   22 1    
    44   22   23 1    
    45   22   24 1    
    46   22  145 1    
    47   23  146 1    
    48   23  147 1    
    49   23  148 1    
    50   24   25 am   BACKBONE|DICT|INTERRES
    51   24  149 1    
    52   25   26 2    
    53   25   27 1    
    54   27   28 1    
    55   27   29 1    
    56   27  150 1    
    57   28  151 1    
    58   28  152 1    
    59   28  153 1    
    60   29   30 am   BACKBONE|DICT|INTERRES
    61   29  154 1    
    62   30   31 2    
    63   30   32 1    
    64   32   33 1    
    65   32   34 1    
    66   32  155 1    
    67   33  156 1    
    68   33  157 1    
    69   33  158 1    
    70   34   35 am   BACKBONE|DICT|INTERRES
    71   34  159 1    
    72   35   36 2    
    73   35   37 1    
    74   37   38 1    
    75   37   39 1    
    76   37  160 1    
    77   38  161 1    
    78   38  162 1    
    79   38  163 1    
    80   39   40 am   BACKBONE|DICT|INTERRES
    81   39  164 1    
    82   40   41 2    
    83   40   42 1    
    84   42   43 1    
    85   42   44 1    
    86   42  165 1    
    87   43  166 1    
    88   43  167 1    
    89   43  168 1    
    90   44   45 am   BACKBONE|DICT|INTERRES
    91   44  169 1    
    92   45   46 2    
    93   45   47 1    
    94   47   48 1    
    95   47   49 1    
    96   47  170 1    
    97   48  171 1    
    98   48  172 1    
    99   48  173 1    
   100   49   50 am   BACKBONE|DICT|INTERRES
   101   49  174 1    
   102   50   51 2    
   103   50   52 1    
   104   52   53 1    
   105   52   54 1    
   106   52  175 1    
   107   53  176 1    
   108   53  177 1    
   109   53  178 1    
   110   54   55 am   BACKBONE|DICT|INTERRES
   111   54  179 1    
   112   55   56 2    
   113   55   57 1    
   114   57   58 1    
   115   57   59 1    
   116   57  180 1    
   117   58  181 1    
   118   58  182 1    
   119   58  183 1    
   120   59   60 am   BACKBONE|DICT|INTERRES
   121   59  184 1    
   122   60   61 2    
   123   60   62 1    
   124   62   63 1    
   125   62   64 1    
   126   62  185 1    
   127   63  186 1    
   128   63  187 1    
   129   63  188 1    
   130   64   65 am   BACKBONE|DICT|INTERRES
   131   64  189 1    
   132   65   66 2    
   133   67   68 2    
   134   67   69 am   BACKBONE|DICT|INTERRES
   135   69   70 1    
   136   69  190 1    
   137   70   71 1    
   138   70   72 1    
   139   70  191 1    
   140   71  192 1    
   141   71  193 1    
   142   71  194 1    
   143   72   73 2    
   144   72   74 am   BACKBONE|DICT|INTERRES
   145   74   75 1    
   146   74  195 1    
   147   75   76 1    
   148   75   77 1    
   149   75  196 1    
   150   76  197 1    
   151   76  198 1    
   152   76  199 1    
   153   77   78 2    
   154   77   79 am   BACKBONE|DICT|INTERRES
   155   79   80 1    
   156   79  200 1    
   157   80   81 1    
   158   80   82 1    
   159   80  201 1    
   160   81  202 1    
   161   81  203 1    
   162   81  204 1    
   163   82   83 2    
   164   82   84 am   BACKBONE|DICT|INTERRES
   165   84   85 1    
   166   84  205 1    
   167   85   86 1    
   168   85   87 1    
   169   85  206 1    
   170   86  207 1    
   171   86  208 1    
   172   86  209 1    
   173   87   88 2    
   174   87   89 am   BACKBONE|DICT|INTERRES
   175   89   90 1    
   176   89  210 1    
   177   90   91 1    
   178   90   92 1    
   179   90  211 1    
   180   91  212 1    
   181   91  213 1    
   182   91  214 1    
   183   92   93 2    
   184   92   94 am   BACKBONE|DICT|INTERRES
   185   94   95 1    
   186   94  215 1    
   187   95   96 1    
   188   95   97 1    
   189   95  216 1    
   190   96  217 1    
   191   96  218 1    
   192   96  219 1    
   193   97   98 2    
   194   97   99 am   BACKBONE|DICT|INTERRES
   195   99  100 1    
   196   99  220 1    
   197  100  101 1    
   198  100  102 1    
   199  100  221 1    
   200  101  222 1    
   201  101  223 1    
   202  101  224 1    
   203  102  103 2    
   204  102  104 am   BACKBONE|DICT|INTERRES
   205  104  105 1    
   206  104  225 1    
   207  105  106 1    
   208  105  107 1    
   209  105  226 1    
   210  106  227 1    
   211  106  228 1    
   212  106  229 1    
   213  107  108 2    
   214  107  109 am   BACKBONE|DICT|INTERRES
   215  109  110 1    
   216  109  230 1    
   217  110  111 1    
   218  110  112 1    
   219  110  231 1    
   220  111  232 1    
   221  111  233 1    
   222  111  234 1    
   223  112  113 2    
   224  112  114 am   BACKBONE|DICT|INTERRES
   225  114  115 1    
   226  114  235 1    
   227  115  116 1    
   228  115  117 1    
   229  115  236 1    
   230  116  237 1    
   231  116  238 1    
   232  116  239 1    
   233  117  118 2    
   234  117  119 am   BACKBONE|DICT|INTERRES
   235  119  120 1    
   236  119  240 1    
   237  120  121 1    
   238  120  124 1    
   239  120  241 1    
   240  121  122 am   BACKBONE|DICT|INTERRES
   241  121  123 2    
   242  122  242 1    
   243  122  243 1    
   244  124  125 1    
   245  124  244 1    
   246  124  245 1    
   247  125  126 1    
   248  126  246 1    
   249  126  247 1    
@<TRIPOS>SUBSTRUCTURE
     1 UNK         1 GROUP             0       ****    0 ROOT    
