@<TRIPOS>MOLECULE
3R540
247   249    1
SMALL
USER_CHARGES


@<TRIPOS>ATOM
      1 CA          3.0333  -10.7285  -53.2133 C.3       0 UNK        -0.1800 
      2 C           3.7371  -11.2959  -51.9886 C.2       0 UNK         0.5000 
      3 O           4.3229  -10.5393  -51.2142 O.2       0 UNK        -0.5000 
      4 N           3.6877  -12.6234  -51.8166 N.am      1 UNK        -0.5000 
      5 CA          4.2681  -13.3446  -50.6778 C.3       1 UNK         0.1400 
      6 C6          4.3291  -14.8691  -50.9582 C.3       23 UNK        -0.0398 
      7 S7          5.4271  -15.7996  -49.8300 S.3       23 UNK        -0.2404 
      8 C8          4.2940  -16.3705  -48.5158 C.3       23 UNK        -0.0205 
      9 C9          3.3016  -17.4159  -49.0002 C.ar      23 UNK        -0.0193 
     10 C10         2.0027  -17.0485  -49.3674 C.ar      23 UNK        -0.1150 
     11 C11         1.0916  -18.0144  -49.8030 C.ar      23 UNK        -0.0193 
     12 C12         1.4730  -19.3582  -49.8331 C.ar      23 UNK        -0.1150 
     13 C13         2.7639  -19.7382  -49.4573 C.ar      23 UNK        -0.0193 
     14 C14         3.6777  -18.7603  -49.0545 C.ar      23 UNK        -0.1150 
     15 C15         3.1596  -21.2082  -49.4686 C.3       23 UNK        -0.0205 
     16 S16         3.6547  -21.8183  -47.8215 S.3       23 UNK        -0.2404 
     17 C17         2.2384  -21.3307  -46.7759 C.3       23 UNK        -0.0398 
     18 CA          1.2497  -22.4805  -46.4896 C.3       11 UNK         0.1400 
     19 N           0.3969  -22.1629  -45.3445 N.am      11 UNK        -0.5000 
     20 C          -0.4109  -23.0308  -44.7234 C.2       10 UNK         0.5000 
     21 O          -0.4958  -24.2215  -45.0230 O.2       10 UNK        -0.5000 
     22 CA         -1.3053  -22.4585  -43.6091 C.3       10 UNK         0.1400 
     23 CB         -0.5186  -22.3092  -42.2986 C.3       10 UNK        -0.1800 
     24 N          -1.9041  -21.1731  -43.9752 N.am      10 UNK        -0.5000 
     25 C          -2.7746  -21.0094  -44.9820 C.2       9 UNK         0.5000 
     26 O          -3.1912  -21.9326  -45.6802 O.2       9 UNK        -0.5000 
     27 CA         -3.2336  -19.5735  -45.2858 C.3       9 UNK         0.1400 
     28 CB         -4.3148  -19.1318  -44.2882 C.3       9 UNK        -0.1800 
     29 N          -2.1327  -18.6100  -45.2852 N.am      9 UNK        -0.5000 
     30 C          -1.0964  -18.6320  -46.1366 C.2       8 UNK         0.5000 
     31 O          -0.9735  -19.4547  -47.0420 O.2       8 UNK        -0.5000 
     32 CA          0.0220  -17.6004  -45.9012 C.3       8 UNK         0.1400 
     33 CB         -0.3741  -16.2172  -46.4379 C.3       8 UNK        -0.1800 
     34 N           0.3889  -17.4890  -44.4900 N.am      8 UNK        -0.5000 
     35 C           0.8817  -18.4914  -43.7487 C.2       7 UNK         0.5000 
     36 O           1.1250  -19.6155  -44.1863 O.2       7 UNK        -0.5000 
     37 CA          1.0829  -18.2032  -42.2531 C.3       7 UNK         0.1400 
     38 CB          2.3834  -17.4228  -42.0120 C.3       7 UNK        -0.1800 
     39 N          -0.0492  -17.4686  -41.6895 N.am      7 UNK        -0.5000 
     40 C          -1.2689  -17.9929  -41.5044 C.2       6 UNK         0.5000 
     41 O          -1.5594  -19.1604  -41.7661 O.2       6 UNK        -0.5000 
     42 CA         -2.3543  -17.0399  -40.9716 C.3       6 UNK         0.1400 
     43 CB         -2.2583  -16.9069  -39.4445 C.3       6 UNK        -0.1800 
     44 N          -2.2888  -15.7103  -41.5813 N.am      6 UNK        -0.5000 
     45 C          -2.5373  -15.4633  -42.8748 C.2       5 UNK         0.5000 
     46 O          -2.8548  -16.3295  -43.6875 O.2       5 UNK        -0.5000 
     47 CA         -2.3601  -14.0123  -43.3542 C.3       5 UNK         0.1400 
     48 CB         -3.6341  -13.1965  -43.0897 C.3       5 UNK        -0.1800 
     49 N          -1.2095  -13.3196  -42.7683 N.am      5 UNK        -0.5000 
     50 C           0.0623  -13.7305  -42.8478 C.2       4 UNK         0.5000 
     51 O           0.4098  -14.7983  -43.3566 O.2       4 UNK        -0.5000 
     52 CA          1.1283  -12.7421  -42.3469 C.3       4 UNK         0.1400 
     53 CB          2.3345  -13.4632  -41.7217 C.3       4 UNK        -0.1800 
     54 N           1.5832  -11.9460  -43.4832 N.am      4 UNK        -0.5000 
     55 C           0.9190  -10.9027  -44.0012 C.2       3 UNK         0.5000 
     56 O          -0.0659  -10.3836  -43.4752 O.2       3 UNK        -0.5000 
     57 CA          1.3889  -10.4286  -45.3811 C.3       3 UNK         0.1400 
     58 CB          2.7836   -9.7774  -45.3226 C.3       3 UNK        -0.1800 
     59 N           1.3790  -11.5824  -46.2767 N.am      3 UNK        -0.5000 
     60 C           1.3663  -11.5457  -47.6112 C.2       2 UNK         0.5000 
     61 O           1.3949  -10.5104  -48.2803 O.2       2 UNK        -0.5000 
     62 CA          1.2649  -12.9147  -48.3085 C.3       2 UNK         0.1400 
     63 CB         -0.1744  -13.1925  -48.7684 C.3       2 UNK        -0.1800 
     64 N           2.1663  -13.0370  -49.4515 N.am      2 UNK        -0.5000 
     65 C           3.5045  -13.0503  -49.3690 C.2       1 UNK         0.5000 
     66 O           4.1297  -12.8788  -48.3212 O.2       1 UNK        -0.5000 
     67 C           0.4181  -22.8654  -47.7324 C.2       11 UNK         0.5000 
     68 O           0.7399  -23.8558  -48.3890 O.2       11 UNK        -0.5000 
     69 N          -0.6633  -22.1192  -48.0051 N.am      12 UNK        -0.5000 
     70 CA         -1.6317  -22.4234  -49.0596 C.3       12 UNK         0.1400 
     71 CB         -2.6694  -21.2975  -49.1662 C.3       12 UNK        -0.1800 
     72 C          -2.3224  -23.7793  -48.8389 C.2       12 UNK         0.5000 
     73 O          -2.3864  -24.5777  -49.7713 O.2       12 UNK        -0.5000 
     74 N          -2.7697  -24.0412  -47.6021 N.am      13 UNK        -0.5000 
     75 CA         -3.3813  -25.3060  -47.1925 C.3       13 UNK         0.1400 
     76 CB         -3.9107  -25.1877  -45.7559 C.3       13 UNK        -0.1800 
     77 C          -2.4274  -26.5066  -47.3322 C.2       13 UNK         0.5000 
     78 O          -2.8491  -27.5574  -47.8153 O.2       13 UNK        -0.5000 
     79 N          -1.1506  -26.3197  -46.9668 N.am      14 UNK        -0.5000 
     80 CA         -0.0786  -27.3022  -47.1544 C.3       14 UNK         0.1400 
     81 CB          1.1862  -26.8286  -46.4226 C.3       14 UNK        -0.1800 
     82 C           0.2222  -27.5927  -48.6394 C.2       14 UNK         0.5000 
     83 O           0.5427  -28.7308  -48.9831 O.2       14 UNK        -0.5000 
     84 N           0.0707  -26.5736  -49.4954 N.am      15 UNK        -0.5000 
     85 CA          0.1632  -26.6657  -50.9545 C.3       15 UNK         0.1400 
     86 CB          0.5471  -25.2840  -51.5118 C.3       15 UNK        -0.1800 
     87 C          -1.1272  -27.1955  -51.6227 C.2       15 UNK         0.5000 
     88 O          -1.1493  -27.3357  -52.8463 O.2       15 UNK        -0.5000 
     89 N          -2.1685  -27.4782  -50.8242 N.am      16 UNK        -0.5000 
     90 CA         -3.5005  -27.9573  -51.2088 C.3       16 UNK         0.1400 
     91 CB         -3.4221  -29.3412  -51.8879 C.3       16 UNK        -0.1800 
     92 C          -4.3246  -26.9285  -52.0139 C.2       16 UNK         0.5000 
     93 O          -5.1715  -27.3163  -52.8214 O.2       16 UNK        -0.5000 
     94 N          -4.0852  -25.6374  -51.7616 N.am      17 UNK        -0.5000 
     95 CA         -4.8491  -24.5101  -52.2870 C.3       17 UNK         0.1400 
     96 CB         -3.8597  -23.4506  -52.8039 C.3       17 UNK        -0.1800 
     97 C          -5.7304  -23.9151  -51.1754 C.2       17 UNK         0.5000 
     98 O          -5.5064  -24.1740  -49.9903 O.2       17 UNK        -0.5000 
     99 N          -6.7062  -23.0921  -51.5741 N.am      18 UNK        -0.5000 
    100 CA        -7.4473  -22.2200  -50.6632 C.3       18 UNK         0.1400 
    101 CB        -8.7400  -21.7576  -51.3532 C.3       18 UNK        -0.1800 
    102 C         -6.5825  -21.0060  -50.2817 C.2       18 UNK         0.5000 
    103 O         -5.7567  -20.5732  -51.0885 O.2       18 UNK        -0.5000 
    104 N         -6.8159  -20.4361  -49.0933 N.am      19 UNK        -0.5000 
    105 CA        -6.0888  -19.2677  -48.5813 C.3       19 UNK         0.1400 
    106 CB        -6.5415  -18.9823  -47.1424 C.3       19 UNK        -0.1800 
    107 C         -6.2421  -18.0082  -49.4575 C.2       19 UNK         0.5000 
    108 O         -5.2927  -17.2353  -49.5838 O.2       19 UNK        -0.5000 
    109 N         -7.4236  -17.8485  -50.0697 N.am      20 UNK        -0.5000 
    110 CA        -7.7298  -16.7754  -51.0164 C.3       20 UNK         0.1400 
    111 CB        -9.2554  -16.6405  -51.1388 C.3       20 UNK        -0.1800 
    112 C         -7.0980  -16.9987  -52.4048 C.2       20 UNK         0.5000 
    113 O         -6.8266  -16.0233  -53.1059 O.2       20 UNK        -0.5000 
    114 N         -6.8838  -18.2673  -52.7817 N.am      21 UNK        -0.5000 
    115 CA        -6.2542  -18.6589  -54.0433 C.3       21 UNK         0.1400 
    116 CB        -6.7157  -20.0724  -54.4318 C.3       21 UNK        -0.1800 
    117 C         -4.7204  -18.5971  -53.9575 C.2       21 UNK         0.5000 
    118 O         -4.0747  -18.2251  -54.9383 O.2       21 UNK        -0.5000 
    119 N         -4.1712  -18.9686  -52.7929 N.am      22 UNK        -0.5000 
    120 CA        -2.7452  -19.0060  -52.4301 C.3       22 UNK         0.1400 
    121 C         -1.9246  -20.0999  -53.1804 C.2       22 UNK         0.5000 
    122 N         -2.0933  -20.2665  -54.4849 N.am      22 UNK        -0.7600 
    123 O         -1.1519  -20.8269  -52.5628 O.2       22 UNK        -0.5000 
    124 C124       -2.1022  -17.5861  -52.4504 C.3       23 UNK        -0.0398 
    125 S125       -0.3151  -17.5047  -52.0896 S.3       23 UNK        -0.2404 
    126 C126       -0.2952  -17.6166  -50.2766 C.3       23 UNK        -0.0205 
    127 H127        2.5669  -11.5107  -53.8128 H         1 UNK         0.0600 
    128 H128        3.7465  -10.1971  -53.8436 H         1 UNK         0.0600 
    129 H129        2.2574  -10.0264  -52.9078 H         1 UNK         0.0600 
    130 H130        3.2037  -13.1886  -52.4999 H         1 UNK         0.3000 
    131 H131        5.2911  -12.9829  -50.5511 H         1 UNK         0.0600 
    132 H132        3.3334  -15.3107  -50.9777 H         1 UNK         0.0800 
    133 H133        4.7295  -15.0292  -51.9603 H         1 UNK         0.0800 
    134 H134        3.7663  -15.5288  -48.0697 H         1 UNK         0.0800 
    135 H135        4.8939  -16.7958  -47.7098 H         1 UNK         0.0800 
    136 H136        1.7054  -16.0102  -49.3309 H         1 UNK         0.1150 
    137 H137        0.7624  -20.1052  -50.1604 H         1 UNK         0.1150 
    138 H138        4.6777  -19.0503  -48.7634 H         1 UNK         0.1150 
    139 H139        2.3433  -21.8273  -49.8442 H         1 UNK         0.0800 
    140 H140        3.9908  -21.3463  -50.1610 H         1 UNK         0.0800 
    141 H141        1.7172  -20.4607  -47.1751 H         1 UNK         0.0800 
    142 H142        2.6753  -20.9924  -45.8357 H         1 UNK         0.0800 
    143 H143        1.8335  -23.3594  -46.2071 H         1 UNK         0.0600 
    144 H144        0.4381  -21.2059  -45.0037 H         1 UNK         0.3000 
    145 H145       -2.1169  -23.1687  -43.4381 H         1 UNK         0.0600 
    146 H146       -1.1680  -21.9857  -41.4850 H         1 UNK         0.0600 
    147 H147       -0.0716  -23.2584  -42.0007 H         1 UNK         0.0600 
    148 H148        0.2870  -21.5805  -42.3920 H         1 UNK         0.0600 
    149 H149       -1.6391  -20.3695  -43.4150 H         1 UNK         0.3000 
    150 H150       -3.6716  -19.5721  -46.2856 H         1 UNK         0.0600 
    151 H151       -5.1435  -19.8405  -44.2678 H         1 UNK         0.0600 
    152 H152       -4.7256  -18.1589  -44.5571 H         1 UNK         0.0600 
    153 H153       -3.9214  -19.0582  -43.2741 H         1 UNK         0.0600 
    154 H154       -2.1875  -17.8652  -44.5954 H         1 UNK         0.3000 
    155 H155        0.9047  -17.9376  -46.4493 H         1 UNK         0.0600 
    156 H156       -1.2407  -15.8142  -45.9140 H         1 UNK         0.0600 
    157 H157       -0.6251  -16.2658  -47.4969 H         1 UNK         0.0600 
    158 H158        0.4437  -15.5057  -46.3272 H         1 UNK         0.0600 
    159 H159        0.2507  -16.5829  -44.0505 H         1 UNK         0.3000 
    160 H160        1.1614  -19.1607  -41.7337 H         1 UNK         0.0600 
    161 H161        2.3808  -16.4630  -42.5280 H         1 UNK         0.0600 
    162 H162        3.2452  -17.9849  -42.3740 H         1 UNK         0.0600 
    163 H163        2.5407  -17.2336  -40.9501 H         1 UNK         0.0600 
    164 H164        0.0889  -16.4843  -41.5143 H         1 UNK         0.3000 
    165 H165       -3.3258  -17.4759  -41.2146 H         1 UNK         0.0600 
    166 H166       -3.0732  -16.2998  -39.0498 H         1 UNK         0.0600 
    167 H167       -2.3202  -17.8841  -38.9636 H         1 UNK         0.0600 
    168 H168       -1.3177  -16.4484  -39.1366 H         1 UNK         0.0600 
    169 H169       -2.0262  -14.9405  -40.9837 H         1 UNK         0.3000 
    170 H170       -2.2004  -14.0457  -44.4337 H         1 UNK         0.0600 
    171 H171       -4.5064  -13.6788  -43.5333 H         1 UNK         0.0600 
    172 H172       -3.8273  -13.0854  -42.0221 H         1 UNK         0.0600 
    173 H173       -3.5608  -12.1990  -43.5236 H         1 UNK         0.0600 
    174 H174       -1.3914  -12.4043  -42.3802 H         1 UNK         0.3000 
    175 H175        0.6875  -12.0930  -41.5872 H         1 UNK         0.0600 
    176 H176        2.8653  -14.0764  -42.4508 H         1 UNK         0.0600 
    177 H177        3.0464  -12.7483  -41.3091 H         1 UNK         0.0600 
    178 H178        2.0205  -14.1170  -40.9070 H         1 UNK         0.0600 
    179 H179        2.3928  -12.2992  -43.9720 H         1 UNK         0.3000 
    180 H180        0.6694   -9.6919  -45.7452 H         1 UNK         0.0600 
    181 H181        3.5536  -10.4910  -45.0276 H         1 UNK         0.0600 
    182 H182        2.8006   -8.9568  -44.6044 H         1 UNK         0.0600 
    183 H183        3.0678   -9.3650  -46.2907 H         1 UNK         0.0600 
    184 H184        1.2951  -12.4786  -45.8179 H         1 UNK         0.3000 
    185 H185        1.5455  -13.6914  -47.5939 H         1 UNK         0.0600 
    186 H186       -0.5085  -12.4617  -49.5061 H         1 UNK         0.0600 
    187 H187       -0.2642  -14.1837  -49.2128 H         1 UNK         0.0600 
    188 H188       -0.8679  -13.1512  -47.9274 H         1 UNK         0.0600 
    189 H189        1.7357  -13.1210  -50.3600 H         1 UNK         0.3000 
    190 H190       -0.8406  -21.2805  -47.4575 H         1 UNK         0.3000 
    191 H191       -1.0870  -22.4715  -50.0049 H         1 UNK         0.0600 
    192 H192       -3.2680  -21.2119  -48.2600 H         1 UNK         0.0600 
    193 H193       -3.3536  -21.4779  -49.9960 H         1 UNK         0.0600 
    194 H194       -2.1887  -20.3366  -49.3398 H         1 UNK         0.0600 
    195 H195       -2.7180  -23.3113  -46.8960 H         1 UNK         0.3000 
    196 H196       -4.2329  -25.4850  -47.8521 H         1 UNK         0.0600 
    197 H197       -4.3920  -26.1138  -45.4394 H         1 UNK         0.0600 
    198 H198       -4.6513  -24.3918  -45.6745 H         1 UNK         0.0600 
    199 H199       -3.1111  -24.9734  -45.0469 H         1 UNK         0.0600 
    200 H200       -0.8928  -25.4418  -46.5250 H         1 UNK         0.3000 
    201 H201       -0.4035  -28.2384  -46.6959 H         1 UNK         0.0600 
    202 H202        0.9958  -26.6852  -45.3589 H         1 UNK         0.0600 
    203 H203        1.5567  -25.8862  -46.8256 H         1 UNK         0.0600 
    204 H204        1.9879  -27.5623  -46.5141 H         1 UNK         0.0600 
    205 H205       -0.1475  -25.6569  -49.1199 H         1 UNK         0.3000 
    206 H206        0.9642  -27.3626  -51.2087 H         1 UNK         0.0600 
    207 H207        1.4699  -24.9189  -51.0605 H         1 UNK         0.0600 
    208 H208        0.7077  -25.3257  -52.5896 H         1 UNK         0.0600 
    209 H209       -0.2300  -24.5427  -51.3263 H         1 UNK         0.0600 
    210 H210       -2.0544  -27.3017  -49.8338 H         1 UNK         0.3000 
    211 H211       -4.0429  -28.0918  -50.2722 H         1 UNK         0.0600 
    212 H212       -2.9664  -29.2843  -52.8766 H         1 UNK         0.0600 
    213 H213       -4.4163  -29.7717  -52.0128 H         1 UNK         0.0600 
    214 H214       -2.8405  -30.0418  -51.2887 H         1 UNK         0.0600 
    215 H215       -3.4174  -25.3949  -51.0305 H         1 UNK         0.3000 
    216 H216       -5.4919  -24.8260  -53.1109 H         1 UNK         0.0600 
    217 H217       -4.3811  -22.5878  -53.2204 H         1 UNK         0.0600 
    218 H218       -3.2240  -23.8563  -53.5909 H         1 UNK         0.0600 
    219 H219       -3.2090  -23.0836  -52.0091 H         1 UNK         0.0600 
    220 H220       -6.8154  -22.9048  -52.5594 H         1 UNK         0.3000 
    221 H221       -7.7079  -22.7740  -49.7588 H         1 UNK         0.0600 
    222 H222       -8.5360  -21.1838  -52.2576 H         1 UNK         0.0600 
    223 H223       -9.3626  -22.6082  -51.6310 H         1 UNK         0.0600 
    224 H224       -9.3335  -21.1259  -50.6912 H         1 UNK         0.0600 
    225 H225       -7.5174  -20.8332  -48.4848 H         1 UNK         0.3000 
    226 H226       -5.0270  -19.5198  -48.5609 H         1 UNK         0.0600 
    227 H227       -6.3551  -19.8385  -46.4942 H         1 UNK         0.0600 
    228 H228       -6.0002  -18.1323  -46.7250 H         1 UNK         0.0600 
    229 H229       -7.6058  -18.7492  -47.0932 H         1 UNK         0.0600 
    230 H230       -8.1517  -18.5254  -49.8955 H         1 UNK         0.3000 
    231 H231       -7.3357  -15.8372  -50.6196 H         1 UNK         0.0600 
    232 H232       -9.7102  -16.4158  -50.1738 H         1 UNK         0.0600 
    233 H233       -9.7118  -17.5542  -51.5215 H         1 UNK         0.0600 
    234 H234       -9.5224  -15.8304  -51.8188 H         1 UNK         0.0600 
    235 H235       -7.0733  -19.0072  -52.1220 H         1 UNK         0.3000 
    236 H236       -6.5751  -17.9732  -54.8306 H         1 UNK         0.0600 
    237 H237       -6.2948  -20.3668  -55.3940 H         1 UNK         0.0600 
    238 H238       -6.4045  -20.8172  -53.6996 H         1 UNK         0.0600 
    239 H239       -7.8007  -20.1218  -54.5239 H         1 UNK         0.0600 
    240 H240       -4.7932  -19.3669  -52.0934 H         1 UNK         0.3000 
    241 H241       -2.7509  -19.3210  -51.3875 H         1 UNK         0.0600 
    242 H242       -2.7274  -19.6507  -54.9822 H         1 UNK         0.3800 
    243 H243       -1.5755  -20.9771  -54.9758 H         1 UNK         0.3800 
    244 H244       -2.6298  -16.9346  -51.7522 H         1 UNK         0.0800 
    245 H245       -2.2340  -17.1324  -53.4327 H         1 UNK         0.0800 
    246 H246       -1.0215  -18.3536  -49.9334 H         1 UNK         0.0800 
    247 H247       -0.5958  -16.6584  -49.8522 H         1 UNK         0.0800 
@<TRIPOS>BOND
     1    1    2 1    
     2    1  127 1    
     3    1  128 1    
     4    1  129 1    
     5    2    3 2    
     6    2    4 am   BACKBONE|DICT|INTERRES
     7    4    5 1    
     8    4  130 1    
     9    5    6 1    
    10    5   65 1    
    11    5  131 1    
    12    6    7 1    
    13    6  132 1    
    14    6  133 1    
    15    7    8 1    
    16    8    9 1    
    17    8  134 1    
    18    8  135 1    
    19    9   10 ar   
    20    9   14 ar   
    21   10   11 ar   
    22   10  136 1    
    23   11   12 ar   
    24   11  126 1    
    25   12   13 ar   
    26   12  137 1    
    27   13   14 ar   
    28   13   15 1    
    29   14  138 1    
    30   15   16 1    
    31   15  139 1    
    32   15  140 1    
    33   16   17 1    
    34   17   18 1    
    35   17  141 1    
    36   17  142 1    
    37   18   19 1    
    38   18   67 1    
    39   18  143 1    
    40   19   20 am   BACKBONE|DICT|INTERRES
    41   19  144 1    
    42   20   21 2    
    43   20   22 1    
    44   22   23 1    
    45   22   24 1    
    46   22  145 1    
    47   23  146 1    
    48   23  147 1    
    49   23  148 1    
    50   24   25 am   BACKBONE|DICT|INTERRES
    51   24  149 1    
    52   25   26 2    
    53   25   27 1    
    54   27   28 1    
    55   27   29 1    
    56   27  150 1    
    57   28  151 1    
    58   28  152 1    
    59   28  153 1    
    60   29   30 am   BACKBONE|DICT|INTERRES
    61   29  154 1    
    62   30   31 2    
    63   30   32 1    
    64   32   33 1    
    65   32   34 1    
    66   32  155 1    
    67   33  156 1    
    68   33  157 1    
    69   33  158 1    
    70   34   35 am   BACKBONE|DICT|INTERRES
    71   34  159 1    
    72   35   36 2    
    73   35   37 1    
    74   37   38 1    
    75   37   39 1    
    76   37  160 1    
    77   38  161 1    
    78   38  162 1    
    79   38  163 1    
    80   39   40 am   BACKBONE|DICT|INTERRES
    81   39  164 1    
    82   40   41 2    
    83   40   42 1    
    84   42   43 1    
    85   42   44 1    
    86   42  165 1    
    87   43  166 1    
    88   43  167 1    
    89   43  168 1    
    90   44   45 am   BACKBONE|DICT|INTERRES
    91   44  169 1    
    92   45   46 2    
    93   45   47 1    
    94   47   48 1    
    95   47   49 1    
    96   47  170 1    
    97   48  171 1    
    98   48  172 1    
    99   48  173 1    
   100   49   50 am   BACKBONE|DICT|INTERRES
   101   49  174 1    
   102   50   51 2    
   103   50   52 1    
   104   52   53 1    
   105   52   54 1    
   106   52  175 1    
   107   53  176 1    
   108   53  177 1    
   109   53  178 1    
   110   54   55 am   BACKBONE|DICT|INTERRES
   111   54  179 1    
   112   55   56 2    
   113   55   57 1    
   114   57   58 1    
   115   57   59 1    
   116   57  180 1    
   117   58  181 1    
   118   58  182 1    
   119   58  183 1    
   120   59   60 am   BACKBONE|DICT|INTERRES
   121   59  184 1    
   122   60   61 2    
   123   60   62 1    
   124   62   63 1    
   125   62   64 1    
   126   62  185 1    
   127   63  186 1    
   128   63  187 1    
   129   63  188 1    
   130   64   65 am   BACKBONE|DICT|INTERRES
   131   64  189 1    
   132   65   66 2    
   133   67   68 2    
   134   67   69 am   BACKBONE|DICT|INTERRES
   135   69   70 1    
   136   69  190 1    
   137   70   71 1    
   138   70   72 1    
   139   70  191 1    
   140   71  192 1    
   141   71  193 1    
   142   71  194 1    
   143   72   73 2    
   144   72   74 am   BACKBONE|DICT|INTERRES
   145   74   75 1    
   146   74  195 1    
   147   75   76 1    
   148   75   77 1    
   149   75  196 1    
   150   76  197 1    
   151   76  198 1    
   152   76  199 1    
   153   77   78 2    
   154   77   79 am   BACKBONE|DICT|INTERRES
   155   79   80 1    
   156   79  200 1    
   157   80   81 1    
   158   80   82 1    
   159   80  201 1    
   160   81  202 1    
   161   81  203 1    
   162   81  204 1    
   163   82   83 2    
   164   82   84 am   BACKBONE|DICT|INTERRES
   165   84   85 1    
   166   84  205 1    
   167   85   86 1    
   168   85   87 1    
   169   85  206 1    
   170   86  207 1    
   171   86  208 1    
   172   86  209 1    
   173   87   88 2    
   174   87   89 am   BACKBONE|DICT|INTERRES
   175   89   90 1    
   176   89  210 1    
   177   90   91 1    
   178   90   92 1    
   179   90  211 1    
   180   91  212 1    
   181   91  213 1    
   182   91  214 1    
   183   92   93 2    
   184   92   94 am   BACKBONE|DICT|INTERRES
   185   94   95 1    
   186   94  215 1    
   187   95   96 1    
   188   95   97 1    
   189   95  216 1    
   190   96  217 1    
   191   96  218 1    
   192   96  219 1    
   193   97   98 2    
   194   97   99 am   BACKBONE|DICT|INTERRES
   195   99  100 1    
   196   99  220 1    
   197  100  101 1    
   198  100  102 1    
   199  100  221 1    
   200  101  222 1    
   201  101  223 1    
   202  101  224 1    
   203  102  103 2    
   204  102  104 am   BACKBONE|DICT|INTERRES
   205  104  105 1    
   206  104  225 1    
   207  105  106 1    
   208  105  107 1    
   209  105  226 1    
   210  106  227 1    
   211  106  228 1    
   212  106  229 1    
   213  107  108 2    
   214  107  109 am   BACKBONE|DICT|INTERRES
   215  109  110 1    
   216  109  230 1    
   217  110  111 1    
   218  110  112 1    
   219  110  231 1    
   220  111  232 1    
   221  111  233 1    
   222  111  234 1    
   223  112  113 2    
   224  112  114 am   BACKBONE|DICT|INTERRES
   225  114  115 1    
   226  114  235 1    
   227  115  116 1    
   228  115  117 1    
   229  115  236 1    
   230  116  237 1    
   231  116  238 1    
   232  116  239 1    
   233  117  118 2    
   234  117  119 am   BACKBONE|DICT|INTERRES
   235  119  120 1    
   236  119  240 1    
   237  120  121 1    
   238  120  124 1    
   239  120  241 1    
   240  121  122 am   BACKBONE|DICT|INTERRES
   241  121  123 2    
   242  122  242 1    
   243  122  243 1    
   244  124  125 1    
   245  124  244 1    
   246  124  245 1    
   247  125  126 1    
   248  126  246 1    
   249  126  247 1    
@<TRIPOS>SUBSTRUCTURE
     1 UNK         1 GROUP             0       ****    0 ROOT    
