@<TRIPOS>MOLECULE
3R540
247   249    1
SMALL
USER_CHARGES


@<TRIPOS>ATOM
      1 CA         -0.6894  -12.3199  -49.1528 C.3       0 UNK        -0.1800 
      2 C           0.4039  -12.4467  -48.1025 C.2       0 UNK         0.5000 
      3 O           0.5236  -11.5878  -47.2289 O.2       0 UNK        -0.5000 
      4 N           1.1848  -13.5341  -48.1611 N.am      1 UNK        -0.5000 
      5 CA          2.3087  -13.8366  -47.2615 C.3       1 UNK         0.1400 
      6 C6          3.2255  -14.9523  -47.8248 C.3       23 UNK        -0.0398 
      7 S7          2.4480  -16.6000  -47.9491 S.3       23 UNK        -0.2404 
      8 C8          1.6944  -16.5637  -49.6103 C.3       23 UNK        -0.0205 
      9 C9          0.2290  -16.9858  -49.5902 C.ar      23 UNK        -0.0193 
     10 C10        -0.2647  -17.8489  -50.5733 C.ar      23 UNK        -0.1150 
     11 C11        -1.6041  -18.2514  -50.5594 C.ar      23 UNK        -0.0193 
     12 C12        -2.4545  -17.7810  -49.5566 C.ar      23 UNK        -0.1150 
     13 C13        -1.9726  -16.9262  -48.5637 C.ar      23 UNK        -0.0193 
     14 C14        -0.6386  -16.5203  -48.5964 C.ar      23 UNK        -0.1150 
     15 C15        -2.8757  -16.4693  -47.4303 C.3       23 UNK        -0.0205 
     16 S16        -3.2254  -17.8106  -46.2466 S.3       23 UNK        -0.2404 
     17 C17        -1.5641  -18.4343  -45.7941 C.3       23 UNK        -0.0398 
     18 CA         -1.1468  -19.7151  -46.5586 C.3       11 UNK         0.1400 
     19 N           0.2775  -20.0226  -46.3756 N.am      11 UNK        -0.5000 
     20 C           0.9412  -20.9183  -47.1226 C.2       10 UNK         0.5000 
     21 O           0.4225  -21.5659  -48.0322 O.2       10 UNK        -0.5000 
     22 CA          2.4158  -21.1871  -46.7703 C.3       10 UNK         0.1400 
     23 CB          3.3368  -20.1655  -47.4493 C.3       10 UNK        -0.1800 
     24 N           2.7063  -21.2157  -45.3363 N.am      10 UNK        -0.5000 
     25 C           2.1266  -22.0200  -44.4363 C.2       9 UNK         0.5000 
     26 O           1.2056  -22.7899  -44.7059 O.2       9 UNK        -0.5000 
     27 CA          2.6480  -21.9603  -42.9929 C.3       9 UNK         0.1400 
     28 CB          4.0012  -21.2367  -42.8414 C.3       9 UNK        -0.1800 
     29 N           1.6535  -21.2837  -42.1685 N.am      9 UNK        -0.5000 
     30 C           0.9347  -21.8546  -41.1932 C.2       8 UNK         0.5000 
     31 O           1.0204  -23.0456  -40.8915 O.2       8 UNK        -0.5000 
     32 CA         -0.0244  -20.9480  -40.3940 C.3       8 UNK         0.1400 
     33 CB          0.3207  -20.9785  -38.8955 C.3       8 UNK        -0.1800 
     34 N           0.0121  -19.5549  -40.8432 N.am      8 UNK        -0.5000 
     35 C          -0.8357  -19.0064  -41.7214 C.2       7 UNK         0.5000 
     36 O          -1.7656  -19.6112  -42.2526 O.2       7 UNK        -0.5000 
     37 CA         -0.5694  -17.5345  -42.0886 C.3       7 UNK         0.1400 
     38 CB         -1.2022  -16.5970  -41.0495 C.3       7 UNK        -0.1800 
     39 N           0.8537  -17.2142  -42.2118 N.am      7 UNK        -0.5000 
     40 C           1.7260  -17.7640  -43.0694 C.2       6 UNK         0.5000 
     41 O           1.4235  -18.6639  -43.8570 O.2       6 UNK        -0.5000 
     42 CA          3.1750  -17.2254  -43.0318 C.3       6 UNK         0.1400 
     43 CB          3.8177  -17.2161  -44.4268 C.3       6 UNK        -0.1800 
     44 N           3.2674  -15.8843  -42.4381 N.am      6 UNK        -0.5000 
     45 C           3.3975  -15.6484  -41.1233 C.2       5 UNK         0.5000 
     46 O           3.4771  -16.5525  -40.2906 O.2       5 UNK        -0.5000 
     47 CA          3.3495  -14.1857  -40.6362 C.3       5 UNK         0.1400 
     48 CB          4.2609  -13.9307  -39.4168 C.3       5 UNK        -0.1800 
     49 N           3.5570  -13.1829  -41.6840 N.am      5 UNK        -0.5000 
     50 C           4.6938  -12.8712  -42.3263 C.2       4 UNK         0.5000 
     51 O           5.7642  -13.4509  -42.1405 O.2       4 UNK        -0.5000 
     52 CA          4.6220  -11.7114  -43.3452 C.3       4 UNK         0.1400 
     53 CB          5.4347  -12.0136  -44.6172 C.3       4 UNK        -0.1800 
     54 N           3.2392  -11.4145  -43.7252 N.am      4 UNK        -0.5000 
     55 C           2.4697  -10.4479  -43.2046 C.2       3 UNK         0.5000 
     56 O           2.8757   -9.6172  -42.3920 O.2       3 UNK        -0.5000 
     57 CA          0.9869  -10.4225  -43.6352 C.3       3 UNK         0.1400 
     58 CB          0.7553   -9.3359  -44.6956 C.3       3 UNK        -0.1800 
     59 N           0.5116  -11.7091  -44.1543 N.am      3 UNK        -0.5000 
     60 C           0.3371  -12.8149  -43.4121 C.2       2 UNK         0.5000 
     61 O           0.4958  -12.8458  -42.1920 O.2       2 UNK        -0.5000 
     62 CA          0.0199  -14.1261  -44.1615 C.3       2 UNK         0.1400 
     63 CB         -1.4940  -14.3663  -44.2391 C.3       2 UNK        -0.1800 
     64 N           0.5904  -14.1695  -45.5087 N.am      2 UNK        -0.5000 
     65 C           1.8989  -14.0775  -45.7878 C.2       1 UNK         0.5000 
     66 O           2.7657  -14.1019  -44.9135 O.2       1 UNK        -0.5000 
     67 C          -2.0442  -20.9221  -46.2012 C.2       11 UNK         0.5000 
     68 O          -3.0290  -21.1753  -46.8945 O.2       11 UNK        -0.5000 
     69 N          -1.6706  -21.6682  -45.1520 N.am      12 UNK        -0.5000 
     70 CA         -2.3614  -22.8850  -44.7302 C.3       12 UNK         0.1400 
     71 CB         -1.9613  -23.2357  -43.2891 C.3       12 UNK        -0.1800 
     72 C          -2.0843  -24.0589  -45.6852 C.2       12 UNK         0.5000 
     73 O          -3.0135  -24.7865  -46.0340 O.2       12 UNK        -0.5000 
     74 N          -0.8217  -24.2040  -46.1114 N.am      13 UNK        -0.5000 
     75 CA         -0.3528  -25.2496  -47.0221 C.3       13 UNK         0.1400 
     76 CB          1.1805  -25.2075  -47.1022 C.3       13 UNK        -0.1800 
     77 C          -0.9744  -25.1529  -48.4269 C.2       13 UNK         0.5000 
     78 O          -1.3976  -26.1719  -48.9735 O.2       13 UNK        -0.5000 
     79 N          -1.0449  -23.9310  -48.9725 N.am      14 UNK        -0.5000 
     80 CA         -1.6765  -23.6369  -50.2617 C.3       14 UNK         0.1400 
     81 CB         -0.9678  -22.4343  -50.8985 C.3       14 UNK        -0.1800 
     82 C          -3.1952  -23.3911  -50.1478 C.2       14 UNK         0.5000 
     83 O          -3.8398  -23.1427  -51.1650 O.2       14 UNK        -0.5000 
     84 N          -3.7368  -23.4355  -48.9225 N.am      15 UNK        -0.5000 
     85 CA         -5.1453  -23.3601  -48.5095 C.3       15 UNK         0.1400 
     86 CB         -5.9261  -24.5687  -49.0596 C.3       15 UNK        -0.1800 
     87 C          -5.8945  -22.0441  -48.8115 C.2       15 UNK         0.5000 
     88 O          -6.9792  -21.8471  -48.2614 O.2       15 UNK        -0.5000 
     89 N          -5.3468  -21.1862  -49.6825 N.am      16 UNK        -0.5000 
     90 CA         -5.8629  -19.9013  -50.1756 C.3       16 UNK         0.1400 
     91 CB         -6.1499  -18.9194  -49.0226 C.3       16 UNK        -0.1800 
     92 C          -7.0801  -20.0442  -51.1082 C.2       16 UNK         0.5000 
     93 O          -7.0896  -19.4534  -52.1879 O.2       16 UNK        -0.5000 
     94 N          -8.0696  -20.8439  -50.6927 N.am      17 UNK        -0.5000 
     95 CA         -9.2716  -21.1781  -51.4572 C.3       17 UNK         0.1400 
     96 CB        -10.2961  -21.8238  -50.5124 C.3       17 UNK        -0.1800 
     97 C          -8.9862  -22.1033  -52.6559 C.2       17 UNK         0.5000 
     98 O          -9.7469  -22.0917  -53.6249 O.2       17 UNK        -0.5000 
     99 N          -7.8978  -22.8814  -52.5779 N.am      18 UNK        -0.5000 
    100 CA        -7.4032  -23.7357  -53.6519 C.3       18 UNK         0.1400 
    101 CB        -6.5440  -24.8615  -53.0522 C.3       18 UNK        -0.1800 
    102 C         -6.6185  -22.8875  -54.6657 C.2       18 UNK         0.5000 
    103 O         -5.3948  -22.7791  -54.5688 O.2       18 UNK        -0.5000 
    104 N         -7.3373  -22.2887  -55.6233 N.am      19 UNK        -0.5000 
    105 CA        -6.7876  -21.4247  -56.6733 C.3       19 UNK         0.1400 
    106 CB        -7.9388  -20.8736  -57.5270 C.3       19 UNK        -0.1800 
    107 C         -5.7353  -22.1157  -57.5634 C.2       19 UNK         0.5000 
    108 O         -4.8124  -21.4528  -58.0347 O.2       19 UNK        -0.5000 
    109 N         -5.8601  -23.4391  -57.7344 N.am      20 UNK        -0.5000 
    110 CA        -4.8943  -24.2855  -58.4371 C.3       20 UNK         0.1400 
    111 CB        -5.5080  -25.6796  -58.6384 C.3       20 UNK        -0.1800 
    112 C         -3.5330  -24.3951  -57.7187 C.2       20 UNK         0.5000 
    113 O         -2.5190  -24.6018  -58.3866 O.2       20 UNK        -0.5000 
    114 N         -3.5301  -24.2544  -56.3856 N.am      21 UNK        -0.5000 
    115 CA        -2.3246  -24.2408  -55.5592 C.3       21 UNK         0.1400 
    116 CB        -2.6231  -24.9019  -54.2030 C.3       21 UNK        -0.1800 
    117 C         -1.8112  -22.8057  -55.3616 C.2       21 UNK         0.5000 
    118 O         -0.6078  -22.5713  -55.4782 O.2       21 UNK        -0.5000 
    119 N         -2.7288  -21.8788  -55.0571 N.am      22 UNK        -0.5000 
    120 CA        -2.4269  -20.4679  -54.7799 C.3       22 UNK         0.1400 
    121 C         -2.0595  -19.6190  -56.0324 C.2       22 UNK         0.5000 
    122 N         -2.5415  -19.9423  -57.2252 N.am      22 UNK        -0.7600 
    123 O         -1.2970  -18.6622  -55.9287 O.2       22 UNK        -0.5000 
    124 C124       -3.5543  -19.8232  -53.9302 C.3       23 UNK        -0.0398 
    125 S125       -3.0037  -18.3865  -52.9468 S.3       23 UNK        -0.2404 
    126 C126       -2.1234  -19.2284  -51.5988 C.3       23 UNK        -0.0205 
    127 H127       -1.6644  -12.2442  -48.6714 H         1 UNK         0.0600 
    128 H128       -0.7083  -13.1788  -49.8244 H         1 UNK         0.0600 
    129 H129       -0.5321  -11.4222  -49.7505 H         1 UNK         0.0600 
    130 H130        1.0249  -14.2102  -48.8929 H         1 UNK         0.3000 
    131 H131        2.9186  -12.9310  -47.2330 H         1 UNK         0.0600 
    132 H132        4.1114  -15.0534  -47.1950 H         1 UNK         0.0800 
    133 H133        3.6064  -14.6620  -48.8048 H         1 UNK         0.0800 
    134 H134        2.2725  -17.2281  -50.2544 H         1 UNK         0.0800 
    135 H135        1.7681  -15.5711  -50.0539 H         1 UNK         0.0800 
    136 H136        0.3959  -18.2171  -51.3457 H         1 UNK         0.1150 
    137 H137       -3.4846  -18.1002  -49.5329 H         1 UNK         0.1150 
    138 H138       -0.2697  -15.8663  -47.8216 H         1 UNK         0.1150 
    139 H139       -2.4347  -15.6250  -46.9001 H         1 UNK         0.0800 
    140 H140       -3.8188  -16.1094  -47.8437 H         1 UNK         0.0800 
    141 H141       -1.5659  -18.6397  -44.7265 H         1 UNK         0.0800 
    142 H142       -0.8305  -17.6417  -45.9462 H         1 UNK         0.0800 
    143 H143       -1.2865  -19.5255  -47.6243 H         1 UNK         0.0600 
    144 H144        0.7636  -19.5510  -45.6195 H         1 UNK         0.3000 
    145 H145        2.6641  -22.1724  -47.1681 H         1 UNK         0.0600 
    146 H146        4.3818  -20.4662  -47.3753 H         1 UNK         0.0600 
    147 H147        3.1018  -20.0616  -48.5096 H         1 UNK         0.0600 
    148 H148        3.2400  -19.1823  -46.9914 H         1 UNK         0.0600 
    149 H149        3.4350  -20.5954  -45.0182 H         1 UNK         0.3000 
    150 H150        2.7863  -22.9936  -42.6687 H         1 UNK         0.0600 
    151 H151        4.7714  -21.7102  -43.4517 H         1 UNK         0.0600 
    152 H152        4.3453  -21.2745  -41.8076 H         1 UNK         0.0600 
    153 H153        3.9437  -20.1876  -43.1280 H         1 UNK         0.0600 
    154 H154        1.4557  -20.3229  -42.4150 H         1 UNK         0.3000 
    155 H155       -1.0309  -21.3532  -40.5171 H         1 UNK         0.0600 
    156 H156        1.3318  -20.6150  -38.7076 H         1 UNK         0.0600 
    157 H157        0.2562  -21.9916  -38.4966 H         1 UNK         0.0600 
    158 H158       -0.3700  -20.3619  -38.3199 H         1 UNK         0.0600 
    159 H159        0.7518  -18.9801  -40.4655 H         1 UNK         0.3000 
    160 H160       -1.0376  -17.3262  -43.0495 H         1 UNK         0.0600 
    161 H161       -0.7752  -16.7469  -40.0570 H         1 UNK         0.0600 
    162 H162       -2.2769  -16.7680  -40.9740 H         1 UNK         0.0600 
    163 H163       -1.0587  -15.5505  -41.3185 H         1 UNK         0.0600 
    164 H164        1.2067  -16.5076  -41.5845 H         1 UNK         0.3000 
    165 H165        3.7517  -17.9202  -42.4189 H         1 UNK         0.0600 
    166 H166        3.2084  -16.6674  -45.1409 H         1 UNK         0.0600 
    167 H167        4.8079  -16.7607  -44.4076 H         1 UNK         0.0600 
    168 H168        3.9337  -18.2288  -44.8122 H         1 UNK         0.0600 
    169 H169        3.1920  -15.1028  -43.0806 H         1 UNK         0.3000 
    170 H170        2.3234  -14.0326  -40.2990 H         1 UNK         0.0600 
    171 H171        3.9659  -14.5527  -38.5710 H         1 UNK         0.0600 
    172 H172        5.3051  -14.1559  -39.6342 H         1 UNK         0.0600 
    173 H173        4.2010  -12.8930  -39.0888 H         1 UNK         0.0600 
    174 H174        2.7247  -12.6657  -41.9368 H         1 UNK         0.3000 
    175 H175        5.0689  -10.8390  -42.8647 H         1 UNK         0.0600 
    176 H176        5.1025  -12.9300  -45.1049 H         1 UNK         0.0600 
    177 H177        5.3535  -11.2010  -45.3391 H         1 UNK         0.0600 
    178 H178        6.4935  -12.1338  -44.3854 H         1 UNK         0.0600 
    179 H179        2.8133  -12.0916  -44.3455 H         1 UNK         0.3000 
    180 H180        0.3926  -10.1716  -42.7541 H         1 UNK         0.0600 
    181 H181        1.3423   -9.5217  -45.5959 H         1 UNK         0.0600 
    182 H182        1.0387   -8.3532  -44.3166 H         1 UNK         0.0600 
    183 H183       -0.2944   -9.2827  -44.9848 H         1 UNK         0.0600 
    184 H184        0.3873  -11.7642  -45.1603 H         1 UNK         0.3000 
    185 H185        0.4661  -14.9375  -43.5879 H         1 UNK         0.0600 
    186 H186       -1.9851  -13.6406  -44.8884 H         1 UNK         0.0600 
    187 H187       -1.7130  -15.3640  -44.6182 H         1 UNK         0.0600 
    188 H188       -1.9561  -14.2891  -43.2542 H         1 UNK         0.0600 
    189 H189       -0.0584  -14.1053  -46.2778 H         1 UNK         0.3000 
    190 H190       -0.8163  -21.4378  -44.6651 H         1 UNK         0.3000 
    191 H191       -3.4363  -22.6913  -44.7404 H         1 UNK         0.0600 
    192 H192       -2.5006  -24.1169  -42.9398 H         1 UNK         0.0600 
    193 H193       -2.1963  -22.4193  -42.6062 H         1 UNK         0.0600 
    194 H194       -0.8961  -23.4498  -43.2022 H         1 UNK         0.0600 
    195 H195       -0.1108  -23.5844  -45.7284 H         1 UNK         0.3000 
    196 H196       -0.6431  -26.2121  -46.5960 H         1 UNK         0.0600 
    197 H197        1.5346  -24.2624  -47.5138 H         1 UNK         0.0600 
    198 H198        1.6312  -25.3337  -46.1176 H         1 UNK         0.0600 
    199 H199        1.5606  -26.0066  -47.7398 H         1 UNK         0.0600 
    200 H200       -0.6353  -23.1405  -48.4804 H         1 UNK         0.3000 
    201 H201       -1.5435  -24.4893  -50.9309 H         1 UNK         0.0600 
    202 H202       -1.0710  -21.5419  -50.2811 H         1 UNK         0.0600 
    203 H203       -1.3785  -22.2146  -51.8849 H         1 UNK         0.0600 
    204 H204        0.0972  -22.6276  -51.0274 H         1 UNK         0.0600 
    205 H205       -3.0946  -23.5854  -48.1566 H         1 UNK         0.3000 
    206 H206       -5.1304  -23.4458  -47.4221 H         1 UNK         0.0600 
    207 H207       -5.4514  -25.5070  -48.7723 H         1 UNK         0.0600 
    208 H208       -6.9450  -24.5894  -48.6710 H         1 UNK         0.0600 
    209 H209       -5.9929  -24.5455  -50.1463 H         1 UNK         0.0600 
    210 H210       -4.5154  -21.5251  -50.1515 H         1 UNK         0.3000 
    211 H211       -5.0610  -19.4732  -50.7764 H         1 UNK         0.0600 
    212 H212       -6.3178  -17.9123  -49.4055 H         1 UNK         0.0600 
    213 H213       -5.3145  -18.8707  -48.3245 H         1 UNK         0.0600 
    214 H214       -7.0365  -19.2016  -48.4543 H         1 UNK         0.0600 
    215 H215       -7.9630  -21.2770  -49.7790 H         1 UNK         0.3000 
    216 H216       -9.6983  -20.2521  -51.8480 H         1 UNK         0.0600 
    217 H217       -9.9129  -22.7463  -50.0739 H         1 UNK         0.0600 
    218 H218      -11.2175  -22.0688  -51.0423 H         1 UNK         0.0600 
    219 H219      -10.5602  -21.1497  -49.6973 H         1 UNK         0.0600 
    220 H220       -7.3064  -22.7934  -51.7654 H         1 UNK         0.3000 
    221 H221       -8.2469  -24.2006  -54.1665 H         1 UNK         0.0600 
    222 H222       -7.1216  -25.4721  -52.3581 H         1 UNK         0.0600 
    223 H223       -5.6801  -24.4706  -52.5158 H         1 UNK         0.0600 
    224 H224       -6.1686  -25.5231  -53.8339 H         1 UNK         0.0600 
    225 H225       -8.3438  -22.3845  -55.5969 H         1 UNK         0.3000 
    226 H226       -6.2942  -20.5843  -56.1808 H         1 UNK         0.0600 
    227 H227       -8.4920  -21.6732  -58.0211 H         1 UNK         0.0600 
    228 H228       -8.6421  -20.3034  -56.9197 H         1 UNK         0.0600 
    229 H229       -7.5645  -20.2044  -58.3030 H         1 UNK         0.0600 
    230 H230       -6.6525  -23.9031  -57.3157 H         1 UNK         0.3000 
    231 H231       -4.7130  -23.8461  -59.4203 H         1 UNK         0.0600 
    232 H232       -5.7312  -26.1624  -57.6861 H         1 UNK         0.0600 
    233 H233       -4.8253  -26.3317  -59.1849 H         1 UNK         0.0600 
    234 H234       -6.4326  -25.6249  -59.2133 H         1 UNK         0.0600 
    235 H235       -4.3963  -24.0260  -55.9143 H         1 UNK         0.3000 
    236 H236       -1.5351  -24.8194  -56.0436 H         1 UNK         0.0600 
    237 H237       -2.9567  -25.9315  -54.3314 H         1 UNK         0.0600 
    238 H238       -1.7310  -24.9236  -53.5760 H         1 UNK         0.0600 
    239 H239       -3.3959  -24.3673  -53.6502 H         1 UNK         0.0600 
    240 H240       -3.6975  -22.1673  -54.9445 H         1 UNK         0.3000 
    241 H241       -1.5248  -20.4794  -54.1670 H         1 UNK         0.0600 
    242 H242       -2.2763  -19.3871  -58.0227 H         1 UNK         0.3800 
    243 H243       -3.2248  -20.6834  -57.3500 H         1 UNK         0.3800 
    244 H244       -3.9683  -20.5551  -53.2338 H         1 UNK         0.0800 
    245 H245       -4.3905  -19.5211  -54.5629 H         1 UNK         0.0800 
    246 H246       -2.7800  -19.9573  -51.1233 H         1 UNK         0.0800 
    247 H247       -1.2875  -19.7895  -52.0152 H         1 UNK         0.0800 
@<TRIPOS>BOND
     1    1    2 1    
     2    1  127 1    
     3    1  128 1    
     4    1  129 1    
     5    2    3 2    
     6    2    4 am   BACKBONE|DICT|INTERRES
     7    4    5 1    
     8    4  130 1    
     9    5    6 1    
    10    5   65 1    
    11    5  131 1    
    12    6    7 1    
    13    6  132 1    
    14    6  133 1    
    15    7    8 1    
    16    8    9 1    
    17    8  134 1    
    18    8  135 1    
    19    9   10 ar   
    20    9   14 ar   
    21   10   11 ar   
    22   10  136 1    
    23   11   12 ar   
    24   11  126 1    
    25   12   13 ar   
    26   12  137 1    
    27   13   14 ar   
    28   13   15 1    
    29   14  138 1    
    30   15   16 1    
    31   15  139 1    
    32   15  140 1    
    33   16   17 1    
    34   17   18 1    
    35   17  141 1    
    36   17  142 1    
    37   18   19 1    
    38   18   67 1    
    39   18  143 1    
    40   19   20 am   BACKBONE|DICT|INTERRES
    41   19  144 1    
    42   20   21 2    
    43   20   22 1    
    44   22   23 1    
    45   22   24 1    
    46   22  145 1    
    47   23  146 1    
    48   23  147 1    
    49   23  148 1    
    50   24   25 am   BACKBONE|DICT|INTERRES
    51   24  149 1    
    52   25   26 2    
    53   25   27 1    
    54   27   28 1    
    55   27   29 1    
    56   27  150 1    
    57   28  151 1    
    58   28  152 1    
    59   28  153 1    
    60   29   30 am   BACKBONE|DICT|INTERRES
    61   29  154 1    
    62   30   31 2    
    63   30   32 1    
    64   32   33 1    
    65   32   34 1    
    66   32  155 1    
    67   33  156 1    
    68   33  157 1    
    69   33  158 1    
    70   34   35 am   BACKBONE|DICT|INTERRES
    71   34  159 1    
    72   35   36 2    
    73   35   37 1    
    74   37   38 1    
    75   37   39 1    
    76   37  160 1    
    77   38  161 1    
    78   38  162 1    
    79   38  163 1    
    80   39   40 am   BACKBONE|DICT|INTERRES
    81   39  164 1    
    82   40   41 2    
    83   40   42 1    
    84   42   43 1    
    85   42   44 1    
    86   42  165 1    
    87   43  166 1    
    88   43  167 1    
    89   43  168 1    
    90   44   45 am   BACKBONE|DICT|INTERRES
    91   44  169 1    
    92   45   46 2    
    93   45   47 1    
    94   47   48 1    
    95   47   49 1    
    96   47  170 1    
    97   48  171 1    
    98   48  172 1    
    99   48  173 1    
   100   49   50 am   BACKBONE|DICT|INTERRES
   101   49  174 1    
   102   50   51 2    
   103   50   52 1    
   104   52   53 1    
   105   52   54 1    
   106   52  175 1    
   107   53  176 1    
   108   53  177 1    
   109   53  178 1    
   110   54   55 am   BACKBONE|DICT|INTERRES
   111   54  179 1    
   112   55   56 2    
   113   55   57 1    
   114   57   58 1    
   115   57   59 1    
   116   57  180 1    
   117   58  181 1    
   118   58  182 1    
   119   58  183 1    
   120   59   60 am   BACKBONE|DICT|INTERRES
   121   59  184 1    
   122   60   61 2    
   123   60   62 1    
   124   62   63 1    
   125   62   64 1    
   126   62  185 1    
   127   63  186 1    
   128   63  187 1    
   129   63  188 1    
   130   64   65 am   BACKBONE|DICT|INTERRES
   131   64  189 1    
   132   65   66 2    
   133   67   68 2    
   134   67   69 am   BACKBONE|DICT|INTERRES
   135   69   70 1    
   136   69  190 1    
   137   70   71 1    
   138   70   72 1    
   139   70  191 1    
   140   71  192 1    
   141   71  193 1    
   142   71  194 1    
   143   72   73 2    
   144   72   74 am   BACKBONE|DICT|INTERRES
   145   74   75 1    
   146   74  195 1    
   147   75   76 1    
   148   75   77 1    
   149   75  196 1    
   150   76  197 1    
   151   76  198 1    
   152   76  199 1    
   153   77   78 2    
   154   77   79 am   BACKBONE|DICT|INTERRES
   155   79   80 1    
   156   79  200 1    
   157   80   81 1    
   158   80   82 1    
   159   80  201 1    
   160   81  202 1    
   161   81  203 1    
   162   81  204 1    
   163   82   83 2    
   164   82   84 am   BACKBONE|DICT|INTERRES
   165   84   85 1    
   166   84  205 1    
   167   85   86 1    
   168   85   87 1    
   169   85  206 1    
   170   86  207 1    
   171   86  208 1    
   172   86  209 1    
   173   87   88 2    
   174   87   89 am   BACKBONE|DICT|INTERRES
   175   89   90 1    
   176   89  210 1    
   177   90   91 1    
   178   90   92 1    
   179   90  211 1    
   180   91  212 1    
   181   91  213 1    
   182   91  214 1    
   183   92   93 2    
   184   92   94 am   BACKBONE|DICT|INTERRES
   185   94   95 1    
   186   94  215 1    
   187   95   96 1    
   188   95   97 1    
   189   95  216 1    
   190   96  217 1    
   191   96  218 1    
   192   96  219 1    
   193   97   98 2    
   194   97   99 am   BACKBONE|DICT|INTERRES
   195   99  100 1    
   196   99  220 1    
   197  100  101 1    
   198  100  102 1    
   199  100  221 1    
   200  101  222 1    
   201  101  223 1    
   202  101  224 1    
   203  102  103 2    
   204  102  104 am   BACKBONE|DICT|INTERRES
   205  104  105 1    
   206  104  225 1    
   207  105  106 1    
   208  105  107 1    
   209  105  226 1    
   210  106  227 1    
   211  106  228 1    
   212  106  229 1    
   213  107  108 2    
   214  107  109 am   BACKBONE|DICT|INTERRES
   215  109  110 1    
   216  109  230 1    
   217  110  111 1    
   218  110  112 1    
   219  110  231 1    
   220  111  232 1    
   221  111  233 1    
   222  111  234 1    
   223  112  113 2    
   224  112  114 am   BACKBONE|DICT|INTERRES
   225  114  115 1    
   226  114  235 1    
   227  115  116 1    
   228  115  117 1    
   229  115  236 1    
   230  116  237 1    
   231  116  238 1    
   232  116  239 1    
   233  117  118 2    
   234  117  119 am   BACKBONE|DICT|INTERRES
   235  119  120 1    
   236  119  240 1    
   237  120  121 1    
   238  120  124 1    
   239  120  241 1    
   240  121  122 am   BACKBONE|DICT|INTERRES
   241  121  123 2    
   242  122  242 1    
   243  122  243 1    
   244  124  125 1    
   245  124  244 1    
   246  124  245 1    
   247  125  126 1    
   248  126  246 1    
   249  126  247 1    
@<TRIPOS>SUBSTRUCTURE
     1 UNK         1 GROUP             0       ****    0 ROOT    
