@<TRIPOS>MOLECULE
3R540
247   249    1
SMALL
USER_CHARGES


@<TRIPOS>ATOM
      1 CA         -3.0079  -14.3852  -49.1894 C.3       0 UNK        -0.1800 
      2 C          -2.1218  -13.1814  -48.9056 C.2       0 UNK         0.5000 
      3 O          -2.6201  -12.1371  -48.4833 O.2       0 UNK        -0.5000 
      4 N          -0.8113  -13.3236  -49.1365 N.am      1 UNK        -0.5000 
      5 CA          0.2074  -12.3178  -48.8129 C.3       1 UNK         0.1400 
      6 C6          1.5600  -12.5944  -49.5194 C.3       23 UNK        -0.0398 
      7 S7          1.4158  -12.7093  -51.3361 S.3       23 UNK        -0.2404 
      8 C8          1.9613  -14.4196  -51.6507 C.3       23 UNK        -0.0205 
      9 C9          0.9940  -15.4408  -51.0725 C.ar      23 UNK        -0.0193 
     10 C10        -0.2093  -15.7145  -51.7271 C.ar      23 UNK        -0.1150 
     11 C11        -1.1141  -16.6359  -51.1937 C.ar      23 UNK        -0.0193 
     12 C12        -0.8073  -17.2885  -49.9962 C.ar      23 UNK        -0.1150 
     13 C13         0.3967  -17.0259  -49.3350 C.ar      23 UNK        -0.0193 
     14 C14         1.2944  -16.1051  -49.8802 C.ar      23 UNK        -0.1150 
     15 C15         0.7199  -17.7053  -48.0144 C.3       23 UNK        -0.0205 
     16 S16         1.9021  -19.0774  -48.1952 S.3       23 UNK        -0.2404 
     17 C17         0.9955  -20.3202  -49.1951 C.3       23 UNK        -0.0398 
     18 CA          0.0201  -21.2467  -48.4118 C.3       11 UNK         0.1400 
     19 N           0.4851  -21.5269  -47.0508 N.am      11 UNK        -0.5000 
     20 C          -0.1014  -22.3094  -46.1378 C.2       10 UNK         0.5000 
     21 O          -1.1146  -22.9729  -46.3566 O.2       10 UNK        -0.5000 
     22 CA          0.4948  -22.2811  -44.7161 C.3       10 UNK         0.1400 
     23 CB          1.9723  -21.8388  -44.6816 C.3       10 UNK        -0.1800 
     24 N          -0.2962  -21.4474  -43.8034 N.am      10 UNK        -0.5000 
     25 C          -0.7052  -20.1835  -43.9905 C.2       9 UNK         0.5000 
     26 O          -0.4724  -19.5178  -44.9998 O.2       9 UNK        -0.5000 
     27 CA         -1.4981  -19.5369  -42.8470 C.3       9 UNK         0.1400 
     28 CB         -2.8063  -20.2840  -42.5246 C.3       9 UNK        -0.1800 
     29 N          -0.6616  -19.3146  -41.6699 N.am      9 UNK        -0.5000 
     30 C          -0.1677  -20.1986  -40.7954 C.2       8 UNK         0.5000 
     31 O          -0.4182  -21.4057  -40.8086 O.2       8 UNK        -0.5000 
     32 CA          0.8069  -19.5976  -39.7642 C.3       8 UNK         0.1400 
     33 CB          1.2127  -20.5832  -38.6479 C.3       8 UNK        -0.1800 
     34 N           1.9783  -19.0155  -40.4298 N.am      8 UNK        -0.5000 
     35 C           2.9265  -19.6622  -41.1257 C.2       7 UNK         0.5000 
     36 O           2.9861  -20.8870  -41.2330 O.2       7 UNK        -0.5000 
     37 CA          3.9938  -18.8072  -41.8394 C.3       7 UNK         0.1400 
     38 CB          3.8309  -18.9067  -43.3641 C.3       7 UNK        -0.1800 
     39 N           3.9836  -17.3929  -41.4622 N.am      7 UNK        -0.5000 
     40 C           4.4790  -16.8964  -40.3208 C.2       6 UNK         0.5000 
     41 O           4.9619  -17.5891  -39.4247 O.2       6 UNK        -0.5000 
     42 CA          4.4165  -15.3682  -40.1531 C.3       6 UNK         0.1400 
     43 CB          5.5960  -14.6939  -40.8713 C.3       6 UNK        -0.1800 
     44 N           3.1626  -14.8158  -40.6640 N.am      6 UNK        -0.5000 
     45 C           2.0032  -14.8200  -39.9927 C.2       5 UNK         0.5000 
     46 O           1.8746  -15.2611  -38.8505 O.2       5 UNK        -0.5000 
     47 CA          0.7748  -14.2559  -40.7314 C.3       5 UNK         0.1400 
     48 CB          0.6663  -12.7380  -40.5241 C.3       5 UNK        -0.1800 
     49 N           0.7985  -14.5556  -42.1645 N.am      5 UNK        -0.5000 
     50 C           0.6161  -15.7855  -42.6681 C.2       4 UNK         0.5000 
     51 O           0.3745  -16.7685  -41.9691 O.2       4 UNK        -0.5000 
     52 CA          0.7570  -15.9646  -44.1931 C.3       4 UNK         0.1400 
     53 CB         -0.6173  -15.8414  -44.8686 C.3       4 UNK        -0.1800 
     54 N           1.6894  -15.0167  -44.8082 N.am      4 UNK        -0.5000 
     55 C           2.9942  -14.9195  -44.5049 C.2       3 UNK         0.5000 
     56 O           3.5552  -15.6526  -43.6916 O.2       3 UNK        -0.5000 
     57 CA          3.8056  -13.7876  -45.1677 C.3       3 UNK         0.1400 
     58 CB          4.5352  -14.3209  -46.4097 C.3       3 UNK        -0.1800 
     59 N           3.0068  -12.6227  -45.5522 N.am      3 UNK        -0.5000 
     60 C           2.2270  -11.8941  -44.7396 C.2       2 UNK         0.5000 
     61 O           2.1610  -12.0665  -43.5222 O.2       2 UNK        -0.5000 
     62 CA          1.3160  -10.8430  -45.4097 C.3       2 UNK         0.1400 
     63 CB          1.9426   -9.4451  -45.2993 C.3       2 UNK        -0.1800 
     64 N           0.9960  -11.1154  -46.8195 N.am      2 UNK        -0.5000 
     65 C           0.4218  -12.2347  -47.2864 C.2       1 UNK         0.5000 
     66 O           0.1323  -13.1963  -46.5696 O.2       1 UNK        -0.5000 
     67 C          -1.4320  -20.7266  -48.4865 C.2       11 UNK         0.5000 
     68 O          -2.1031  -20.9900  -49.4802 O.2       11 UNK        -0.5000 
     69 N          -1.9091  -20.0291  -47.4465 N.am      12 UNK        -0.5000 
     70 CA         -3.2876  -19.5465  -47.3577 C.3       12 UNK         0.1400 
     71 CB         -3.3484  -18.3683  -46.3740 C.3       12 UNK        -0.1800 
     72 C          -4.2827  -20.6528  -46.9516 C.2       12 UNK         0.5000 
     73 O          -5.4728  -20.5256  -47.2397 O.2       12 UNK        -0.5000 
     74 N          -3.7915  -21.7091  -46.2884 N.am      13 UNK        -0.5000 
     75 CA         -4.5900  -22.8508  -45.8421 C.3       13 UNK         0.1400 
     76 CB         -4.0676  -23.3364  -44.4810 C.3       13 UNK        -0.1800 
     77 C          -4.5783  -24.0052  -46.8573 C.2       13 UNK         0.5000 
     78 O          -5.5599  -24.7451  -46.9154 O.2       13 UNK        -0.5000 
     79 N          -3.4798  -24.1375  -47.6180 N.am      14 UNK        -0.5000 
     80 CA         -3.1571  -25.1895  -48.5897 C.3       14 UNK         0.1400 
     81 CB         -1.8166  -24.8252  -49.2535 C.3       14 UNK        -0.1800 
     82 C          -4.2600  -25.4325  -49.6409 C.2       14 UNK         0.5000 
     83 O          -4.2517  -24.8028  -50.7011 O.2       14 UNK        -0.5000 
     84 N          -5.2194  -26.3045  -49.2981 N.am      15 UNK        -0.5000 
     85 CA         -6.4722  -26.5748  -50.0147 C.3       15 UNK         0.1400 
     86 CB         -6.1963  -27.3270  -51.3323 C.3       15 UNK        -0.1800 
     87 C          -7.3170  -25.2966  -50.2129 C.2       15 UNK         0.5000 
     88 O          -7.8414  -25.0643  -51.3012 O.2       15 UNK        -0.5000 
     89 N          -7.3713  -24.4538  -49.1692 N.am      16 UNK        -0.5000 
     90 CA         -7.9460  -23.1006  -49.1621 C.3       16 UNK         0.1400 
     91 CB         -9.4777  -23.1462  -49.3424 C.3       16 UNK        -0.1800 
     92 C          -7.2407  -22.1579  -50.1641 C.2       16 UNK         0.5000 
     93 O          -7.8867  -21.3271  -50.8040 O.2       16 UNK        -0.5000 
     94 N          -5.9186  -22.3409  -50.2833 N.am      17 UNK        -0.5000 
     95 CA         -4.9665  -21.6623  -51.1651 C.3       17 UNK         0.1400 
     96 CB         -5.0312  -20.1322  -51.0009 C.3       17 UNK        -0.1800 
     97 C          -5.0299  -22.1094  -52.6398 C.2       17 UNK         0.5000 
     98 O          -4.3034  -21.5548  -53.4675 O.2       17 UNK        -0.5000 
     99 N          -5.8404  -23.1310  -52.9556 N.am      18 UNK        -0.5000 
    100 CA        -5.9294  -23.7148  -54.2944 C.3       18 UNK         0.1400 
    101 CB        -7.1849  -24.5906  -54.4063 C.3       18 UNK        -0.1800 
    102 C         -4.6751  -24.5222  -54.6722 C.2       18 UNK         0.5000 
    103 O         -4.2862  -24.5079  -55.8397 O.2       18 UNK        -0.5000 
    104 N         -4.0349  -25.1758  -53.6895 N.am      19 UNK        -0.5000 
    105 CA        -2.7924  -25.9294  -53.8943 C.3       19 UNK         0.1400 
    106 CB        -2.6169  -26.9688  -52.7785 C.3       19 UNK        -0.1800 
    107 C         -1.5630  -25.0070  -53.9947 C.2       19 UNK         0.5000 
    108 O         -0.5693  -25.3849  -54.6154 O.2       19 UNK        -0.5000 
    109 N         -1.6708  -23.7971  -53.4275 N.am      20 UNK        -0.5000 
    110 CA        -0.7176  -22.6999  -53.6076 C.3       20 UNK         0.1400 
    111 CB        -0.8411  -21.7368  -52.4171 C.3       20 UNK        -0.1800 
    112 C         -0.9125  -21.9551  -54.9476 C.2       20 UNK         0.5000 
    113 O         -0.0750  -21.1230  -55.2972 O.2       20 UNK        -0.5000 
    114 N         -2.0001  -22.2723  -55.6695 N.am      21 UNK        -0.5000 
    115 CA        -2.4280  -21.7152  -56.9560 C.3       21 UNK         0.1400 
    116 CB        -1.4107  -22.0469  -58.0680 C.3       21 UNK        -0.1800 
    117 C         -2.7852  -20.2163  -56.8833 C.2       21 UNK         0.5000 
    118 O         -2.5932  -19.4880  -57.8596 O.2       21 UNK        -0.5000 
    119 N         -3.3040  -19.7814  -55.7295 N.am      22 UNK        -0.5000 
    120 CA        -3.7709  -18.4103  -55.4891 C.3       22 UNK         0.1400 
    121 C         -5.1178  -18.1154  -56.2060 C.2       22 UNK         0.5000 
    122 N         -5.3356  -16.8819  -56.6419 N.am      22 UNK        -0.7600 
    123 O         -5.9829  -18.9790  -56.3378 O.2       22 UNK        -0.5000 
    124 C124       -3.8827  -18.1170  -53.9750 C.3       23 UNK        -0.0398 
    125 S125       -2.2641  -18.2227  -53.1350 S.3       23 UNK        -0.2404 
    126 C126       -2.4322  -16.8998  -51.9016 C.3       23 UNK        -0.0205 
    127 H127       -2.5201  -15.3088  -48.8790 H         1 UNK         0.0600 
    128 H128       -3.9488  -14.3068  -48.6446 H         1 UNK         0.0600 
    129 H129       -3.2327  -14.4464  -50.2538 H         1 UNK         0.0600 
    130 H130       -0.4598  -14.2033  -49.4885 H         1 UNK         0.3000 
    131 H131       -0.1609  -11.3471  -49.1520 H         1 UNK         0.0600 
    132 H132        2.0239  -13.4995  -49.1263 H         1 UNK         0.0800 
    133 H133        2.2660  -11.7889  -49.3105 H         1 UNK         0.0800 
    134 H134        2.9648  -14.5629  -51.2468 H         1 UNK         0.0800 
    135 H135        2.0435  -14.5709  -52.7280 H         1 UNK         0.0800 
    136 H136       -0.4455  -15.2014  -52.6490 H         1 UNK         0.1150 
    137 H137       -1.5113  -17.9935  -49.5786 H         1 UNK         0.1150 
    138 H138        2.2251  -15.9034  -49.3686 H         1 UNK         0.1150 
    139 H139        1.1604  -16.9711  -47.3383 H         1 UNK         0.0800 
    140 H140       -0.1859  -18.0495  -47.5196 H         1 UNK         0.0800 
    141 H141        0.5101  -19.8322  -50.0424 H         1 UNK         0.0800 
    142 H142        1.7629  -20.9486  -49.6485 H         1 UNK         0.0800 
    143 H143        0.0061  -22.2096  -48.9264 H         1 UNK         0.0600 
    144 H144        1.2730  -20.9680  -46.7538 H         1 UNK         0.3000 
    145 H145        0.4421  -23.3029  -44.3381 H         1 UNK         0.0600 
    146 H146        2.3859  -21.9575  -43.6805 H         1 UNK         0.0600 
    147 H147        2.5827  -22.4435  -45.3536 H         1 UNK         0.0600 
    148 H148        2.0948  -20.7936  -44.9667 H         1 UNK         0.0600 
    149 H149       -0.5121  -21.8645  -42.9048 H         1 UNK         0.3000 
    150 H150       -1.7815  -18.5402  -43.1864 H         1 UNK         0.0600 
    151 H151       -3.4537  -20.3164  -43.4014 H         1 UNK         0.0600 
    152 H152       -3.3601  -19.7798  -41.7329 H         1 UNK         0.0600 
    153 H153       -2.6345  -21.3125  -42.2079 H         1 UNK         0.0600 
    154 H154       -0.3078  -18.3601  -41.6050 H         1 UNK         0.3000 
    155 H155        0.2836  -18.7677  -39.2866 H         1 UNK         0.0600 
    156 H156        0.3368  -20.9113  -38.0873 H         1 UNK         0.0600 
    157 H157        1.8961  -20.1151  -37.9394 H         1 UNK         0.0600 
    158 H158        1.6971  -21.4773  -39.0405 H         1 UNK         0.0600 
    159 H159        2.0095  -18.0055  -40.4485 H         1 UNK         0.3000 
    160 H160        4.9694  -19.2220  -41.5777 H         1 UNK         0.0600 
    161 H161        2.8399  -18.5838  -43.6851 H         1 UNK         0.0600 
    162 H162        3.9727  -19.9331  -43.7019 H         1 UNK         0.0600 
    163 H163        4.5685  -18.2947  -43.8835 H         1 UNK         0.0600 
    164 H164        3.6659  -16.7422  -42.1766 H         1 UNK         0.3000 
    165 H165        4.4972  -15.1423  -39.0875 H         1 UNK         0.0600 
    166 H166        6.5479  -15.0702  -40.4945 H         1 UNK         0.0600 
    167 H167        5.5741  -14.8756  -41.9464 H         1 UNK         0.0600 
    168 H168        5.5879  -13.6153  -40.7138 H         1 UNK         0.0600 
    169 H169        3.1701  -14.4727  -41.6141 H         1 UNK         0.3000 
    170 H170       -0.1155  -14.7194  -40.3006 H         1 UNK         0.0600 
    171 H171        0.5744  -12.4962  -39.4645 H         1 UNK         0.0600 
    172 H172        1.5445  -12.2146  -40.9032 H         1 UNK         0.0600 
    173 H173       -0.2106  -12.3315  -41.0281 H         1 UNK         0.0600 
    174 H174        1.0351  -13.7927  -42.7878 H         1 UNK         0.3000 
    175 H175        1.1368  -16.9715  -44.3765 H         1 UNK         0.0600 
    176 H176       -1.0658  -14.8635  -44.6894 H         1 UNK         0.0600 
    177 H177       -0.5479  -15.9797  -45.9468 H         1 UNK         0.0600 
    178 H178       -1.3090  -16.5939  -44.4906 H         1 UNK         0.0600 
    179 H179        1.2836  -14.3561  -45.4649 H         1 UNK         0.3000 
    180 H180        4.5509  -13.4528  -44.4435 H         1 UNK         0.0600 
    181 H181        3.8340  -14.6460  -47.1795 H         1 UNK         0.0600 
    182 H182        5.1845  -13.5606  -46.8443 H         1 UNK         0.0600 
    183 H183        5.1635  -15.1760  -46.1564 H         1 UNK         0.0600 
    184 H184        2.9938  -12.3965  -46.5346 H         1 UNK         0.3000 
    185 H185        0.3740  -10.8400  -44.8577 H         1 UNK         0.0600 
    186 H186        1.2647   -8.6771  -45.6723 H         1 UNK         0.0600 
    187 H187        2.1691   -9.1986  -44.2610 H         1 UNK         0.0600 
    188 H188        2.8735   -9.3761  -45.8636 H         1 UNK         0.0600 
    189 H189        1.2125  -10.3725  -47.4689 H         1 UNK         0.3000 
    190 H190       -1.3038  -19.8490  -46.6482 H         1 UNK         0.3000 
    191 H191       -3.5885  -19.1717  -48.3376 H         1 UNK         0.0600 
    192 H192       -4.3507  -17.9395  -46.3426 H         1 UNK         0.0600 
    193 H193       -2.6643  -17.5722  -46.6685 H         1 UNK         0.0600 
    194 H194       -3.0929  -18.6740  -45.3603 H         1 UNK         0.0600 
    195 H195       -2.7912  -21.7785  -46.1469 H         1 UNK         0.3000 
    196 H196       -5.6301  -22.5466  -45.7067 H         1 UNK         0.0600 
    197 H197       -4.6049  -24.2262  -44.1501 H         1 UNK         0.0600 
    198 H198       -4.2087  -22.5768  -43.7140 H         1 UNK         0.0600 
    199 H199       -3.0073  -23.5883  -44.5163 H         1 UNK         0.0600 
    200 H200       -2.7154  -23.5028  -47.4163 H         1 UNK         0.3000 
    201 H201       -3.0125  -26.1169  -48.0327 H         1 UNK         0.0600 
    202 H202       -1.0247  -24.7194  -48.5121 H         1 UNK         0.0600 
    203 H203       -1.8823  -23.8874  -49.8072 H         1 UNK         0.0600 
    204 H204       -1.4970  -25.5990  -49.9505 H         1 UNK         0.0600 
    205 H205       -5.1601  -26.7170  -48.3769 H         1 UNK         0.3000 
    206 H206       -7.0606  -27.2334  -49.3745 H         1 UNK         0.0600 
    207 H207       -5.5957  -28.2198  -51.1592 H         1 UNK         0.0600 
    208 H208       -7.1274  -27.6473  -51.8009 H         1 UNK         0.0600 
    209 H209       -5.6695  -26.7027  -52.0517 H         1 UNK         0.0600 
    210 H210       -6.8681  -24.7165  -48.3249 H         1 UNK         0.3000 
    211 H211       -7.7439  -22.6904  -48.1714 H         1 UNK         0.0600 
    212 H212       -9.7609  -23.4808  -50.3407 H         1 UNK         0.0600 
    213 H213       -9.9166  -22.1590  -49.1937 H         1 UNK         0.0600 
    214 H214       -9.9398  -23.8180  -48.6193 H         1 UNK         0.0600 
    215 H215       -5.5138  -23.1057  -49.7619 H         1 UNK         0.3000 
    216 H216       -3.9892  -21.9895  -50.8141 H         1 UNK         0.0600 
    217 H217       -5.8563  -19.6973  -51.5652 H         1 UNK         0.0600 
    218 H218       -4.1064  -19.6749  -51.3488 H         1 UNK         0.0600 
    219 H219       -5.1547  -19.8478  -49.9574 H         1 UNK         0.0600 
    220 H220       -6.4003  -23.5606  -52.2300 H         1 UNK         0.3000 
    221 H221       -6.0280  -22.8966  -55.0113 H         1 UNK         0.0600 
    222 H222       -7.1109  -25.4842  -53.7864 H         1 UNK         0.0600 
    223 H223       -8.0791  -24.0442  -54.1054 H         1 UNK         0.0600 
    224 H224       -7.3352  -24.9217  -55.4345 H         1 UNK         0.0600 
    225 H225       -4.3701  -25.0974  -52.7343 H         1 UNK         0.3000 
    226 H226       -2.8682  -26.4730  -54.8386 H         1 UNK         0.0600 
    227 H227       -3.4625  -27.6549  -52.7401 H         1 UNK         0.0600 
    228 H228       -1.7209  -27.5684  -52.9434 H         1 UNK         0.0600 
    229 H229       -2.5182  -26.4999  -51.8025 H         1 UNK         0.0600 
    230 H230       -2.5236  -23.5754  -52.9347 H         1 UNK         0.3000 
    231 H231        0.2954  -23.1072  -53.6072 H         1 UNK         0.0600 
    232 H232       -1.8364  -21.2966  -52.3524 H         1 UNK         0.0600 
    233 H233       -0.6396  -22.2489  -51.4768 H         1 UNK         0.0600 
    234 H234       -0.1283  -20.9153  -52.4986 H         1 UNK         0.0600 
    235 H235       -2.6248  -22.9663  -55.2835 H         1 UNK         0.3000 
    236 H236       -3.3583  -22.2267  -57.2063 H         1 UNK         0.0600 
    237 H237       -1.1900  -23.1141  -58.0940 H         1 UNK         0.0600 
    238 H238       -1.8012  -21.7741  -59.0489 H         1 UNK         0.0600 
    239 H239       -0.4705  -21.5121  -57.9313 H         1 UNK         0.0600 
    240 H240       -3.4669  -20.4433  -54.9776 H         1 UNK         0.3000 
    241 H241       -3.0233  -17.7313  -55.9047 H         1 UNK         0.0600 
    242 H242       -4.6443  -16.1542  -56.5439 H         1 UNK         0.3800 
    243 H243       -6.2105  -16.6719  -57.0973 H         1 UNK         0.3800 
    244 H244       -4.5769  -18.8132  -53.5052 H         1 UNK         0.0800 
    245 H245       -4.2976  -17.1204  -53.8157 H         1 UNK         0.0800 
    246 H246       -2.7734  -15.9844  -52.3876 H         1 UNK         0.0800 
    247 H247       -3.2026  -17.1739  -51.1791 H         1 UNK         0.0800 
@<TRIPOS>BOND
     1    1    2 1    
     2    1  127 1    
     3    1  128 1    
     4    1  129 1    
     5    2    3 2    
     6    2    4 am   BACKBONE|DICT|INTERRES
     7    4    5 1    
     8    4  130 1    
     9    5    6 1    
    10    5   65 1    
    11    5  131 1    
    12    6    7 1    
    13    6  132 1    
    14    6  133 1    
    15    7    8 1    
    16    8    9 1    
    17    8  134 1    
    18    8  135 1    
    19    9   10 ar   
    20    9   14 ar   
    21   10   11 ar   
    22   10  136 1    
    23   11   12 ar   
    24   11  126 1    
    25   12   13 ar   
    26   12  137 1    
    27   13   14 ar   
    28   13   15 1    
    29   14  138 1    
    30   15   16 1    
    31   15  139 1    
    32   15  140 1    
    33   16   17 1    
    34   17   18 1    
    35   17  141 1    
    36   17  142 1    
    37   18   19 1    
    38   18   67 1    
    39   18  143 1    
    40   19   20 am   BACKBONE|DICT|INTERRES
    41   19  144 1    
    42   20   21 2    
    43   20   22 1    
    44   22   23 1    
    45   22   24 1    
    46   22  145 1    
    47   23  146 1    
    48   23  147 1    
    49   23  148 1    
    50   24   25 am   BACKBONE|DICT|INTERRES
    51   24  149 1    
    52   25   26 2    
    53   25   27 1    
    54   27   28 1    
    55   27   29 1    
    56   27  150 1    
    57   28  151 1    
    58   28  152 1    
    59   28  153 1    
    60   29   30 am   BACKBONE|DICT|INTERRES
    61   29  154 1    
    62   30   31 2    
    63   30   32 1    
    64   32   33 1    
    65   32   34 1    
    66   32  155 1    
    67   33  156 1    
    68   33  157 1    
    69   33  158 1    
    70   34   35 am   BACKBONE|DICT|INTERRES
    71   34  159 1    
    72   35   36 2    
    73   35   37 1    
    74   37   38 1    
    75   37   39 1    
    76   37  160 1    
    77   38  161 1    
    78   38  162 1    
    79   38  163 1    
    80   39   40 am   BACKBONE|DICT|INTERRES
    81   39  164 1    
    82   40   41 2    
    83   40   42 1    
    84   42   43 1    
    85   42   44 1    
    86   42  165 1    
    87   43  166 1    
    88   43  167 1    
    89   43  168 1    
    90   44   45 am   BACKBONE|DICT|INTERRES
    91   44  169 1    
    92   45   46 2    
    93   45   47 1    
    94   47   48 1    
    95   47   49 1    
    96   47  170 1    
    97   48  171 1    
    98   48  172 1    
    99   48  173 1    
   100   49   50 am   BACKBONE|DICT|INTERRES
   101   49  174 1    
   102   50   51 2    
   103   50   52 1    
   104   52   53 1    
   105   52   54 1    
   106   52  175 1    
   107   53  176 1    
   108   53  177 1    
   109   53  178 1    
   110   54   55 am   BACKBONE|DICT|INTERRES
   111   54  179 1    
   112   55   56 2    
   113   55   57 1    
   114   57   58 1    
   115   57   59 1    
   116   57  180 1    
   117   58  181 1    
   118   58  182 1    
   119   58  183 1    
   120   59   60 am   BACKBONE|DICT|INTERRES
   121   59  184 1    
   122   60   61 2    
   123   60   62 1    
   124   62   63 1    
   125   62   64 1    
   126   62  185 1    
   127   63  186 1    
   128   63  187 1    
   129   63  188 1    
   130   64   65 am   BACKBONE|DICT|INTERRES
   131   64  189 1    
   132   65   66 2    
   133   67   68 2    
   134   67   69 am   BACKBONE|DICT|INTERRES
   135   69   70 1    
   136   69  190 1    
   137   70   71 1    
   138   70   72 1    
   139   70  191 1    
   140   71  192 1    
   141   71  193 1    
   142   71  194 1    
   143   72   73 2    
   144   72   74 am   BACKBONE|DICT|INTERRES
   145   74   75 1    
   146   74  195 1    
   147   75   76 1    
   148   75   77 1    
   149   75  196 1    
   150   76  197 1    
   151   76  198 1    
   152   76  199 1    
   153   77   78 2    
   154   77   79 am   BACKBONE|DICT|INTERRES
   155   79   80 1    
   156   79  200 1    
   157   80   81 1    
   158   80   82 1    
   159   80  201 1    
   160   81  202 1    
   161   81  203 1    
   162   81  204 1    
   163   82   83 2    
   164   82   84 am   BACKBONE|DICT|INTERRES
   165   84   85 1    
   166   84  205 1    
   167   85   86 1    
   168   85   87 1    
   169   85  206 1    
   170   86  207 1    
   171   86  208 1    
   172   86  209 1    
   173   87   88 2    
   174   87   89 am   BACKBONE|DICT|INTERRES
   175   89   90 1    
   176   89  210 1    
   177   90   91 1    
   178   90   92 1    
   179   90  211 1    
   180   91  212 1    
   181   91  213 1    
   182   91  214 1    
   183   92   93 2    
   184   92   94 am   BACKBONE|DICT|INTERRES
   185   94   95 1    
   186   94  215 1    
   187   95   96 1    
   188   95   97 1    
   189   95  216 1    
   190   96  217 1    
   191   96  218 1    
   192   96  219 1    
   193   97   98 2    
   194   97   99 am   BACKBONE|DICT|INTERRES
   195   99  100 1    
   196   99  220 1    
   197  100  101 1    
   198  100  102 1    
   199  100  221 1    
   200  101  222 1    
   201  101  223 1    
   202  101  224 1    
   203  102  103 2    
   204  102  104 am   BACKBONE|DICT|INTERRES
   205  104  105 1    
   206  104  225 1    
   207  105  106 1    
   208  105  107 1    
   209  105  226 1    
   210  106  227 1    
   211  106  228 1    
   212  106  229 1    
   213  107  108 2    
   214  107  109 am   BACKBONE|DICT|INTERRES
   215  109  110 1    
   216  109  230 1    
   217  110  111 1    
   218  110  112 1    
   219  110  231 1    
   220  111  232 1    
   221  111  233 1    
   222  111  234 1    
   223  112  113 2    
   224  112  114 am   BACKBONE|DICT|INTERRES
   225  114  115 1    
   226  114  235 1    
   227  115  116 1    
   228  115  117 1    
   229  115  236 1    
   230  116  237 1    
   231  116  238 1    
   232  116  239 1    
   233  117  118 2    
   234  117  119 am   BACKBONE|DICT|INTERRES
   235  119  120 1    
   236  119  240 1    
   237  120  121 1    
   238  120  124 1    
   239  120  241 1    
   240  121  122 am   BACKBONE|DICT|INTERRES
   241  121  123 2    
   242  122  242 1    
   243  122  243 1    
   244  124  125 1    
   245  124  244 1    
   246  124  245 1    
   247  125  126 1    
   248  126  246 1    
   249  126  247 1    
@<TRIPOS>SUBSTRUCTURE
     1 UNK         1 GROUP             0       ****    0 ROOT    
