@<TRIPOS>MOLECULE
3R540
247   249    1
SMALL
USER_CHARGES


@<TRIPOS>ATOM
      1 CA          1.5019  -11.8228  -46.3120 C.3       0 UNK        -0.1800 
      2 C           1.1109  -11.7530  -47.7883 C.2       0 UNK         0.5000 
      3 O           0.6457  -10.7077  -48.2373 O.2       0 UNK        -0.5000 
      4 N           1.2798  -12.8195  -48.5846 N.am      1 UNK        -0.5000 
      5 CA          1.7850  -14.1474  -48.2056 C.3       1 UNK         0.1400 
      6 C6          2.0075  -15.0696  -49.4293 C.3       23 UNK        -0.0398 
      7 S7          2.9301  -14.3306  -50.8226 S.3       23 UNK        -0.2404 
      8 C8          3.0432  -15.7332  -51.9953 C.3       23 UNK        -0.0205 
      9 C9          1.7835  -16.5910  -52.0123 C.ar      23 UNK        -0.0193 
     10 C10         0.5949  -16.0942  -52.5539 C.ar      23 UNK        -0.1150 
     11 C11        -0.5889  -16.8326  -52.4648 C.ar      23 UNK        -0.0193 
     12 C12        -0.5756  -18.0844  -51.8407 C.ar      23 UNK        -0.1150 
     13 C13         0.6116  -18.5999  -51.3108 C.ar      23 UNK        -0.0193 
     14 C14         1.7889  -17.8531  -51.4119 C.ar      23 UNK        -0.1150 
     15 C15         0.6260  -19.9582  -50.6221 C.3       23 UNK        -0.0205 
     16 S16         1.1727  -19.8650  -48.8839 S.3       23 UNK        -0.2404 
     17 C17        -0.1923  -18.9450  -48.0974 C.3       23 UNK        -0.0398 
     18 CA         -1.3057  -19.8860  -47.5839 C.3       11 UNK         0.1400 
     19 N          -0.8324  -20.8798  -46.6168 N.am      11 UNK        -0.5000 
     20 C          -1.5165  -21.9853  -46.2918 C.2       10 UNK         0.5000 
     21 O          -2.6014  -22.2762  -46.7892 O.2       10 UNK        -0.5000 
     22 CA         -0.9214  -22.8822  -45.1920 C.3       10 UNK         0.1400 
     23 CB          0.1664  -23.7981  -45.7718 C.3       10 UNK        -0.1800 
     24 N          -0.3695  -22.1024  -44.0837 N.am      10 UNK        -0.5000 
     25 C          -1.0984  -21.3216  -43.2726 C.2       9 UNK         0.5000 
     26 O          -2.3267  -21.2673  -43.3098 O.2       9 UNK        -0.5000 
     27 CA         -0.3275  -20.4085  -42.2967 C.3       9 UNK         0.1400 
     28 CB         -0.2085  -21.0706  -40.9166 C.3       9 UNK        -0.1800 
     29 N           1.0100  -20.0399  -42.7710 N.am      9 UNK        -0.5000 
     30 C           1.2712  -19.3558  -43.8941 C.2       8 UNK         0.5000 
     31 O           0.3955  -18.9263  -44.6485 O.2       8 UNK        -0.5000 
     32 CA          2.7609  -19.1572  -44.2087 C.3       8 UNK         0.1400 
     33 CB          3.0319  -18.3522  -45.4878 C.3       8 UNK        -0.1800 
     34 N           3.4067  -18.4929  -43.0833 N.am      8 UNK        -0.5000 
     35 C           4.5897  -18.8349  -42.5585 C.2       7 UNK         0.5000 
     36 O           5.2460  -19.8076  -42.9350 O.2       7 UNK        -0.5000 
     37 CA          5.1172  -17.9428  -41.4157 C.3       7 UNK         0.1400 
     38 CB          6.6462  -18.0340  -41.2266 C.3       7 UNK        -0.1800 
     39 N           4.6769  -16.5486  -41.5327 N.am      7 UNK        -0.5000 
     40 C           4.9908  -15.6611  -42.4922 C.2       6 UNK         0.5000 
     41 O           5.7694  -15.9009  -43.4155 O.2       6 UNK        -0.5000 
     42 CA          4.3142  -14.2739  -42.4236 C.3       6 UNK         0.1400 
     43 CB          3.6344  -13.9170  -43.7582 C.3       6 UNK        -0.1800 
     44 N           3.3211  -14.1924  -41.3498 N.am      6 UNK        -0.5000 
     45 C           3.5822  -13.8349  -40.0836 C.2       5 UNK         0.5000 
     46 O           4.6836  -13.4409  -39.7001 O.2       5 UNK        -0.5000 
     47 CA          2.4321  -13.9716  -39.0635 C.3       5 UNK         0.1400 
     48 CB          1.7550  -12.6115  -38.8359 C.3       5 UNK        -0.1800 
     49 N           1.4121  -14.9478  -39.4569 N.am      5 UNK        -0.5000 
     50 C           1.6016  -16.2712  -39.5721 C.2       4 UNK         0.5000 
     51 O           2.6616  -16.8343  -39.3028 O.2       4 UNK        -0.5000 
     52 CA          0.4350  -17.0865  -40.1654 C.3       4 UNK         0.1400 
     53 CB         -0.4697  -17.6401  -39.0559 C.3       4 UNK        -0.1800 
     54 N          -0.3699  -16.3000  -41.1049 N.am      4 UNK        -0.5000 
     55 C           0.0828  -15.8547  -42.2836 C.2       3 UNK         0.5000 
     56 O           1.1959  -16.1346  -42.7348 O.2       3 UNK        -0.5000 
     57 CA         -0.8209  -14.8694  -43.0314 C.3       3 UNK         0.1400 
     58 CB         -0.3594  -13.4218  -42.7886 C.3       3 UNK        -0.1800 
     59 N          -0.7871  -15.1661  -44.4560 N.am      3 UNK        -0.5000 
     60 C          -1.7814  -14.9193  -45.3140 C.2       2 UNK         0.5000 
     61 O          -2.8296  -14.3550  -44.9963 O.2       2 UNK        -0.5000 
     62 CA         -1.5647  -15.3847  -46.7671 C.3       2 UNK         0.1400 
     63 CB         -2.8282  -15.2596  -47.6383 C.3       2 UNK        -0.1800 
     64 N          -0.4813  -14.6684  -47.4330 N.am      2 UNK        -0.5000 
     65 C           0.8269  -14.8836  -47.2485 C.2       1 UNK         0.5000 
     66 O           1.2785  -15.6457  -46.3994 O.2       1 UNK        -0.5000 
     67 C          -2.4978  -19.0867  -47.0254 C.2       11 UNK         0.5000 
     68 O          -3.4128  -18.7648  -47.7843 O.2       11 UNK        -0.5000 
     69 N          -2.4894  -18.8253  -45.7080 N.am      12 UNK        -0.5000 
     70 CA         -3.6020  -18.2197  -44.9694 C.3       12 UNK         0.1400 
     71 CB         -3.1768  -17.9404  -43.5199 C.3       12 UNK        -0.1800 
     72 C          -4.8819  -19.0769  -45.0140 C.2       12 UNK         0.5000 
     73 O          -5.9792  -18.5251  -45.1032 O.2       12 UNK        -0.5000 
     74 N          -4.7212  -20.4074  -45.0241 N.am      13 UNK        -0.5000 
     75 CA         -5.7761  -21.3994  -45.2362 C.3       13 UNK         0.1400 
     76 CB         -5.3258  -22.7447  -44.6388 C.3       13 UNK        -0.1800 
     77 C          -6.1792  -21.5075  -46.7251 C.2       13 UNK         0.5000 
     78 O          -6.1234  -22.5909  -47.3109 O.2       13 UNK        -0.5000 
     79 N          -6.5820  -20.3682  -47.3059 N.am      14 UNK        -0.5000 
     80 CA         -7.1197  -20.1856  -48.6573 C.3       14 UNK         0.1400 
     81 CB         -8.5436  -20.7750  -48.7366 C.3       14 UNK        -0.1800 
     82 C          -6.1928  -20.7229  -49.7665 C.2       14 UNK         0.5000 
     83 O          -6.6381  -21.4957  -50.6165 O.2       14 UNK        -0.5000 
     84 N          -4.9114  -20.3268  -49.7236 N.am      15 UNK        -0.5000 
     85 CA         -3.8514  -20.7327  -50.6555 C.3       15 UNK         0.1400 
     86 CB         -4.1136  -20.1531  -52.0618 C.3       15 UNK        -0.1800 
     87 C          -3.6249  -22.2604  -50.6570 C.2       15 UNK         0.5000 
     88 O          -3.5192  -22.8700  -51.7231 O.2       15 UNK        -0.5000 
     89 N          -3.5941  -22.8460  -49.4503 N.am      16 UNK        -0.5000 
     90 CA         -3.5192  -24.2792  -49.1534 C.3       16 UNK         0.1400 
     91 CB         -2.1575  -24.8564  -49.5949 C.3       16 UNK        -0.1800 
     92 C          -4.7274  -25.0460  -49.7239 C.2       16 UNK         0.5000 
     93 O          -4.5537  -26.0742  -50.3760 O.2       16 UNK        -0.5000 
     94 N          -5.9333  -24.4969  -49.5124 N.am      17 UNK        -0.5000 
     95 CA         -7.2060  -24.9204  -50.1118 C.3       17 UNK         0.1400 
     96 CB         -7.6747  -26.2585  -49.5046 C.3       17 UNK        -0.1800 
     97 C          -7.1358  -24.9418  -51.6563 C.2       17 UNK         0.5000 
     98 O          -7.5303  -25.9207  -52.2919 O.2       17 UNK        -0.5000 
     99 N          -6.5751  -23.8591  -52.2108 N.am      18 UNK        -0.5000 
    100 CA        -6.2550  -23.5964  -53.6160 C.3       18 UNK         0.1400 
    101 CB        -7.5267  -23.6159  -54.4876 C.3       18 UNK        -0.1800 
    102 C         -5.1299  -24.4679  -54.2180 C.2       18 UNK         0.5000 
    103 O         -4.8170  -24.2873  -55.3964 O.2       18 UNK        -0.5000 
    104 N         -4.5025  -25.3612  -53.4358 N.am      19 UNK        -0.5000 
    105 CA        -3.4373  -26.2579  -53.9011 C.3       19 UNK         0.1400 
    106 CB        -3.1684  -27.3505  -52.8569 C.3       19 UNK        -0.1800 
    107 C         -2.1265  -25.5381  -54.2721 C.2       19 UNK         0.5000 
    108 O         -1.3438  -26.0895  -55.0471 O.2       19 UNK        -0.5000 
    109 N         -1.9134  -24.3192  -53.7524 N.am      20 UNK        -0.5000 
    110 CA        -0.7937  -23.4531  -54.1339 C.3       20 UNK         0.1400 
    111 CB        -0.5961  -22.3720  -53.0601 C.3       20 UNK        -0.1800 
    112 C         -0.9689  -22.8115  -55.5283 C.2       20 UNK         0.5000 
    113 O         -0.0049  -22.2506  -56.0498 O.2       20 UNK        -0.5000 
    114 N         -2.1824  -22.8977  -56.1004 N.am      21 UNK        -0.5000 
    115 CA        -2.5874  -22.4025  -57.4221 C.3       21 UNK         0.1400 
    116 CB        -1.8408  -23.1566  -58.5425 C.3       21 UNK        -0.1800 
    117 C         -2.5015  -20.8673  -57.5666 C.2       21 UNK         0.5000 
    118 O         -2.3035  -20.3605  -58.6726 O.2       21 UNK        -0.5000 
    119 N         -2.6606  -20.1542  -56.4451 N.am      22 UNK        -0.5000 
    120 CA        -2.7190  -18.6892  -56.3784 C.3       22 UNK         0.1400 
    121 C         -4.0320  -18.1360  -57.0034 C.2       22 UNK         0.5000 
    122 N         -3.9566  -17.0797  -57.8012 N.am      22 UNK        -0.7600 
    123 O         -5.1221  -18.6423  -56.7457 O.2       22 UNK        -0.5000 
    124 C124       -2.5279  -18.2092  -54.9184 C.3       23 UNK        -0.0398 
    125 S125       -2.0202  -16.4619  -54.8100 S.3       23 UNK        -0.2404 
    126 C126       -1.8854  -16.2521  -53.0085 C.3       23 UNK        -0.0205 
    127 H127        1.6031  -10.8188  -45.8995 H         1 UNK         0.0600 
    128 H128        2.4556  -12.3293  -46.1693 H         1 UNK         0.0600 
    129 H129        0.7367  -12.3429  -45.7357 H         1 UNK         0.0600 
    130 H130        1.0510  -12.7224  -49.5638 H         1 UNK         0.3000 
    131 H131        2.7444  -14.0200  -47.7014 H         1 UNK         0.0600 
    132 H132        2.5271  -15.9801  -49.1228 H         1 UNK         0.0800 
    133 H133        1.0382  -15.3867  -49.8184 H         1 UNK         0.0800 
    134 H134        3.9114  -16.3392  -51.7317 H         1 UNK         0.0800 
    135 H135        3.2345  -15.3468  -52.9972 H         1 UNK         0.0800 
    136 H136        0.5841  -15.1149  -53.0117 H         1 UNK         0.1150 
    137 H137       -1.4915  -18.6518  -51.7625 H         1 UNK         0.1150 
    138 H138        2.7025  -18.2417  -50.9840 H         1 UNK         0.1150 
    139 H139       -0.3555  -20.4316  -50.6647 H         1 UNK         0.0800 
    140 H140        1.3061  -20.6161  -51.1646 H         1 UNK         0.0800 
    141 H141       -0.5927  -18.2206  -48.8087 H         1 UNK         0.0800 
    142 H142        0.2246  -18.3591  -47.2768 H         1 UNK         0.0800 
    143 H143       -1.6767  -20.4407  -48.4455 H         1 UNK         0.0600 
    144 H144        0.0261  -20.6614  -46.1319 H         1 UNK         0.3000 
    145 H145       -1.7256  -23.5092  -44.8006 H         1 UNK         0.0600 
    146 H146        1.0104  -23.2280  -46.1622 H         1 UNK         0.0600 
    147 H147        0.5460  -24.4864  -45.0164 H         1 UNK         0.0600 
    148 H148       -0.2288  -24.4013  -46.5905 H         1 UNK         0.0600 
    149 H149        0.6337  -22.1046  -43.9764 H         1 UNK         0.3000 
    150 H150       -0.9010  -19.4867  -42.1844 H         1 UNK         0.0600 
    151 H151       -1.1932  -21.3136  -40.5150 H         1 UNK         0.0600 
    152 H152        0.2787  -20.4101  -40.1995 H         1 UNK         0.0600 
    153 H153        0.3652  -21.9970  -40.9628 H         1 UNK         0.0600 
    154 H154        1.7892  -20.3520  -42.2095 H         1 UNK         0.3000 
    155 H155        3.1716  -20.1586  -44.3515 H         1 UNK         0.0600 
    156 H156        2.4655  -18.7355  -46.3360 H         1 UNK         0.0600 
    157 H157        4.0874  -18.3914  -45.7567 H         1 UNK         0.0600 
    158 H158        2.7698  -17.3059  -45.3473 H         1 UNK         0.0600 
    159 H159        2.9191  -17.6808  -42.7232 H         1 UNK         0.3000 
    160 H160        4.6567  -18.3268  -40.5047 H         1 UNK         0.0600 
    161 H161        6.9824  -17.3870  -40.4164 H         1 UNK         0.0600 
    162 H162        7.1865  -17.7503  -42.1300 H         1 UNK         0.0600 
    163 H163        6.9480  -19.0510  -40.9739 H         1 UNK         0.0600 
    164 H164        4.0233  -16.2576  -40.8159 H         1 UNK         0.3000 
    165 H165        5.1025  -13.5400  -42.2450 H         1 UNK         0.0600 
    166 H166        2.8851  -14.6545  -44.0461 H         1 UNK         0.0600 
    167 H167        3.1458  -12.9442  -43.7043 H         1 UNK         0.0600 
    168 H168        4.3637  -13.8661  -44.5674 H         1 UNK         0.0600 
    169 H169        2.4010  -14.5424  -41.5783 H         1 UNK         0.3000 
    170 H170        2.8684  -14.3021  -38.1185 H         1 UNK         0.0600 
    171 H171        1.2858  -12.2377  -39.7468 H         1 UNK         0.0600 
    172 H172        0.9881  -12.6762  -38.0638 H         1 UNK         0.0600 
    173 H173        2.4795  -11.8641  -38.5096 H         1 UNK         0.0600 
    174 H174        0.5041  -14.5758  -39.6913 H         1 UNK         0.3000 
    175 H175        0.8664  -17.9300  -40.7080 H         1 UNK         0.0600 
    176 H176       -0.9411  -16.8410  -38.4825 H         1 UNK         0.0600 
    177 H177       -1.2589  -18.2690  -39.4686 H         1 UNK         0.0600 
    178 H178        0.1011  -18.2535  -38.3575 H         1 UNK         0.0600 
    179 H179       -1.2914  -16.0293  -40.7917 H         1 UNK         0.3000 
    180 H180       -1.8418  -14.9873  -42.6613 H         1 UNK         0.0600 
    181 H181        0.6512  -13.2547  -43.1627 H         1 UNK         0.0600 
    182 H182       -0.3626  -13.1796  -41.7254 H         1 UNK         0.0600 
    183 H183       -1.0187  -12.7091  -43.2843 H         1 UNK         0.0600 
    184 H184        0.0611  -15.6170  -44.7926 H         1 UNK         0.3000 
    185 H185       -1.2971  -16.4403  -46.7214 H         1 UNK         0.0600 
    186 H186       -2.6666  -15.6892  -48.6274 H         1 UNK         0.0600 
    187 H187       -3.6727  -15.7881  -47.1968 H         1 UNK         0.0600 
    188 H188       -3.1263  -14.2187  -47.7686 H         1 UNK         0.0600 
    189 H189       -0.7571  -13.9871  -48.1255 H         1 UNK         0.3000 
    190 H190       -1.6713  -19.0925  -45.1723 H         1 UNK         0.3000 
    191 H191       -3.8287  -17.2644  -45.4427 H         1 UNK         0.0600 
    192 H192       -3.1613  -18.8468  -42.9164 H         1 UNK         0.0600 
    193 H193       -2.1854  -17.4932  -43.4737 H         1 UNK         0.0600 
    194 H194       -3.8720  -17.2489  -43.0429 H         1 UNK         0.0600 
    195 H195       -3.7832  -20.7748  -44.9225 H         1 UNK         0.3000 
    196 H196       -6.6653  -21.0814  -44.6883 H         1 UNK         0.0600 
    197 H197       -5.0764  -22.6427  -43.5825 H         1 UNK         0.0600 
    198 H198       -4.4501  -23.1437  -45.1500 H         1 UNK         0.0600 
    199 H199       -6.1176  -23.4906  -44.7156 H         1 UNK         0.0600 
    200 H200       -6.5476  -19.5325  -46.7302 H         1 UNK         0.3000 
    201 H201       -7.1968  -19.1095  -48.8184 H         1 UNK         0.0600 
    202 H202       -9.0001  -20.5693  -49.7056 H         1 UNK         0.0600 
    203 H203       -9.1923  -20.3417  -47.9755 H         1 UNK         0.0600 
    204 H204       -8.5417  -21.8568  -48.5982 H         1 UNK         0.0600 
    205 H205       -4.6163  -19.7106  -48.9701 H         1 UNK         0.3000 
    206 H206       -2.9280  -20.2826  -50.2956 H         1 UNK         0.0600 
    207 H207       -5.0068  -20.5771  -52.5198 H         1 UNK         0.0600 
    208 H208       -3.2798  -20.3533  -52.7327 H         1 UNK         0.0600 
    209 H209       -4.2425  -19.0716  -52.0202 H         1 UNK         0.0600 
    210 H210       -3.6815  -22.2650  -48.6246 H         1 UNK         0.3000 
    211 H211       -3.5855  -24.3788  -48.0694 H         1 UNK         0.0600 
    212 H212       -1.3335  -24.3002  -49.1479 H         1 UNK         0.0600 
    213 H213       -2.0552  -25.8961  -49.2825 H         1 UNK         0.0600 
    214 H214       -2.0327  -24.8273  -50.6775 H         1 UNK         0.0600 
    215 H215       -5.9794  -23.6691  -48.9229 H         1 UNK         0.3000 
    216 H216       -7.9403  -24.1586  -49.8462 H         1 UNK         0.0600 
    217 H217       -8.6680  -26.5244  -49.8676 H         1 UNK         0.0600 
    218 H218       -7.0027  -27.0783  -49.7602 H         1 UNK         0.0600 
    219 H219       -7.7316  -26.1980  -48.4178 H         1 UNK         0.0600 
    220 H220       -6.3330  -23.0983  -51.5794 H         1 UNK         0.3000 
    221 H221       -5.8688  -22.5769  -53.6324 H         1 UNK         0.0600 
    222 H222       -7.9407  -24.6200  -54.5808 H         1 UNK         0.0600 
    223 H223       -8.2997  -22.9696  -54.0717 H         1 UNK         0.0600 
    224 H224       -7.3155  -23.2579  -55.4959 H         1 UNK         0.0600 
    225 H225       -4.7675  -25.4389  -52.4609 H         1 UNK         0.3000 
    226 H226       -3.8012  -26.7494  -54.8058 H         1 UNK         0.0600 
    227 H227       -4.0893  -27.8507  -52.5567 H         1 UNK         0.0600 
    228 H228       -2.4995  -28.1130  -53.2575 H         1 UNK         0.0600 
    229 H229       -2.6948  -26.9441  -51.9632 H         1 UNK         0.0600 
    230 H230       -2.5912  -23.9307  -53.1009 H         1 UNK         0.3000 
    231 H231        0.1138  -24.0595  -54.1669 H         1 UNK         0.0600 
    232 H232        0.2978  -21.7811  -53.2630 H         1 UNK         0.0600 
    233 H233       -0.4787  -22.8125  -52.0697 H         1 UNK         0.0600 
    234 H234       -1.4383  -21.6834  -53.0254 H         1 UNK         0.0600 
    235 H235       -2.9097  -23.3918  -55.5954 H         1 UNK         0.3000 
    236 H236       -3.6460  -22.6479  -57.5177 H         1 UNK         0.0600 
    237 H237       -1.9301  -24.2358  -58.4175 H         1 UNK         0.0600 
    238 H238       -2.2518  -22.9102  -59.5221 H         1 UNK         0.0600 
    239 H239       -0.7795  -22.9074  -58.5620 H         1 UNK         0.0600 
    240 H240       -2.8500  -20.6540  -55.5904 H         1 UNK         0.3000 
    241 H241       -1.8766  -18.3178  -56.9660 H         1 UNK         0.0600 
    242 H242       -4.8023  -16.7060  -58.2033 H         1 UNK         0.3800 
    243 H243       -3.0735  -16.6387  -58.0078 H         1 UNK         0.3800 
    244 H244       -3.4374  -18.3599  -54.3349 H         1 UNK         0.0800 
    245 H245       -1.7490  -18.8006  -54.4350 H         1 UNK         0.0800 
    246 H246       -2.7495  -16.7011  -52.5161 H         1 UNK         0.0800 
    247 H247       -1.9270  -15.1867  -52.7769 H         1 UNK         0.0800 
@<TRIPOS>BOND
     1    1    2 1    
     2    1  127 1    
     3    1  128 1    
     4    1  129 1    
     5    2    3 2    
     6    2    4 am   BACKBONE|DICT|INTERRES
     7    4    5 1    
     8    4  130 1    
     9    5    6 1    
    10    5   65 1    
    11    5  131 1    
    12    6    7 1    
    13    6  132 1    
    14    6  133 1    
    15    7    8 1    
    16    8    9 1    
    17    8  134 1    
    18    8  135 1    
    19    9   10 ar   
    20    9   14 ar   
    21   10   11 ar   
    22   10  136 1    
    23   11   12 ar   
    24   11  126 1    
    25   12   13 ar   
    26   12  137 1    
    27   13   14 ar   
    28   13   15 1    
    29   14  138 1    
    30   15   16 1    
    31   15  139 1    
    32   15  140 1    
    33   16   17 1    
    34   17   18 1    
    35   17  141 1    
    36   17  142 1    
    37   18   19 1    
    38   18   67 1    
    39   18  143 1    
    40   19   20 am   BACKBONE|DICT|INTERRES
    41   19  144 1    
    42   20   21 2    
    43   20   22 1    
    44   22   23 1    
    45   22   24 1    
    46   22  145 1    
    47   23  146 1    
    48   23  147 1    
    49   23  148 1    
    50   24   25 am   BACKBONE|DICT|INTERRES
    51   24  149 1    
    52   25   26 2    
    53   25   27 1    
    54   27   28 1    
    55   27   29 1    
    56   27  150 1    
    57   28  151 1    
    58   28  152 1    
    59   28  153 1    
    60   29   30 am   BACKBONE|DICT|INTERRES
    61   29  154 1    
    62   30   31 2    
    63   30   32 1    
    64   32   33 1    
    65   32   34 1    
    66   32  155 1    
    67   33  156 1    
    68   33  157 1    
    69   33  158 1    
    70   34   35 am   BACKBONE|DICT|INTERRES
    71   34  159 1    
    72   35   36 2    
    73   35   37 1    
    74   37   38 1    
    75   37   39 1    
    76   37  160 1    
    77   38  161 1    
    78   38  162 1    
    79   38  163 1    
    80   39   40 am   BACKBONE|DICT|INTERRES
    81   39  164 1    
    82   40   41 2    
    83   40   42 1    
    84   42   43 1    
    85   42   44 1    
    86   42  165 1    
    87   43  166 1    
    88   43  167 1    
    89   43  168 1    
    90   44   45 am   BACKBONE|DICT|INTERRES
    91   44  169 1    
    92   45   46 2    
    93   45   47 1    
    94   47   48 1    
    95   47   49 1    
    96   47  170 1    
    97   48  171 1    
    98   48  172 1    
    99   48  173 1    
   100   49   50 am   BACKBONE|DICT|INTERRES
   101   49  174 1    
   102   50   51 2    
   103   50   52 1    
   104   52   53 1    
   105   52   54 1    
   106   52  175 1    
   107   53  176 1    
   108   53  177 1    
   109   53  178 1    
   110   54   55 am   BACKBONE|DICT|INTERRES
   111   54  179 1    
   112   55   56 2    
   113   55   57 1    
   114   57   58 1    
   115   57   59 1    
   116   57  180 1    
   117   58  181 1    
   118   58  182 1    
   119   58  183 1    
   120   59   60 am   BACKBONE|DICT|INTERRES
   121   59  184 1    
   122   60   61 2    
   123   60   62 1    
   124   62   63 1    
   125   62   64 1    
   126   62  185 1    
   127   63  186 1    
   128   63  187 1    
   129   63  188 1    
   130   64   65 am   BACKBONE|DICT|INTERRES
   131   64  189 1    
   132   65   66 2    
   133   67   68 2    
   134   67   69 am   BACKBONE|DICT|INTERRES
   135   69   70 1    
   136   69  190 1    
   137   70   71 1    
   138   70   72 1    
   139   70  191 1    
   140   71  192 1    
   141   71  193 1    
   142   71  194 1    
   143   72   73 2    
   144   72   74 am   BACKBONE|DICT|INTERRES
   145   74   75 1    
   146   74  195 1    
   147   75   76 1    
   148   75   77 1    
   149   75  196 1    
   150   76  197 1    
   151   76  198 1    
   152   76  199 1    
   153   77   78 2    
   154   77   79 am   BACKBONE|DICT|INTERRES
   155   79   80 1    
   156   79  200 1    
   157   80   81 1    
   158   80   82 1    
   159   80  201 1    
   160   81  202 1    
   161   81  203 1    
   162   81  204 1    
   163   82   83 2    
   164   82   84 am   BACKBONE|DICT|INTERRES
   165   84   85 1    
   166   84  205 1    
   167   85   86 1    
   168   85   87 1    
   169   85  206 1    
   170   86  207 1    
   171   86  208 1    
   172   86  209 1    
   173   87   88 2    
   174   87   89 am   BACKBONE|DICT|INTERRES
   175   89   90 1    
   176   89  210 1    
   177   90   91 1    
   178   90   92 1    
   179   90  211 1    
   180   91  212 1    
   181   91  213 1    
   182   91  214 1    
   183   92   93 2    
   184   92   94 am   BACKBONE|DICT|INTERRES
   185   94   95 1    
   186   94  215 1    
   187   95   96 1    
   188   95   97 1    
   189   95  216 1    
   190   96  217 1    
   191   96  218 1    
   192   96  219 1    
   193   97   98 2    
   194   97   99 am   BACKBONE|DICT|INTERRES
   195   99  100 1    
   196   99  220 1    
   197  100  101 1    
   198  100  102 1    
   199  100  221 1    
   200  101  222 1    
   201  101  223 1    
   202  101  224 1    
   203  102  103 2    
   204  102  104 am   BACKBONE|DICT|INTERRES
   205  104  105 1    
   206  104  225 1    
   207  105  106 1    
   208  105  107 1    
   209  105  226 1    
   210  106  227 1    
   211  106  228 1    
   212  106  229 1    
   213  107  108 2    
   214  107  109 am   BACKBONE|DICT|INTERRES
   215  109  110 1    
   216  109  230 1    
   217  110  111 1    
   218  110  112 1    
   219  110  231 1    
   220  111  232 1    
   221  111  233 1    
   222  111  234 1    
   223  112  113 2    
   224  112  114 am   BACKBONE|DICT|INTERRES
   225  114  115 1    
   226  114  235 1    
   227  115  116 1    
   228  115  117 1    
   229  115  236 1    
   230  116  237 1    
   231  116  238 1    
   232  116  239 1    
   233  117  118 2    
   234  117  119 am   BACKBONE|DICT|INTERRES
   235  119  120 1    
   236  119  240 1    
   237  120  121 1    
   238  120  124 1    
   239  120  241 1    
   240  121  122 am   BACKBONE|DICT|INTERRES
   241  121  123 2    
   242  122  242 1    
   243  122  243 1    
   244  124  125 1    
   245  124  244 1    
   246  124  245 1    
   247  125  126 1    
   248  126  246 1    
   249  126  247 1    
@<TRIPOS>SUBSTRUCTURE
     1 UNK         1 GROUP             0       ****    0 ROOT    
