@<TRIPOS>MOLECULE
3R540
247   249    1
SMALL
USER_CHARGES


@<TRIPOS>ATOM
      1 CA          1.5114  -10.4719  -48.7556 C.3       0 UNK        -0.1800 
      2 C           1.9327  -11.9038  -49.0561 C.2       0 UNK         0.5000 
      3 O           1.2060  -12.8323  -48.7103 O.2       0 UNK        -0.5000 
      4 N           3.0946  -12.0709  -49.7042 N.am      1 UNK        -0.5000 
      5 CA          3.7731  -13.3372  -50.0190 C.3       1 UNK         0.1400 
      6 C6          2.8638  -14.3813  -50.7356 C.3       23 UNK        -0.0398 
      7 S7          3.6639  -15.2026  -52.1516 S.3       23 UNK        -0.2404 
      8 C8          4.1158  -16.8321  -51.4605 C.3       23 UNK        -0.0205 
      9 C9          2.9581  -17.7468  -51.0556 C.ar      23 UNK        -0.0193 
     10 C10         1.6935  -17.6954  -51.6582 C.ar      23 UNK        -0.1150 
     11 C11         0.6879  -18.6023  -51.2970 C.ar      23 UNK        -0.0193 
     12 C12         0.9613  -19.5742  -50.3265 C.ar      23 UNK        -0.1150 
     13 C13         2.2142  -19.6310  -49.7120 C.ar      23 UNK        -0.0193 
     14 C14         3.2018  -18.7189  -50.0833 C.ar      23 UNK        -0.1150 
     15 C15         2.5309  -20.7020  -48.6813 C.3       23 UNK        -0.0205 
     16 S16         2.4457  -20.0754  -46.9746 S.3       23 UNK        -0.2404 
     17 C17         0.6533  -19.9070  -46.6937 C.3       23 UNK        -0.0398 
     18 CA         -0.0142  -21.2617  -46.3365 C.3       11 UNK         0.1400 
     19 N          -0.8326  -21.1957  -45.1248 N.am      11 UNK        -0.5000 
     20 C          -1.3505  -22.2669  -44.5057 C.2       10 UNK         0.5000 
     21 O          -1.1493  -23.4291  -44.8587 O.2       10 UNK        -0.5000 
     22 CA         -2.3015  -21.9885  -43.3310 C.3       10 UNK         0.1400 
     23 CB         -1.5132  -21.6725  -42.0521 C.3       10 UNK        -0.1800 
     24 N          -3.2226  -20.8934  -43.6348 N.am      10 UNK        -0.5000 
     25 C          -4.1924  -20.9653  -44.5582 C.2       9 UNK         0.5000 
     26 O          -4.4471  -21.9817  -45.2044 O.2       9 UNK        -0.5000 
     27 CA         -4.9851  -19.6752  -44.8341 C.3       9 UNK         0.1400 
     28 CB         -6.1897  -19.5665  -43.8880 C.3       9 UNK        -0.1800 
     29 N          -4.1733  -18.4615  -44.7272 N.am      9 UNK        -0.5000 
     30 C          -3.1504  -18.1628  -45.5402 C.2       8 UNK         0.5000 
     31 O          -2.7230  -18.9136  -46.4170 O.2       8 UNK        -0.5000 
     32 CA         -2.4527  -16.8176  -45.2883 C.3       8 UNK         0.1400 
     33 CB         -3.3700  -15.6411  -45.6598 C.3       8 UNK        -0.1800 
     34 N          -1.9755  -16.6434  -43.9126 N.am      8 UNK        -0.5000 
     35 C          -1.1603  -17.4722  -43.2476 C.2       7 UNK         0.5000 
     36 O          -0.7501  -18.5426  -43.6998 O.2       7 UNK        -0.5000 
     37 CA         -0.7190  -16.9994  -41.8544 C.3       7 UNK         0.1400 
     38 CB         -0.2471  -18.1545  -40.9515 C.3       7 UNK        -0.1800 
     39 N           0.3510  -16.0098  -41.9787 N.am      7 UNK        -0.5000 
     40 C           0.5352  -14.9894  -41.1287 C.2       6 UNK         0.5000 
     41 O          -0.2265  -14.7365  -40.1942 O.2       6 UNK        -0.5000 
     42 CA          1.7737  -14.1012  -41.3397 C.3       6 UNK         0.1400 
     43 CB          3.0311  -14.7790  -40.7713 C.3       6 UNK        -0.1800 
     44 N           1.9842  -13.7906  -42.7520 N.am      6 UNK        -0.5000 
     45 C           1.5652  -12.6683  -43.3562 C.2       5 UNK         0.5000 
     46 O           0.9961  -11.7481  -42.7673 O.2       5 UNK        -0.5000 
     47 CA          1.8189  -12.5410  -44.8748 C.3       5 UNK         0.1400 
     48 CB          3.0918  -11.7217  -45.1369 C.3       5 UNK        -0.1800 
     49 N           1.9293  -13.8301  -45.5585 N.am      5 UNK        -0.5000 
     50 C           0.9410  -14.7317  -45.6366 C.2       4 UNK         0.5000 
     51 O          -0.1975  -14.5137  -45.2289 O.2       4 UNK        -0.5000 
     52 CA          1.2939  -16.1309  -46.1808 C.3       4 UNK         0.1400 
     53 CB          0.9179  -16.2546  -47.6602 C.3       4 UNK        -0.1800 
     54 N           2.7024  -16.4856  -45.9976 N.am      4 UNK        -0.5000 
     55 C           3.3043  -16.6454  -44.8132 C.2       3 UNK         0.5000 
     56 O           2.7059  -16.5289  -43.7422 O.2       3 UNK        -0.5000 
     57 CA          4.8264  -16.9084  -44.7994 C.3       3 UNK         0.1400 
     58 CB          5.1427  -18.4149  -44.8276 C.3       3 UNK        -0.1800 
     59 N           5.5928  -16.1707  -45.8172 N.am      3 UNK        -0.5000 
     60 C           5.5598  -16.3041  -47.1505 C.2       2 UNK         0.5000 
     61 O           4.8768  -17.1371  -47.7457 O.2       2 UNK        -0.5000 
     62 CA          6.3933  -15.2971  -47.9656 C.3       2 UNK         0.1400 
     63 CB          7.5908  -15.9958  -48.6270 C.3       2 UNK        -0.1800 
     64 N           5.5940  -14.6331  -49.0001 N.am      2 UNK        -0.5000 
     65 C           4.4806  -13.9225  -48.7735 C.2       1 UNK         0.5000 
     66 O           4.0342  -13.7207  -47.6413 O.2       1 UNK        -0.5000 
     67 C          -0.8150  -21.8269  -47.5247 C.2       11 UNK         0.5000 
     68 O          -0.3195  -22.7136  -48.2165 O.2       11 UNK        -0.5000 
     69 N          -2.0524  -21.3468  -47.7119 N.am      12 UNK        -0.5000 
     70 CA         -2.9704  -21.8144  -48.7505 C.3       12 UNK         0.1400 
     71 CB         -4.2487  -20.9669  -48.7405 C.3       12 UNK        -0.1800 
     72 C          -3.3125  -23.3074  -48.6240 C.2       12 UNK         0.5000 
     73 O          -3.3663  -23.9987  -49.6413 O.2       12 UNK        -0.5000 
     74 N          -3.5057  -23.7855  -47.3879 N.am      13 UNK        -0.5000 
     75 CA         -3.7042  -25.1993  -47.0766 C.3       13 UNK         0.1400 
     76 CB         -4.1576  -25.3490  -45.6166 C.3       13 UNK        -0.1800 
     77 C          -2.4456  -26.0417  -47.3555 C.2       13 UNK         0.5000 
     78 O          -2.5537  -27.0947  -47.9837 O.2       13 UNK        -0.5000 
     79 N          -1.2769  -25.5532  -46.9142 N.am      14 UNK        -0.5000 
     80 CA          0.0240  -26.2037  -47.0966 C.3       14 UNK         0.1400 
     81 CB          1.0862  -25.4671  -46.2663 C.3       14 UNK        -0.1800 
     82 C           0.4587  -26.2985  -48.5713 C.2       14 UNK         0.5000 
     83 O           0.9696  -27.3377  -48.9903 O.2       14 UNK        -0.5000 
     84 N           0.2278  -25.2229  -49.3347 N.am      15 UNK        -0.5000 
     85 CA          0.5073  -25.1324  -50.7691 C.3       15 UNK         0.1400 
     86 CB          0.5462  -23.6479  -51.1708 C.3       15 UNK        -0.1800 
     87 C          -0.5142  -25.8870  -51.6427 C.2       15 UNK         0.5000 
     88 O          -0.2567  -26.0773  -52.8318 O.2       15 UNK        -0.5000 
     89 N          -1.6598  -26.2645  -51.0537 N.am      16 UNK        -0.5000 
     90 CA         -2.8472  -26.8419  -51.6950 C.3       16 UNK         0.1400 
     91 CB         -2.5400  -28.2234  -52.3090 C.3       16 UNK        -0.1800 
     92 C          -3.5220  -25.8695  -52.6884 C.2       16 UNK         0.5000 
     93 O          -4.1782  -26.3026  -53.6370 O.2       16 UNK        -0.5000 
     94 N          -3.3593  -24.5650  -52.4331 N.am      17 UNK        -0.5000 
     95 CA         -4.0100  -23.4689  -53.1466 C.3       17 UNK         0.1400 
     96 CB         -3.1622  -22.1991  -52.9733 C.3       17 UNK        -0.1800 
     97 C          -5.4497  -23.2541  -52.6399 C.2       17 UNK         0.5000 
     98 O          -6.3035  -22.8216  -53.4148 O.2       17 UNK        -0.5000 
     99 N          -5.6859  -23.5952  -51.3613 N.am      18 UNK        -0.5000 
    100 CA        -6.9686  -23.6951  -50.6605 C.3       18 UNK         0.1400 
    101 CB        -7.6637  -25.0160  -51.0544 C.3       18 UNK        -0.1800 
    102 C         -7.8629  -22.4513  -50.8363 C.2       18 UNK         0.5000 
    103 O         -7.6153  -21.4327  -50.1897 O.2       18 UNK        -0.5000 
    104 N         -8.8620  -22.5484  -51.7253 N.am      19 UNK        -0.5000 
    105 CA        -9.8393  -21.5104  -52.0652 C.3       19 UNK         0.1400 
    106 CB       -10.8546  -22.0981  -53.0576 C.3       19 UNK        -0.1800 
    107 C         -9.2369  -20.2032  -52.6208 C.2       19 UNK         0.5000 
    108 O         -9.9159  -19.1759  -52.5959 O.2       19 UNK        -0.5000 
    109 N         -7.9776  -20.2449  -53.0820 N.am      20 UNK        -0.5000 
    110 CA        -7.1900  -19.0680  -53.4577 C.3       20 UNK         0.1400 
    111 CB        -5.8825  -19.5312  -54.1127 C.3       20 UNK        -0.1800 
    112 C         -6.8762  -18.1349  -52.2687 C.2       20 UNK         0.5000 
    113 O         -6.6116  -16.9531  -52.4907 O.2       20 UNK        -0.5000 
    114 N         -6.8967  -18.6785  -51.0410 N.am      21 UNK        -0.5000 
    115 CA        -6.7422  -18.0334  -49.7299 C.3       21 UNK         0.1400 
    116 CB        -7.8605  -17.0014  -49.4923 C.3       21 UNK        -0.1800 
    117 C         -5.3584  -17.4239  -49.4258 C.2       21 UNK         0.5000 
    118 O         -4.9939  -17.3641  -48.2537 O.2       21 UNK        -0.5000 
    119 N         -4.6192  -16.9929  -50.4548 N.am      22 UNK        -0.5000 
    120 CA        -3.2644  -16.4107  -50.3945 C.3       22 UNK         0.1400 
    121 C         -3.1736  -15.0357  -49.6623 C.2       22 UNK         0.5000 
    122 N         -4.2748  -14.3272  -49.4424 N.am      22 UNK        -0.7600 
    123 O         -2.0876  -14.5803  -49.3199 O.2       22 UNK        -0.5000 
    124 C124       -2.1818  -17.4187  -49.9109 C.3       23 UNK        -0.0398 
    125 S125       -2.1019  -18.9152  -50.9535 S.3       23 UNK        -0.2404 
    126 C126       -0.6601  -18.5587  -52.0159 C.3       23 UNK        -0.0205 
    127 H127        1.3715  -10.3411  -47.6825 H         1 UNK         0.0600 
    128 H128        0.5680  -10.2466  -49.2529 H         1 UNK         0.0600 
    129 H129        2.2554   -9.7494  -49.0917 H         1 UNK         0.0600 
    130 H130        3.6278  -11.2456  -49.9396 H         1 UNK         0.3000 
    131 H131        4.5623  -13.0387  -50.7110 H         1 UNK         0.0600 
    132 H132        2.4868  -15.1355  -50.0489 H         1 UNK         0.0800 
    133 H133        1.9761  -13.8957  -51.1424 H         1 UNK         0.0800 
    134 H134        4.7117  -17.3598  -52.2060 H         1 UNK         0.0800 
    135 H135        4.7731  -16.6767  -50.6052 H         1 UNK         0.0800 
    136 H136        1.4955  -16.9654  -52.4297 H         1 UNK         0.1150 
    137 H137        0.2048  -20.2981  -50.0584 H         1 UNK         0.1150 
    138 H138        4.1761  -18.7805  -49.6192 H         1 UNK         0.1150 
    139 H139        1.8761  -21.5627  -48.8010 H         1 UNK         0.0800 
    140 H140        3.5404  -21.0759  -48.8573 H         1 UNK         0.0800 
    141 H141        0.5475  -19.2059  -45.8671 H         1 UNK         0.0800 
    142 H142        0.1838  -19.4099  -47.5446 H         1 UNK         0.0800 
    143 H143        0.7690  -21.9907  -46.1174 H         1 UNK         0.0600 
    144 H144       -1.0304  -20.2708  -44.7565 H         1 UNK         0.3000 
    145 H145       -2.8923  -22.8896  -43.1529 H         1 UNK         0.0600 
    146 H146       -2.1791  -21.4518  -41.2178 H         1 UNK         0.0600 
    147 H147       -0.8951  -22.5223  -41.7599 H         1 UNK         0.0600 
    148 H148       -0.8476  -20.8208  -42.1900 H         1 UNK         0.0600 
    149 H149       -3.0519  -20.0093  -43.1798 H         1 UNK         0.3000 
    150 H150       -5.3610  -19.7319  -45.8578 H         1 UNK         0.0600 
    151 H151       -6.8250  -20.4501  -43.9628 H         1 UNK         0.0600 
    152 H152       -6.8073  -18.7024  -44.1337 H         1 UNK         0.0600 
    153 H153       -5.8780  -19.4730  -42.8470 H         1 UNK         0.0600 
    154 H154       -4.4400  -17.7939  -44.0190 H         1 UNK         0.3000 
    155 H155       -1.5858  -16.7831  -45.9469 H         1 UNK         0.0600 
    156 H156       -2.8519  -14.6873  -45.5639 H         1 UNK         0.0600 
    157 H157       -4.2603  -15.6023  -45.0316 H         1 UNK         0.0600 
    158 H158       -3.7006  -15.7177  -46.6950 H         1 UNK         0.0600 
    159 H159       -2.2172  -15.7658  -43.4758 H         1 UNK         0.3000 
    160 H160       -1.5929  -16.5434  -41.3841 H         1 UNK         0.0600 
    161 H161        0.6196  -18.6672  -41.3709 H         1 UNK         0.0600 
    162 H162       -1.0398  -18.8905  -40.8175 H         1 UNK         0.0600 
    163 H163        0.0268  -17.7945  -39.9597 H         1 UNK         0.0600 
    164 H164        1.0330  -16.1755  -42.7133 H         1 UNK         0.3000 
    165 H165        1.6195  -13.1781  -40.7768 H         1 UNK         0.0600 
    166 H166        3.2442  -15.7270  -41.2653 H         1 UNK         0.0600 
    167 H167        3.9068  -14.1395  -40.8825 H         1 UNK         0.0600 
    168 H168        2.9129  -14.9857  -39.7069 H         1 UNK         0.0600 
    169 H169        2.4002  -14.5232  -43.3139 H         1 UNK         0.3000 
    170 H170        0.9714  -12.0056  -45.3076 H         1 UNK         0.0600 
    171 H171        3.9821  -12.2364  -44.7737 H         1 UNK         0.0600 
    172 H172        3.2265  -11.5314  -46.2013 H         1 UNK         0.0600 
    173 H173        3.0443  -10.7522  -44.6393 H         1 UNK         0.0600 
    174 H174        2.8092  -14.0292  -46.0231 H         1 UNK         0.3000 
    175 H175        0.7092  -16.8584  -45.6177 H         1 UNK         0.0600 
    176 H176        1.3945  -15.4699  -48.2402 H         1 UNK         0.0600 
    177 H177        1.2138  -17.2163  -48.0788 H         1 UNK         0.0600 
    178 H178       -0.1580  -16.1474  -47.7990 H         1 UNK         0.0600 
    179 H179        3.2639  -16.6266  -46.8323 H         1 UNK         0.3000 
    180 H180        5.1828  -16.5283  -43.8407 H         1 UNK         0.0600 
    181 H181        4.8663  -18.8746  -45.7755 H         1 UNK         0.0600 
    182 H182        4.6006  -18.9418  -44.0414 H         1 UNK         0.0600 
    183 H183        6.2055  -18.5956  -44.6678 H         1 UNK         0.0600 
    184 H184        6.1657  -15.4268  -45.4438 H         1 UNK         0.3000 
    185 H185        6.7728  -14.5238  -47.2945 H         1 UNK         0.0600 
    186 H186        8.2198  -15.2832  -49.1608 H         1 UNK         0.0600 
    187 H187        8.2173  -16.4861  -47.8806 H         1 UNK         0.0600 
    188 H188        7.2689  -16.7589  -49.3370 H         1 UNK         0.0600 
    189 H189        5.9023  -14.7655  -49.9518 H         1 UNK         0.3000 
    190 H190       -2.3731  -20.5750  -47.1299 H         1 UNK         0.3000 
    191 H191       -2.4692  -21.6703  -49.7087 H         1 UNK         0.0600 
    192 H192       -4.8824  -21.2054  -49.5952 H         1 UNK         0.0600 
    193 H193       -4.0105  -19.9064  -48.7974 H         1 UNK         0.0600 
    194 H194       -4.8367  -21.1276  -47.8371 H         1 UNK         0.0600 
    195 H195       -3.5068  -23.1392  -46.6055 H         1 UNK         0.3000 
    196 H196       -4.5047  -25.5749  -47.7176 H         1 UNK         0.0600 
    197 H197       -4.3271  -26.3967  -45.3654 H         1 UNK         0.0600 
    198 H198       -5.0920  -24.8161  -45.4392 H         1 UNK         0.0600 
    199 H199       -3.4153  -24.9592  -44.9198 H         1 UNK         0.0600 
    200 H200       -1.2777  -24.6889  -46.3803 H         1 UNK         0.3000 
    201 H201       -0.0589  -27.2220  -46.7114 H         1 UNK         0.0600 
    202 H202        0.8286  -25.4676  -45.2070 H         1 UNK         0.0600 
    203 H203        1.1961  -24.4295  -46.5828 H         1 UNK         0.0600 
    204 H204        2.0612  -25.9459  -46.3644 H         1 UNK         0.0600 
    205 H205       -0.1356  -24.3792  -48.8927 H         1 UNK         0.3000 
    206 H206        1.4905  -25.5665  -50.9615 H         1 UNK         0.0600 
    207 H207       -0.4100  -23.1560  -50.9866 H         1 UNK         0.0600 
    208 H208        1.3122  -23.1090  -50.6138 H         1 UNK         0.0600 
    209 H209        0.7760  -23.5313  -52.2305 H         1 UNK         0.0600 
    210 H210       -1.7634  -26.0561  -50.0693 H         1 UNK         0.3000 
    211 H211       -3.5701  -26.9952  -50.8923 H         1 UNK         0.0600 
    212 H212       -1.8874  -28.1471  -53.1789 H         1 UNK         0.0600 
    213 H213       -3.4562  -28.7183  -52.6328 H         1 UNK         0.0600 
    214 H214       -2.0581  -28.8782  -51.5829 H         1 UNK         0.0600 
    215 H215       -2.8743  -24.3198  -51.5777 H         1 UNK         0.3000 
    216 H216       -4.0513  -23.7149  -54.2097 H         1 UNK         0.0600 
    217 H217       -3.4808  -21.4228  -53.6673 H         1 UNK         0.0600 
    218 H218       -2.1089  -22.3928  -53.1784 H         1 UNK         0.0600 
    219 H219       -3.2366  -21.7939  -51.9640 H         1 UNK         0.0600 
    220 H220       -4.8810  -23.8831  -50.8131 H         1 UNK         0.3000 
    221 H221       -6.7345  -23.7515  -49.5962 H         1 UNK         0.0600 
    222 H222       -7.8382  -25.0862  -52.1287 H         1 UNK         0.0600 
    223 H223       -7.0539  -25.8730  -50.7677 H         1 UNK         0.0600 
    224 H224       -8.6247  -25.1242  -50.5495 H         1 UNK         0.0600 
    225 H225       -8.9457  -23.4146  -52.2370 H         1 UNK         0.3000 
    226 H226      -10.3692  -21.2507  -51.1467 H         1 UNK         0.0600 
    227 H227      -11.3617  -22.9668  -52.6371 H         1 UNK         0.0600 
    228 H228      -11.6238  -21.3673  -53.3115 H         1 UNK         0.0600 
    229 H229      -10.3741  -22.4054  -53.9873 H         1 UNK         0.0600 
    230 H230       -7.4983  -21.1393  -53.1013 H         1 UNK         0.3000 
    231 H231       -7.7625  -18.4961  -54.1907 H         1 UNK         0.0600 
    232 H232       -5.3090  -18.6825  -54.4875 H         1 UNK         0.0600 
    233 H233       -6.0703  -20.1979  -54.9545 H         1 UNK         0.0600 
    234 H234       -5.2559  -20.0588  -53.3949 H         1 UNK         0.0600 
    235 H235       -7.1031  -19.6712  -50.9798 H         1 UNK         0.3000 
    236 H236       -6.8809  -18.8353  -49.0028 H         1 UNK         0.0600 
    237 H237       -8.8449  -17.4521  -49.6201 H         1 UNK         0.0600 
    238 H238       -7.8143  -16.6039  -48.4776 H         1 UNK         0.0600 
    239 H239       -7.7869  -16.1560  -50.1768 H         1 UNK         0.0600 
    240 H240       -5.0534  -17.0174  -51.3714 H         1 UNK         0.3000 
    241 H241       -3.0214  -16.1676  -51.4292 H         1 UNK         0.0600 
    242 H242       -5.1746  -14.6780  -49.7272 H         1 UNK         0.3800 
    243 H243       -4.2039  -13.4340  -48.9820 H         1 UNK         0.3800 
    244 H244       -1.1948  -16.9543  -49.9028 H         1 UNK         0.0800 
    245 H245       -2.3762  -17.7246  -48.8823 H         1 UNK         0.0800 
    246 H246       -0.8107  -17.5876  -52.4900 H         1 UNK         0.0800 
    247 H247       -0.6386  -19.2942  -52.8208 H         1 UNK         0.0800 
@<TRIPOS>BOND
     1    1    2 1    
     2    1  127 1    
     3    1  128 1    
     4    1  129 1    
     5    2    3 2    
     6    2    4 am   BACKBONE|DICT|INTERRES
     7    4    5 1    
     8    4  130 1    
     9    5    6 1    
    10    5   65 1    
    11    5  131 1    
    12    6    7 1    
    13    6  132 1    
    14    6  133 1    
    15    7    8 1    
    16    8    9 1    
    17    8  134 1    
    18    8  135 1    
    19    9   10 ar   
    20    9   14 ar   
    21   10   11 ar   
    22   10  136 1    
    23   11   12 ar   
    24   11  126 1    
    25   12   13 ar   
    26   12  137 1    
    27   13   14 ar   
    28   13   15 1    
    29   14  138 1    
    30   15   16 1    
    31   15  139 1    
    32   15  140 1    
    33   16   17 1    
    34   17   18 1    
    35   17  141 1    
    36   17  142 1    
    37   18   19 1    
    38   18   67 1    
    39   18  143 1    
    40   19   20 am   BACKBONE|DICT|INTERRES
    41   19  144 1    
    42   20   21 2    
    43   20   22 1    
    44   22   23 1    
    45   22   24 1    
    46   22  145 1    
    47   23  146 1    
    48   23  147 1    
    49   23  148 1    
    50   24   25 am   BACKBONE|DICT|INTERRES
    51   24  149 1    
    52   25   26 2    
    53   25   27 1    
    54   27   28 1    
    55   27   29 1    
    56   27  150 1    
    57   28  151 1    
    58   28  152 1    
    59   28  153 1    
    60   29   30 am   BACKBONE|DICT|INTERRES
    61   29  154 1    
    62   30   31 2    
    63   30   32 1    
    64   32   33 1    
    65   32   34 1    
    66   32  155 1    
    67   33  156 1    
    68   33  157 1    
    69   33  158 1    
    70   34   35 am   BACKBONE|DICT|INTERRES
    71   34  159 1    
    72   35   36 2    
    73   35   37 1    
    74   37   38 1    
    75   37   39 1    
    76   37  160 1    
    77   38  161 1    
    78   38  162 1    
    79   38  163 1    
    80   39   40 am   BACKBONE|DICT|INTERRES
    81   39  164 1    
    82   40   41 2    
    83   40   42 1    
    84   42   43 1    
    85   42   44 1    
    86   42  165 1    
    87   43  166 1    
    88   43  167 1    
    89   43  168 1    
    90   44   45 am   BACKBONE|DICT|INTERRES
    91   44  169 1    
    92   45   46 2    
    93   45   47 1    
    94   47   48 1    
    95   47   49 1    
    96   47  170 1    
    97   48  171 1    
    98   48  172 1    
    99   48  173 1    
   100   49   50 am   BACKBONE|DICT|INTERRES
   101   49  174 1    
   102   50   51 2    
   103   50   52 1    
   104   52   53 1    
   105   52   54 1    
   106   52  175 1    
   107   53  176 1    
   108   53  177 1    
   109   53  178 1    
   110   54   55 am   BACKBONE|DICT|INTERRES
   111   54  179 1    
   112   55   56 2    
   113   55   57 1    
   114   57   58 1    
   115   57   59 1    
   116   57  180 1    
   117   58  181 1    
   118   58  182 1    
   119   58  183 1    
   120   59   60 am   BACKBONE|DICT|INTERRES
   121   59  184 1    
   122   60   61 2    
   123   60   62 1    
   124   62   63 1    
   125   62   64 1    
   126   62  185 1    
   127   63  186 1    
   128   63  187 1    
   129   63  188 1    
   130   64   65 am   BACKBONE|DICT|INTERRES
   131   64  189 1    
   132   65   66 2    
   133   67   68 2    
   134   67   69 am   BACKBONE|DICT|INTERRES
   135   69   70 1    
   136   69  190 1    
   137   70   71 1    
   138   70   72 1    
   139   70  191 1    
   140   71  192 1    
   141   71  193 1    
   142   71  194 1    
   143   72   73 2    
   144   72   74 am   BACKBONE|DICT|INTERRES
   145   74   75 1    
   146   74  195 1    
   147   75   76 1    
   148   75   77 1    
   149   75  196 1    
   150   76  197 1    
   151   76  198 1    
   152   76  199 1    
   153   77   78 2    
   154   77   79 am   BACKBONE|DICT|INTERRES
   155   79   80 1    
   156   79  200 1    
   157   80   81 1    
   158   80   82 1    
   159   80  201 1    
   160   81  202 1    
   161   81  203 1    
   162   81  204 1    
   163   82   83 2    
   164   82   84 am   BACKBONE|DICT|INTERRES
   165   84   85 1    
   166   84  205 1    
   167   85   86 1    
   168   85   87 1    
   169   85  206 1    
   170   86  207 1    
   171   86  208 1    
   172   86  209 1    
   173   87   88 2    
   174   87   89 am   BACKBONE|DICT|INTERRES
   175   89   90 1    
   176   89  210 1    
   177   90   91 1    
   178   90   92 1    
   179   90  211 1    
   180   91  212 1    
   181   91  213 1    
   182   91  214 1    
   183   92   93 2    
   184   92   94 am   BACKBONE|DICT|INTERRES
   185   94   95 1    
   186   94  215 1    
   187   95   96 1    
   188   95   97 1    
   189   95  216 1    
   190   96  217 1    
   191   96  218 1    
   192   96  219 1    
   193   97   98 2    
   194   97   99 am   BACKBONE|DICT|INTERRES
   195   99  100 1    
   196   99  220 1    
   197  100  101 1    
   198  100  102 1    
   199  100  221 1    
   200  101  222 1    
   201  101  223 1    
   202  101  224 1    
   203  102  103 2    
   204  102  104 am   BACKBONE|DICT|INTERRES
   205  104  105 1    
   206  104  225 1    
   207  105  106 1    
   208  105  107 1    
   209  105  226 1    
   210  106  227 1    
   211  106  228 1    
   212  106  229 1    
   213  107  108 2    
   214  107  109 am   BACKBONE|DICT|INTERRES
   215  109  110 1    
   216  109  230 1    
   217  110  111 1    
   218  110  112 1    
   219  110  231 1    
   220  111  232 1    
   221  111  233 1    
   222  111  234 1    
   223  112  113 2    
   224  112  114 am   BACKBONE|DICT|INTERRES
   225  114  115 1    
   226  114  235 1    
   227  115  116 1    
   228  115  117 1    
   229  115  236 1    
   230  116  237 1    
   231  116  238 1    
   232  116  239 1    
   233  117  118 2    
   234  117  119 am   BACKBONE|DICT|INTERRES
   235  119  120 1    
   236  119  240 1    
   237  120  121 1    
   238  120  124 1    
   239  120  241 1    
   240  121  122 am   BACKBONE|DICT|INTERRES
   241  121  123 2    
   242  122  242 1    
   243  122  243 1    
   244  124  125 1    
   245  124  244 1    
   246  124  245 1    
   247  125  126 1    
   248  126  246 1    
   249  126  247 1    
@<TRIPOS>SUBSTRUCTURE
     1 UNK         1 GROUP             0       ****    0 ROOT    
