@<TRIPOS>MOLECULE
3R540
247   249    1
SMALL
USER_CHARGES


@<TRIPOS>ATOM
      1 CA         -5.5547  -13.3175  -45.2135 C.3       0 UNK        -0.1800 
      2 C          -4.2481  -13.0360  -45.9408 C.2       0 UNK         0.5000 
      3 O          -3.8990  -11.8739  -46.1517 O.2       0 UNK        -0.5000 
      4 N          -3.5134  -14.0913  -46.3125 N.am      1 UNK        -0.5000 
      5 CA         -2.2381  -14.0459  -47.0434 C.3       1 UNK         0.1400 
      6 C6         -1.9960  -15.3486  -47.8480 C.3       23 UNK        -0.0398 
      7 S7         -3.3420  -15.6714  -49.0397 S.3       23 UNK        -0.2404 
      8 C8         -2.5530  -15.1867  -50.6145 C.3       23 UNK        -0.0205 
      9 C9         -1.5381  -16.1759  -51.1940 C.ar      23 UNK        -0.0193 
     10 C10        -0.8623  -15.8170  -52.3635 C.ar      23 UNK        -0.1150 
     11 C11         0.0439  -16.6929  -52.9665 C.ar      23 UNK        -0.0193 
     12 C12         0.2948  -17.9354  -52.3781 C.ar      23 UNK        -0.1150 
     13 C13        -0.3596  -18.3099  -51.2017 C.ar      23 UNK        -0.0193 
     14 C14        -1.2818  -17.4315  -50.6258 C.ar      23 UNK        -0.1150 
     15 C15        -0.0787  -19.6698  -50.5728 C.3       23 UNK        -0.0205 
     16 S16         0.4797  -19.5416  -48.8410 S.3       23 UNK        -0.2404 
     17 C17        -1.0721  -19.8462  -47.9282 C.3       23 UNK        -0.0398 
     18 CA         -1.1078  -21.2799  -47.3530 C.3       11 UNK         0.1400 
     19 N          -0.1835  -21.4668  -46.2316 N.am      11 UNK        -0.5000 
     20 C           0.1264  -22.6591  -45.7047 C.2       10 UNK         0.5000 
     21 O          -0.3264  -23.7254  -46.1176 O.2       10 UNK        -0.5000 
     22 CA          1.0541  -22.6664  -44.4800 C.3       10 UNK         0.1400 
     23 CB          2.5121  -22.4221  -44.8961 C.3       10 UNK        -0.1800 
     24 N           0.6476  -21.6961  -43.4639 N.am      10 UNK        -0.5000 
     25 C          -0.5223  -21.7295  -42.8089 C.2       9 UNK         0.5000 
     26 O          -1.3740  -22.6032  -42.9741 O.2       9 UNK        -0.5000 
     27 CA         -0.8079  -20.5751  -41.8315 C.3       9 UNK         0.1400 
     28 CB         -0.0684  -20.7888  -40.5025 C.3       9 UNK        -0.1800 
     29 N          -0.4628  -19.2639  -42.3810 N.am      9 UNK        -0.5000 
     30 C          -1.0325  -18.7188  -43.4665 C.2       8 UNK         0.5000 
     31 O          -1.9318  -19.2524  -44.1154 O.2       8 UNK        -0.5000 
     32 CA         -0.4583  -17.3735  -43.9413 C.3       8 UNK         0.1400 
     33 CB         -0.9346  -16.2260  -43.0380 C.3       8 UNK        -0.1800 
     34 N           1.0024  -17.3861  -43.9951 N.am      8 UNK        -0.5000 
     35 C           1.7296  -18.2196  -44.7528 C.2       7 UNK         0.5000 
     36 O           1.2461  -19.0524  -45.5185 O.2       7 UNK        -0.5000 
     37 CA          3.2545  -18.1547  -44.5750 C.3       7 UNK         0.1400 
     38 CB          3.8472  -16.9565  -45.3327 C.3       7 UNK        -0.1800 
     39 N           3.6375  -18.0985  -43.1629 N.am      7 UNK        -0.5000 
     40 C           3.4569  -19.1018  -42.2908 C.2       6 UNK         0.5000 
     41 O           2.9699  -20.1903  -42.5909 O.2       6 UNK        -0.5000 
     42 CA          3.8554  -18.8342  -40.8291 C.3       6 UNK         0.1400 
     43 CB          5.3589  -19.0723  -40.6249 C.3       6 UNK        -0.1800 
     44 N           3.5149  -17.4803  -40.3952 N.am      6 UNK        -0.5000 
     45 C           2.2639  -17.0219  -40.2475 C.2       5 UNK         0.5000 
     46 O           1.2548  -17.7038  -40.4302 O.2       5 UNK        -0.5000 
     47 CA          2.1288  -15.5281  -39.8956 C.3       5 UNK         0.1400 
     48 CB          2.3066  -15.3044  -38.3865 C.3       5 UNK        -0.1800 
     49 N           3.0784  -14.6864  -40.6339 N.am      5 UNK        -0.5000 
     50 C           3.0746  -14.5626  -41.9663 C.2       4 UNK         0.5000 
     51 O           2.2654  -15.1422  -42.6982 O.2       4 UNK        -0.5000 
     52 CA          4.1591  -13.6792  -42.5993 C.3       4 UNK         0.1400 
     53 CB          5.4946  -14.4347  -42.7188 C.3       4 UNK        -0.1800 
     54 N           3.6555  -13.3165  -43.9136 N.am      4 UNK        -0.5000 
     55 C           4.0623  -12.3385  -44.7269 C.2       3 UNK         0.5000 
     56 O           5.0563  -11.6387  -44.5318 O.2       3 UNK        -0.5000 
     57 CA          3.1501  -12.0787  -45.9440 C.3       3 UNK         0.1400 
     58 CB          3.5458  -12.9809  -47.1227 C.3       3 UNK        -0.1800 
     59 N           1.7409  -12.3139  -45.6101 N.am      3 UNK        -0.5000 
     60 C           1.0201  -11.5463  -44.7829 C.2       2 UNK         0.5000 
     61 O           1.3995  -10.4433  -44.3850 O.2       2 UNK        -0.5000 
     62 CA         -0.3223  -12.1292  -44.2915 C.3       2 UNK         0.1400 
     63 CB         -1.1150  -11.1444  -43.4133 C.3       2 UNK        -0.1800 
     64 N          -1.1978  -12.5958  -45.3657 N.am      2 UNK        -0.5000 
     65 C          -1.0667  -13.7128  -46.0906 C.2       1 UNK         0.5000 
     66 O          -0.0943  -14.4647  -46.0029 O.2       1 UNK        -0.5000 
     67 C          -2.5455  -21.7026  -46.9973 C.2       11 UNK         0.5000 
     68 O          -3.1885  -22.3597  -47.8158 O.2       11 UNK        -0.5000 
     69 N          -3.0155  -21.3728  -45.7859 N.am      12 UNK        -0.5000 
     70 CA         -4.3262  -21.7866  -45.2784 C.3       12 UNK         0.1400 
     71 CB         -4.6064  -21.0932  -43.9370 C.3       12 UNK        -0.1800 
     72 C          -4.4689  -23.3148  -45.1398 C.2       12 UNK         0.5000 
     73 O          -5.5483  -23.8460  -45.3998 O.2       12 UNK        -0.5000 
     74 N          -3.3809  -23.9904  -44.7498 N.am      13 UNK        -0.5000 
     75 CA         -3.3152  -25.4434  -44.6335 C.3       13 UNK         0.1400 
     76 CB         -2.1519  -25.8277  -43.7049 C.3       13 UNK        -0.1800 
     77 C          -3.1804  -26.1395  -46.0000 C.2       13 UNK         0.5000 
     78 O          -3.9466  -27.0598  -46.2882 O.2       13 UNK        -0.5000 
     79 N          -2.1874  -25.7212  -46.7962 N.am      14 UNK        -0.5000 
     80 CA         -1.7779  -26.4100  -48.0193 C.3       14 UNK         0.1400 
     81 CB         -0.3035  -26.0924  -48.3172 C.3       14 UNK        -0.1800 
     82 C          -2.6524  -26.0716  -49.2354 C.2       14 UNK         0.5000 
     83 O          -3.0571  -26.9845  -49.9568 O.2       14 UNK        -0.5000 
     84 N          -2.8979  -24.7755  -49.4647 N.am      15 UNK        -0.5000 
     85 CA         -3.6106  -24.2811  -50.6426 C.3       15 UNK         0.1400 
     86 CB         -2.9612  -22.9732  -51.1254 C.3       15 UNK        -0.1800 
     87 C          -5.1001  -24.0674  -50.3470 C.2       15 UNK         0.5000 
     88 O          -5.9359  -24.4073  -51.1847 O.2       15 UNK        -0.5000 
     89 N          -5.3967  -23.4820  -49.1770 N.am      16 UNK        -0.5000 
     90 CA         -6.7061  -23.1032  -48.6271 C.3       16 UNK         0.1400 
     91 CB         -7.6172  -24.3301  -48.4378 C.3       16 UNK        -0.1800 
     92 C          -7.4156  -21.9846  -49.4152 C.2       16 UNK         0.5000 
     93 O          -7.8154  -20.9815  -48.8248 O.2       16 UNK        -0.5000 
     94 N          -7.5235  -22.1595  -50.7358 N.am      17 UNK        -0.5000 
     95 CA         -8.0676  -21.1969  -51.6933 C.3       17 UNK         0.1400 
     96 CB         -8.6736  -21.9811  -52.8691 C.3       17 UNK        -0.1800 
     97 C          -7.0086  -20.1974  -52.2030 C.2       17 UNK         0.5000 
     98 O          -7.3461  -19.3328  -53.0125 O.2       17 UNK        -0.5000 
     99 N          -5.7478  -20.3555  -51.7660 N.am      18 UNK        -0.5000 
    100 CA        -4.5327  -19.6101  -52.1310 C.3       18 UNK         0.1400 
    101 CB        -4.6682  -18.1064  -51.8321 C.3       18 UNK        -0.1800 
    102 C         -4.0660  -19.8473  -53.5788 C.2       18 UNK         0.5000 
    103 O         -2.8963  -20.1679  -53.7958 O.2       18 UNK        -0.5000 
    104 N         -4.9929  -19.7368  -54.5385 N.am      19 UNK        -0.5000 
    105 CA        -4.7908  -19.8973  -55.9814 C.3       19 UNK         0.1400 
    106 CB        -6.1283  -19.6642  -56.6985 C.3       19 UNK        -0.1800 
    107 C         -4.1897  -21.2538  -56.3947 C.2       19 UNK         0.5000 
    108 O         -3.4845  -21.3186  -57.4013 O.2       19 UNK        -0.5000 
    109 N         -4.4338  -22.2960  -55.5879 N.am      20 UNK        -0.5000 
    110 CA        -3.8582  -23.6337  -55.7388 C.3       20 UNK         0.1400 
    111 CB        -4.5056  -24.5718  -54.7087 C.3       20 UNK        -0.1800 
    112 C         -2.3195  -23.6677  -55.6161 C.2       20 UNK         0.5000 
    113 O         -1.6929  -24.5457  -56.2106 O.2       20 UNK        -0.5000 
    114 N         -1.7434  -22.7134  -54.8717 N.am      21 UNK        -0.5000 
    115 CA        -0.3000  -22.5024  -54.7646 C.3       21 UNK         0.1400 
    116 CB         0.0776  -22.3128  -53.2884 C.3       21 UNK        -0.1800 
    117 C          0.1486  -21.2862  -55.5914 C.2       21 UNK         0.5000 
    118 O          1.2099  -21.3401  -56.2138 O.2       21 UNK        -0.5000 
    119 N         -0.6515  -20.2115  -55.5731 N.am      22 UNK        -0.5000 
    120 CA        -0.3601  -18.9416  -56.2559 C.3       22 UNK         0.1400 
    121 C         -0.4260  -18.9974  -57.8107 C.2       22 UNK         0.5000 
    122 N         -1.2052  -19.8872  -58.4129 N.am      22 UNK        -0.7600 
    123 O          0.2554  -18.2308  -58.4855 O.2       22 UNK        -0.5000 
    124 C124       -1.2317  -17.7934  -55.6820 C.3       23 UNK        -0.0398 
    125 S125       -0.3996  -16.1678  -55.6777 S.3       23 UNK        -0.2404 
    126 C126        0.7442  -16.3034  -54.2607 C.3       23 UNK        -0.0205 
    127 H127       -6.3914  -12.8932  -45.7684 H         1 UNK         0.0600 
    128 H128       -5.7315  -14.3870  -45.0968 H         1 UNK         0.0600 
    129 H129       -5.5368  -12.8652  -44.2221 H         1 UNK         0.0600 
    130 H130       -3.8520  -15.0187  -46.1009 H         1 UNK         0.3000 
    131 H131       -2.2857  -13.2276  -47.7652 H         1 UNK         0.0600 
    132 H132       -1.9215  -16.2066  -47.1778 H         1 UNK         0.0800 
    133 H133       -1.0458  -15.3013  -48.3834 H         1 UNK         0.0800 
    134 H134       -3.3447  -15.0451  -51.3514 H         1 UNK         0.0800 
    135 H135       -2.0773  -14.2133  -50.4858 H         1 UNK         0.0800 
    136 H136       -1.0576  -14.8578  -52.8228 H         1 UNK         0.1150 
    137 H137        0.9955  -18.6154  -52.8421 H         1 UNK         0.1150 
    138 H138       -1.7957  -17.7372  -49.7298 H         1 UNK         0.1150 
    139 H139       -0.9662  -20.2992  -50.6482 H         1 UNK         0.0800 
    140 H140        0.7045  -20.1853  -51.1302 H         1 UNK         0.0800 
    141 H141       -1.9185  -19.6752  -48.5947 H         1 UNK         0.0800 
    142 H142       -1.1620  -19.1080  -47.1291 H         1 UNK         0.0800 
    143 H143       -0.7868  -21.9604  -48.1454 H         1 UNK         0.0600 
    144 H144        0.2578  -20.6277  -45.8612 H         1 UNK         0.3000 
    145 H145        0.9957  -23.6593  -44.0293 H         1 UNK         0.0600 
    146 H146        3.1871  -22.5341  -44.0476 H         1 UNK         0.0600 
    147 H147        2.8264  -23.1373  -45.6573 H         1 UNK         0.0600 
    148 H148        2.6532  -21.4220  -45.3064 H         1 UNK         0.0600 
    149 H149        1.3191  -20.9666  -43.2420 H         1 UNK         0.3000 
    150 H150       -1.8802  -20.5747  -41.6258 H         1 UNK         0.0600 
    151 H151       -0.3211  -21.7555  -40.0653 H         1 UNK         0.0600 
    152 H152       -0.3369  -20.0224  -39.7752 H         1 UNK         0.0600 
    153 H153        1.0136  -20.7592  -40.6339 H         1 UNK         0.0600 
    154 H154        0.2584  -18.7428  -41.8928 H         1 UNK         0.3000 
    155 H155       -0.8244  -17.1876  -44.9531 H         1 UNK         0.0600 
    156 H156       -0.5941  -16.3514  -42.0098 H         1 UNK         0.0600 
    157 H157       -2.0234  -16.1671  -43.0219 H         1 UNK         0.0600 
    158 H158       -0.5615  -15.2674  -43.3937 H         1 UNK         0.0600 
    159 H159        1.4831  -16.7021  -43.4170 H         1 UNK         0.3000 
    160 H160        3.6787  -19.0658  -45.0023 H         1 UNK         0.0600 
    161 H161        4.9341  -16.9363  -45.2533 H         1 UNK         0.0600 
    162 H162        3.4633  -16.0082  -44.9586 H         1 UNK         0.0600 
    163 H163        3.6006  -17.0097  -46.3939 H         1 UNK         0.0600 
    164 H164        4.0018  -17.2227  -42.8229 H         1 UNK         0.3000 
    165 H165        3.3091  -19.5403  -40.2000 H         1 UNK         0.0600 
    166 H166        5.6371  -18.9590  -39.5770 H         1 UNK         0.0600 
    167 H167        5.6376  -20.0829  -40.9265 H         1 UNK         0.0600 
    168 H168        5.9620  -18.3769  -41.2101 H         1 UNK         0.0600 
    169 H169        4.2826  -16.8476  -40.2256 H         1 UNK         0.3000 
    170 H170        1.1185  -15.2157  -40.1693 H         1 UNK         0.0600 
    171 H171        1.6011  -15.9108  -37.8169 H         1 UNK         0.0600 
    172 H172        3.3109  -15.5692  -38.0535 H         1 UNK         0.0600 
    173 H173        2.1275  -14.2629  -38.1189 H         1 UNK         0.0600 
    174 H174        3.7653  -14.1857  -40.0883 H         1 UNK         0.3000 
    175 H175        4.2847  -12.7768  -41.9980 H         1 UNK         0.0600 
    176 H176        5.3966  -15.3364  -43.3230 H         1 UNK         0.0600 
    177 H177        6.2626  -13.8110  -43.1762 H         1 UNK         0.0600 
    178 H178        5.8655  -14.7336  -41.7379 H         1 UNK         0.0600 
    179 H179        2.8133  -13.8265  -44.1530 H         1 UNK         0.3000 
    180 H180        3.2717  -11.0364  -46.2462 H         1 UNK         0.0600 
    181 H181        3.4272  -14.0378  -46.8800 H         1 UNK         0.0600 
    182 H182        4.5881  -12.8224  -47.4024 H         1 UNK         0.0600 
    183 H183        2.9371  -12.7691  -48.0020 H         1 UNK         0.0600 
    184 H184        1.3330  -13.1993  -45.8983 H         1 UNK         0.3000 
    185 H185       -0.0686  -12.9869  -43.6661 H         1 UNK         0.0600 
    186 H186       -0.5261  -10.8190  -42.5547 H         1 UNK         0.0600 
    187 H187       -1.4063  -10.2540  -43.9718 H         1 UNK         0.0600 
    188 H188       -2.0222  -11.6068  -43.0235 H         1 UNK         0.0600 
    189 H189       -2.0363  -12.0463  -45.5282 H         1 UNK         0.3000 
    190 H190       -2.4515  -20.7946  -45.1685 H         1 UNK         0.3000 
    191 H191       -5.0786  -21.4496  -45.9941 H         1 UNK         0.0600 
    192 H192       -3.8582  -21.3512  -43.1871 H         1 UNK         0.0600 
    193 H193       -5.5813  -21.3822  -43.5426 H         1 UNK         0.0600 
    194 H194       -4.6098  -20.0088  -44.0476 H         1 UNK         0.0600 
    195 H195       -2.5454  -23.4722  -44.5012 H         1 UNK         0.3000 
    196 H196       -4.2386  -25.7966  -44.1693 H         1 UNK         0.0600 
    197 H197       -1.1946  -25.4662  -44.0822 H         1 UNK         0.0600 
    198 H198       -2.0768  -26.9106  -43.5985 H         1 UNK         0.0600 
    199 H199       -2.2928  -25.4113  -42.7073 H         1 UNK         0.0600 
    200 H200       -1.5901  -24.9555  -46.4875 H         1 UNK         0.3000 
    201 H201       -1.8504  -27.4867  -47.8493 H         1 UNK         0.0600 
    202 H202       -0.1486  -25.0300  -48.5097 H         1 UNK         0.0600 
    203 H203        0.0439  -26.6382  -49.1952 H         1 UNK         0.0600 
    204 H204        0.3373  -26.3768  -47.4824 H         1 UNK         0.0600 
    205 H205       -2.6042  -24.0841  -48.7852 H         1 UNK         0.3000 
    206 H206       -3.5295  -25.0059  -51.4556 H         1 UNK         0.0600 
    207 H207       -3.3975  -22.6435  -52.0683 H         1 UNK         0.0600 
    208 H208       -3.0806  -22.1619  -50.4081 H         1 UNK         0.0600 
    209 H209       -1.8942  -23.1094  -51.2904 H         1 UNK         0.0600 
    210 H210       -4.6063  -23.1922  -48.6038 H         1 UNK         0.3000 
    211 H211       -6.5008  -22.6968  -47.6367 H         1 UNK         0.0600 
    212 H212       -7.8811  -24.7985  -49.3862 H         1 UNK         0.0600 
    213 H213       -8.5477  -24.0491  -47.9433 H         1 UNK         0.0600 
    214 H214       -7.1330  -25.0824  -47.8147 H         1 UNK         0.0600 
    215 H215       -7.1387  -23.0210  -51.1189 H         1 UNK         0.3000 
    216 H216       -8.8625  -20.6197  -51.2169 H         1 UNK         0.0600 
    217 H217       -9.1341  -21.3106  -53.5959 H         1 UNK         0.0600 
    218 H218       -9.4493  -22.6662  -52.5266 H         1 UNK         0.0600 
    219 H219       -7.9177  -22.5668  -53.3941 H         1 UNK         0.0600 
    220 H220       -5.6031  -21.1096  -51.1115 H         1 UNK         0.3000 
    221 H221       -3.7395  -19.9921  -51.4868 H         1 UNK         0.0600 
    222 H222       -5.4814  -17.6406  -52.3881 H         1 UNK         0.0600 
    223 H223       -4.8417  -17.9296  -50.7707 H         1 UNK         0.0600 
    224 H224       -3.7567  -17.5778  -52.1074 H         1 UNK         0.0600 
    225 H225       -5.9314  -19.4878  -54.2356 H         1 UNK         0.3000 
    226 H226       -4.0921  -19.1233  -56.3015 H         1 UNK         0.0600 
    227 H227       -6.5164  -18.6662  -56.4939 H         1 UNK         0.0600 
    228 H228       -6.0146  -19.7524  -57.7798 H         1 UNK         0.0600 
    229 H229       -6.8826  -20.3875  -56.3857 H         1 UNK         0.0600 
    230 H230       -5.0284  -22.1456  -54.7872 H         1 UNK         0.3000 
    231 H231       -4.1130  -23.9941  -56.7376 H         1 UNK         0.0600 
    232 H232       -5.5843  -24.6338  -54.8534 H         1 UNK         0.0600 
    233 H233       -4.3247  -24.2353  -53.6885 H         1 UNK         0.0600 
    234 H234       -4.1087  -25.5841  -54.7958 H         1 UNK         0.0600 
    235 H235       -2.3317  -22.0085  -54.4430 H         1 UNK         0.3000 
    236 H236        0.2460  -23.3712  -55.1383 H         1 UNK         0.0600 
    237 H237        1.1284  -22.0404  -53.1806 H         1 UNK         0.0600 
    238 H238       -0.5181  -21.5282  -52.8220 H         1 UNK         0.0600 
    239 H239       -0.0741  -23.2348  -52.7280 H         1 UNK         0.0600 
    240 H240       -1.4879  -20.2298  -54.9971 H         1 UNK         0.3000 
    241 H241        0.6803  -18.7176  -56.0139 H         1 UNK         0.0600 
    242 H242       -1.2251  -19.9162  -59.4196 H         1 UNK         0.3800 
    243 H243       -1.8266  -20.4974  -57.8904 H         1 UNK         0.3800 
    244 H244       -2.1666  -17.6990  -56.2359 H         1 UNK         0.0800 
    245 H245       -1.5366  -18.0126  -54.6591 H         1 UNK         0.0800 
    246 H246        1.5315  -17.0181  -54.5042 H         1 UNK         0.0800 
    247 H247        1.2423  -15.3433  -54.1192 H         1 UNK         0.0800 
@<TRIPOS>BOND
     1    1    2 1    
     2    1  127 1    
     3    1  128 1    
     4    1  129 1    
     5    2    3 2    
     6    2    4 am   BACKBONE|DICT|INTERRES
     7    4    5 1    
     8    4  130 1    
     9    5    6 1    
    10    5   65 1    
    11    5  131 1    
    12    6    7 1    
    13    6  132 1    
    14    6  133 1    
    15    7    8 1    
    16    8    9 1    
    17    8  134 1    
    18    8  135 1    
    19    9   10 ar   
    20    9   14 ar   
    21   10   11 ar   
    22   10  136 1    
    23   11   12 ar   
    24   11  126 1    
    25   12   13 ar   
    26   12  137 1    
    27   13   14 ar   
    28   13   15 1    
    29   14  138 1    
    30   15   16 1    
    31   15  139 1    
    32   15  140 1    
    33   16   17 1    
    34   17   18 1    
    35   17  141 1    
    36   17  142 1    
    37   18   19 1    
    38   18   67 1    
    39   18  143 1    
    40   19   20 am   BACKBONE|DICT|INTERRES
    41   19  144 1    
    42   20   21 2    
    43   20   22 1    
    44   22   23 1    
    45   22   24 1    
    46   22  145 1    
    47   23  146 1    
    48   23  147 1    
    49   23  148 1    
    50   24   25 am   BACKBONE|DICT|INTERRES
    51   24  149 1    
    52   25   26 2    
    53   25   27 1    
    54   27   28 1    
    55   27   29 1    
    56   27  150 1    
    57   28  151 1    
    58   28  152 1    
    59   28  153 1    
    60   29   30 am   BACKBONE|DICT|INTERRES
    61   29  154 1    
    62   30   31 2    
    63   30   32 1    
    64   32   33 1    
    65   32   34 1    
    66   32  155 1    
    67   33  156 1    
    68   33  157 1    
    69   33  158 1    
    70   34   35 am   BACKBONE|DICT|INTERRES
    71   34  159 1    
    72   35   36 2    
    73   35   37 1    
    74   37   38 1    
    75   37   39 1    
    76   37  160 1    
    77   38  161 1    
    78   38  162 1    
    79   38  163 1    
    80   39   40 am   BACKBONE|DICT|INTERRES
    81   39  164 1    
    82   40   41 2    
    83   40   42 1    
    84   42   43 1    
    85   42   44 1    
    86   42  165 1    
    87   43  166 1    
    88   43  167 1    
    89   43  168 1    
    90   44   45 am   BACKBONE|DICT|INTERRES
    91   44  169 1    
    92   45   46 2    
    93   45   47 1    
    94   47   48 1    
    95   47   49 1    
    96   47  170 1    
    97   48  171 1    
    98   48  172 1    
    99   48  173 1    
   100   49   50 am   BACKBONE|DICT|INTERRES
   101   49  174 1    
   102   50   51 2    
   103   50   52 1    
   104   52   53 1    
   105   52   54 1    
   106   52  175 1    
   107   53  176 1    
   108   53  177 1    
   109   53  178 1    
   110   54   55 am   BACKBONE|DICT|INTERRES
   111   54  179 1    
   112   55   56 2    
   113   55   57 1    
   114   57   58 1    
   115   57   59 1    
   116   57  180 1    
   117   58  181 1    
   118   58  182 1    
   119   58  183 1    
   120   59   60 am   BACKBONE|DICT|INTERRES
   121   59  184 1    
   122   60   61 2    
   123   60   62 1    
   124   62   63 1    
   125   62   64 1    
   126   62  185 1    
   127   63  186 1    
   128   63  187 1    
   129   63  188 1    
   130   64   65 am   BACKBONE|DICT|INTERRES
   131   64  189 1    
   132   65   66 2    
   133   67   68 2    
   134   67   69 am   BACKBONE|DICT|INTERRES
   135   69   70 1    
   136   69  190 1    
   137   70   71 1    
   138   70   72 1    
   139   70  191 1    
   140   71  192 1    
   141   71  193 1    
   142   71  194 1    
   143   72   73 2    
   144   72   74 am   BACKBONE|DICT|INTERRES
   145   74   75 1    
   146   74  195 1    
   147   75   76 1    
   148   75   77 1    
   149   75  196 1    
   150   76  197 1    
   151   76  198 1    
   152   76  199 1    
   153   77   78 2    
   154   77   79 am   BACKBONE|DICT|INTERRES
   155   79   80 1    
   156   79  200 1    
   157   80   81 1    
   158   80   82 1    
   159   80  201 1    
   160   81  202 1    
   161   81  203 1    
   162   81  204 1    
   163   82   83 2    
   164   82   84 am   BACKBONE|DICT|INTERRES
   165   84   85 1    
   166   84  205 1    
   167   85   86 1    
   168   85   87 1    
   169   85  206 1    
   170   86  207 1    
   171   86  208 1    
   172   86  209 1    
   173   87   88 2    
   174   87   89 am   BACKBONE|DICT|INTERRES
   175   89   90 1    
   176   89  210 1    
   177   90   91 1    
   178   90   92 1    
   179   90  211 1    
   180   91  212 1    
   181   91  213 1    
   182   91  214 1    
   183   92   93 2    
   184   92   94 am   BACKBONE|DICT|INTERRES
   185   94   95 1    
   186   94  215 1    
   187   95   96 1    
   188   95   97 1    
   189   95  216 1    
   190   96  217 1    
   191   96  218 1    
   192   96  219 1    
   193   97   98 2    
   194   97   99 am   BACKBONE|DICT|INTERRES
   195   99  100 1    
   196   99  220 1    
   197  100  101 1    
   198  100  102 1    
   199  100  221 1    
   200  101  222 1    
   201  101  223 1    
   202  101  224 1    
   203  102  103 2    
   204  102  104 am   BACKBONE|DICT|INTERRES
   205  104  105 1    
   206  104  225 1    
   207  105  106 1    
   208  105  107 1    
   209  105  226 1    
   210  106  227 1    
   211  106  228 1    
   212  106  229 1    
   213  107  108 2    
   214  107  109 am   BACKBONE|DICT|INTERRES
   215  109  110 1    
   216  109  230 1    
   217  110  111 1    
   218  110  112 1    
   219  110  231 1    
   220  111  232 1    
   221  111  233 1    
   222  111  234 1    
   223  112  113 2    
   224  112  114 am   BACKBONE|DICT|INTERRES
   225  114  115 1    
   226  114  235 1    
   227  115  116 1    
   228  115  117 1    
   229  115  236 1    
   230  116  237 1    
   231  116  238 1    
   232  116  239 1    
   233  117  118 2    
   234  117  119 am   BACKBONE|DICT|INTERRES
   235  119  120 1    
   236  119  240 1    
   237  120  121 1    
   238  120  124 1    
   239  120  241 1    
   240  121  122 am   BACKBONE|DICT|INTERRES
   241  121  123 2    
   242  122  242 1    
   243  122  243 1    
   244  124  125 1    
   245  124  244 1    
   246  124  245 1    
   247  125  126 1    
   248  126  246 1    
   249  126  247 1    
@<TRIPOS>SUBSTRUCTURE
     1 UNK         1 GROUP             0       ****    0 ROOT    
