@<TRIPOS>MOLECULE
3R540
247   249    1
SMALL
USER_CHARGES


@<TRIPOS>ATOM
      1 CA         -6.1045  -14.5304  -51.1305 C.3       0 UNK        -0.1800 
      2 C          -4.6761  -14.2151  -50.7099 C.2       0 UNK         0.5000 
      3 O          -4.2085  -13.0947  -50.9127 O.2       0 UNK        -0.5000 
      4 N          -3.9940  -15.1953  -50.1131 N.am      1 UNK        -0.5000 
      5 CA         -2.6115  -15.1313  -49.6369 C.3       1 UNK         0.1400 
      6 C6         -1.7318  -16.2304  -50.2916 C.3       23 UNK        -0.0398 
      7 S7         -1.5923  -16.0287  -52.0989 S.3       23 UNK        -0.2404 
      8 C8          0.2116  -16.0392  -52.3302 C.3       23 UNK        -0.0205 
      9 C9          0.7995  -17.4373  -52.1965 C.ar      23 UNK        -0.0193 
     10 C10         0.6984  -18.3371  -53.2606 C.ar      23 UNK        -0.1150 
     11 C11         1.2904  -19.6000  -53.1829 C.ar      23 UNK        -0.0193 
     12 C12         1.9857  -19.9632  -52.0258 C.ar      23 UNK        -0.1150 
     13 C13         2.0871  -19.0776  -50.9464 C.ar      23 UNK        -0.0193 
     14 C14         1.4858  -17.8172  -51.0381 C.ar      23 UNK        -0.1150 
     15 C15         2.9176  -19.4358  -49.7172 C.3       23 UNK        -0.0205 
     16 S16         2.5657  -21.0887  -49.0318 S.3       23 UNK        -0.2404 
     17 C17         0.9099  -20.8893  -48.2915 C.3       23 UNK        -0.0398 
     18 CA          0.7353  -21.7575  -47.0128 C.3       11 UNK         0.1400 
     19 N           1.5574  -21.3153  -45.8773 N.am      11 UNK        -0.5000 
     20 C           2.6751  -21.9296  -45.4676 C.2       10 UNK         0.5000 
     21 O           3.1633  -22.9145  -46.0239 O.2       10 UNK        -0.5000 
     22 CA          3.3564  -21.3798  -44.1987 C.3       10 UNK         0.1400 
     23 CB          4.2087  -20.1478  -44.5416 C.3       10 UNK        -0.1800 
     24 N           2.4566  -21.0554  -43.0858 N.am      10 UNK        -0.5000 
     25 C           1.5114  -21.8506  -42.5600 C.2       9 UNK         0.5000 
     26 O           1.2012  -22.9455  -43.0320 O.2       9 UNK        -0.5000 
     27 CA          0.7649  -21.3301  -41.3107 C.3       9 UNK         0.1400 
     28 CB          0.2195  -22.4663  -40.4178 C.3       9 UNK        -0.1800 
     29 N           1.5253  -20.3703  -40.5034 N.am      9 UNK        -0.5000 
     30 C           2.6788  -20.5980  -39.8567 C.2       8 UNK         0.5000 
     31 O           3.2742  -21.6768  -39.8807 O.2       8 UNK        -0.5000 
     32 CA          3.2566  -19.4221  -39.0386 C.3       8 UNK         0.1400 
     33 CB          4.7698  -19.5720  -38.7754 C.3       8 UNK        -0.1800 
     34 N           2.9756  -18.0949  -39.5991 N.am      8 UNK        -0.5000 
     35 C           3.3064  -17.6372  -40.8137 C.2       7 UNK         0.5000 
     36 O           3.7822  -18.3406  -41.7061 O.2       7 UNK        -0.5000 
     37 CA          3.0425  -16.1388  -41.0608 C.3       7 UNK         0.1400 
     38 CB          3.7710  -15.6184  -42.3122 C.3       7 UNK        -0.1800 
     39 N           1.6133  -15.8531  -41.1807 N.am      7 UNK        -0.5000 
     40 C           0.7390  -15.8095  -40.1662 C.2       6 UNK         0.5000 
     41 O           1.0566  -15.9716  -38.9866 O.2       6 UNK        -0.5000 
     42 CA         -0.7411  -15.5806  -40.5306 C.3       6 UNK         0.1400 
     43 CB         -1.0260  -14.0873  -40.7497 C.3       6 UNK        -0.1800 
     44 N          -1.1686  -16.3350  -41.7109 N.am      6 UNK        -0.5000 
     45 C          -1.1865  -17.6740  -41.7986 C.2       5 UNK         0.5000 
     46 O          -0.8545  -18.4249  -40.8817 O.2       5 UNK        -0.5000 
     47 CA         -1.6016  -18.2702  -43.1538 C.3       5 UNK         0.1400 
     48 CB         -3.1294  -18.2734  -43.3191 C.3       5 UNK        -0.1800 
     49 N          -0.9579  -17.5278  -44.2372 N.am      5 UNK        -0.5000 
     50 C           0.2717  -17.8157  -44.6869 C.2       4 UNK         0.5000 
     51 O           0.8454  -18.8762  -44.4405 O.2       4 UNK        -0.5000 
     52 CA          1.0028  -16.7609  -45.5388 C.3       4 UNK         0.1400 
     53 CB          1.2492  -17.2837  -46.9583 C.3       4 UNK        -0.1800 
     54 N           0.2956  -15.4832  -45.6084 N.am      4 UNK        -0.5000 
     55 C           0.3917  -14.5056  -44.6969 C.2       3 UNK         0.5000 
     56 O           1.1021  -14.5816  -43.6977 O.2       3 UNK        -0.5000 
     57 CA         -0.4917  -13.2565  -44.8970 C.3       3 UNK         0.1400 
     58 CB          0.2572  -12.1962  -45.7170 C.3       3 UNK        -0.1800 
     59 N          -1.7725  -13.5474  -45.5428 N.am      3 UNK        -0.5000 
     60 C          -2.6936  -14.3953  -45.0659 C.2       2 UNK         0.5000 
     61 O          -2.5939  -14.9540  -43.9722 O.2       2 UNK        -0.5000 
     62 CA         -3.8801  -14.7368  -45.9906 C.3       2 UNK         0.1400 
     63 CB         -5.0928  -13.8593  -45.6499 C.3       2 UNK        -0.1800 
     64 N          -3.6068  -14.6380  -47.4324 N.am      2 UNK        -0.5000 
     65 C          -2.6085  -15.2423  -48.0981 C.2       1 UNK         0.5000 
     66 O          -1.7129  -15.8698  -47.5356 O.2       1 UNK        -0.5000 
     67 C          -0.7392  -21.9176  -46.5937 C.2       11 UNK         0.5000 
     68 O          -1.6175  -21.9037  -47.4551 O.2       11 UNK        -0.5000 
     69 N          -1.0091  -22.1356  -45.2954 N.am      12 UNK        -0.5000 
     70 CA         -2.3592  -22.3969  -44.7733 C.3       12 UNK         0.1400 
     71 CB         -2.3295  -22.4389  -43.2418 C.3       12 UNK        -0.1800 
     72 C          -2.9891  -23.6933  -45.3209 C.2       12 UNK         0.5000 
     73 O          -4.2129  -23.7837  -45.4161 O.2       12 UNK        -0.5000 
     74 N          -2.1412  -24.6532  -45.7157 N.am      13 UNK        -0.5000 
     75 CA         -2.5246  -25.8962  -46.3851 C.3       13 UNK         0.1400 
     76 CB         -1.2861  -26.7969  -46.5048 C.3       13 UNK        -0.1800 
     77 C          -3.1686  -25.6808  -47.7702 C.2       13 UNK         0.5000 
     78 O          -3.9260  -26.5417  -48.2200 O.2       13 UNK        -0.5000 
     79 N          -2.8989  -24.5342  -48.4130 N.am      14 UNK        -0.5000 
     80 CA         -3.4590  -24.1365  -49.7049 C.3       14 UNK         0.1400 
     81 CB         -2.4655  -23.1925  -50.4057 C.3       14 UNK        -0.1800 
     82 C          -4.8667  -23.5233  -49.5386 C.2       14 UNK         0.5000 
     83 O          -5.1072  -22.3905  -49.9633 O.2       14 UNK        -0.5000 
     84 N          -5.7607  -24.2885  -48.8948 N.am      15 UNK        -0.5000 
     85 CA         -7.1632  -23.9849  -48.5933 C.3       15 UNK         0.1400 
     86 CB         -7.9976  -23.9745  -49.8908 C.3       15 UNK        -0.1800 
     87 C          -7.3246  -22.6986  -47.7582 C.2       15 UNK         0.5000 
     88 O          -7.9847  -21.7565  -48.1964 O.2       15 UNK        -0.5000 
     89 N          -6.6732  -22.6724  -46.5846 N.am      16 UNK        -0.5000 
     90 CA         -6.5845  -21.5390  -45.6504 C.3       16 UNK         0.1400 
     91 CB         -7.9709  -21.1633  -45.0859 C.3       16 UNK        -0.1800 
     92 C          -5.8263  -20.3375  -46.2536 C.2       16 UNK         0.5000 
     93 O          -6.1285  -19.1866  -45.9358 O.2       16 UNK        -0.5000 
     94 N          -4.8566  -20.6491  -47.1254 N.am      17 UNK        -0.5000 
     95 CA         -4.0658  -19.7337  -47.9475 C.3       17 UNK         0.1400 
     96 CB         -3.1256  -18.8685  -47.0867 C.3       17 UNK        -0.1800 
     97 C          -4.9258  -18.9144  -48.9298 C.2       17 UNK         0.5000 
     98 O          -4.6449  -17.7408  -49.1691 O.2       17 UNK        -0.5000 
     99 N          -5.9426  -19.5552  -49.5217 N.am      18 UNK        -0.5000 
    100 CA        -6.6321  -19.0450  -50.7077 C.3       18 UNK         0.1400 
    101 CB        -7.9321  -19.8294  -50.9343 C.3       18 UNK        -0.1800 
    102 C         -5.7113  -19.1321  -51.9393 C.2       18 UNK         0.5000 
    103 O         -5.6443  -18.1800  -52.7173 O.2       18 UNK        -0.5000 
    104 N         -4.9802  -20.2548  -52.0318 N.am      19 UNK        -0.5000 
    105 CA        -3.8975  -20.5479  -52.9700 C.3       19 UNK         0.1400 
    106 CB        -2.6306  -19.7684  -52.5530 C.3       19 UNK        -0.1800 
    107 C         -4.2803  -20.3877  -54.4584 C.2       19 UNK         0.5000 
    108 O         -5.4238  -20.6568  -54.8344 O.2       19 UNK        -0.5000 
    109 N         -3.3013  -20.0047  -55.2816 N.am      20 UNK        -0.5000 
    110 CA        -3.3709  -19.8280  -56.7261 C.3       20 UNK         0.1400 
    111 CB        -3.4618  -21.1999  -57.4256 C.3       20 UNK        -0.1800 
    112 C         -2.1063  -19.0709  -57.1610 C.2       20 UNK         0.5000 
    113 O         -1.2107  -18.8460  -56.3405 O.2       20 UNK        -0.5000 
    114 N         -2.0276  -18.7189  -58.4489 N.am      21 UNK        -0.5000 
    115 CA        -0.8536  -18.1135  -59.0809 C.3       21 UNK         0.1400 
    116 CB        -1.3041  -17.3735  -60.3536 C.3       21 UNK        -0.1800 
    117 C          0.2350  -19.1733  -59.3606 C.2       21 UNK         0.5000 
    118 O          0.4957  -19.5062  -60.5188 O.2       21 UNK        -0.5000 
    119 N          0.8145  -19.7191  -58.2854 N.am      22 UNK        -0.5000 
    120 CA         1.8979  -20.7119  -58.3086 C.3       22 UNK         0.1400 
    121 C          3.2365  -20.1748  -58.8984 C.2       22 UNK         0.5000 
    122 N          4.0988  -21.0563  -59.3880 N.am      22 UNK        -0.7600 
    123 O          3.5153  -18.9771  -58.8981 O.2       22 UNK        -0.5000 
    124 C124        2.0929  -21.3775  -56.9189 C.3       23 UNK        -0.0398 
    125 S125        2.5137  -20.2123  -55.5731 S.3       23 UNK        -0.2404 
    126 C126        1.2004  -20.5557  -54.3618 C.3       23 UNK        -0.0205 
    127 H127       -6.3797  -15.5564  -50.8843 H         1 UNK         0.0600 
    128 H128       -6.8022  -13.8601  -50.6285 H         1 UNK         0.0600 
    129 H129       -6.2157  -14.3995  -52.2069 H         1 UNK         0.0600 
    130 H130       -4.4415  -16.0918  -49.9255 H         1 UNK         0.3000 
    131 H131       -2.1700  -14.1612  -49.8723 H         1 UNK         0.0600 
    132 H132       -2.1362  -17.2235  -50.0898 H         1 UNK         0.0800 
    133 H133       -0.7298  -16.2208  -49.8612 H         1 UNK         0.0800 
    134 H134        0.6802  -15.3487  -51.6273 H         1 UNK         0.0800 
    135 H135        0.4358  -15.6524  -53.3253 H         1 UNK         0.0800 
    136 H136        0.1741  -18.0456  -54.1602 H         1 UNK         0.1150 
    137 H137        2.4665  -20.9298  -51.9730 H         1 UNK         0.1150 
    138 H138        1.5809  -17.1171  -50.2202 H         1 UNK         0.1150 
    139 H139        3.9694  -19.4057  -50.0039 H         1 UNK         0.0800 
    140 H140        2.8013  -18.6880  -48.9347 H         1 UNK         0.0800 
    141 H141        0.7129  -19.8413  -48.0746 H         1 UNK         0.0800 
    142 H142        0.1950  -21.1751  -49.0652 H         1 UNK         0.0800 
    143 H143        1.0222  -22.7750  -47.2860 H         1 UNK         0.0600 
    144 H144        1.2336  -20.5007  -45.3592 H         1 UNK         0.3000 
    145 H145        4.0288  -22.1594  -43.8359 H         1 UNK         0.0600 
    146 H146        4.8388  -19.8592  -43.7005 H         1 UNK         0.0600 
    147 H147        4.8697  -20.3482  -45.3859 H         1 UNK         0.0600 
    148 H148        3.5885  -19.2903  -44.8054 H         1 UNK         0.0600 
    149 H149        2.6188  -20.1595  -42.6429 H         1 UNK         0.3000 
    150 H150       -0.0919  -20.7816  -41.6951 H         1 UNK         0.0600 
    151 H151       -0.4621  -23.1156  -40.9649 H         1 UNK         0.0600 
    152 H152       -0.3336  -22.0663  -39.5680 H         1 UNK         0.0600 
    153 H153        1.0192  -23.0977  -40.0303 H         1 UNK         0.0600 
    154 H154        1.1065  -19.4511  -40.4276 H         1 UNK         0.3000 
    155 H155        2.7506  -19.4554  -38.0729 H         1 UNK         0.0600 
    156 H156        4.9861  -20.4911  -38.2295 H         1 UNK         0.0600 
    157 H157        5.1499  -18.7453  -38.1752 H         1 UNK         0.0600 
    158 H158        5.3391  -19.6011  -39.7052 H         1 UNK         0.0600 
    159 H159        2.4957  -17.4470  -38.9823 H         1 UNK         0.3000 
    160 H160        3.4367  -15.5900  -40.2029 H         1 UNK         0.0600 
    161 H161        3.4193  -16.1121  -43.2182 H         1 UNK         0.0600 
    162 H162        4.8452  -15.7923  -42.2397 H         1 UNK         0.0600 
    163 H163        3.6235  -14.5455  -42.4367 H         1 UNK         0.0600 
    164 H164        1.2821  -15.6369  -42.1166 H         1 UNK         0.3000 
    165 H165       -1.3449  -15.9203  -39.6866 H         1 UNK         0.0600 
    166 H166       -0.7706  -13.5076  -39.8619 H         1 UNK         0.0600 
    167 H167       -0.4480  -13.6841  -41.5812 H         1 UNK         0.0600 
    168 H168       -2.0814  -13.9130  -40.9604 H         1 UNK         0.0600 
    169 H169       -1.5062  -15.7914  -42.4980 H         1 UNK         0.3000 
    170 H170       -1.2724  -19.3095  -43.1777 H         1 UNK         0.0600 
    171 H171       -3.6050  -18.8063  -42.4948 H         1 UNK         0.0600 
    172 H172       -3.5469  -17.2677  -43.3381 H         1 UNK         0.0600 
    173 H173       -3.4278  -18.7782  -44.2360 H         1 UNK         0.0600 
    174 H174       -1.3737  -16.6409  -44.4899 H         1 UNK         0.3000 
    175 H175        1.9783  -16.5992  -45.0770 H         1 UNK         0.0600 
    176 H176        0.3193  -17.5464  -47.4629 H         1 UNK         0.0600 
    177 H177        1.7688  -16.5457  -47.5693 H         1 UNK         0.0600 
    178 H178        1.8747  -18.1752  -46.9214 H         1 UNK         0.0600 
    179 H179       -0.3754  -15.3952  -46.3688 H         1 UNK         0.3000 
    180 H180       -0.7044  -12.8404  -43.9105 H         1 UNK         0.0600 
    181 H181        0.4725  -12.5471  -46.7271 H         1 UNK         0.0600 
    182 H182       -0.3222  -11.2762  -45.7962 H         1 UNK         0.0600 
    183 H183        1.2084  -11.9406  -45.2481 H         1 UNK         0.0600 
    184 H184       -1.9253  -13.1428  -46.4544 H         1 UNK         0.3000 
    185 H185       -4.1472  -15.7758  -45.7887 H         1 UNK         0.0600 
    186 H186       -5.9755  -14.1716  -46.2083 H         1 UNK         0.0600 
    187 H187       -5.3407  -13.9282  -44.5897 H         1 UNK         0.0600 
    188 H188       -4.9048  -12.8090  -45.8762 H         1 UNK         0.0600 
    189 H189       -4.2954  -14.1449  -47.9818 H         1 UNK         0.3000 
    190 H190       -0.2383  -22.2076  -44.6432 H         1 UNK         0.3000 
    191 H191       -3.0012  -21.5679  -45.0762 H         1 UNK         0.0600 
    192 H192       -3.3262  -22.6176  -42.8359 H         1 UNK         0.0600 
    193 H193       -1.9796  -21.4978  -42.8240 H         1 UNK         0.0600 
    194 H194       -1.6824  -23.2391  -42.8836 H         1 UNK         0.0600 
    195 H195       -1.1528  -24.4969  -45.5857 H         1 UNK         0.3000 
    196 H196       -3.2603  -26.4027  -45.7570 H         1 UNK         0.0600 
    197 H197       -1.5385  -27.7486  -46.9746 H         1 UNK         0.0600 
    198 H198       -0.8653  -27.0223  -45.5247 H         1 UNK         0.0600 
    199 H199       -0.5058  -26.3301  -47.1072 H         1 UNK         0.0600 
    200 H200       -2.3229  -23.8383  -47.9542 H         1 UNK         0.3000 
    201 H201       -3.5630  -25.0241  -50.3324 H         1 UNK         0.0600 
    202 H202       -1.4548  -23.6005  -50.3955 H         1 UNK         0.0600 
    203 H203       -2.4318  -22.2077  -49.9396 H         1 UNK         0.0600 
    204 H204       -2.7415  -23.0560  -51.4492 H         1 UNK         0.0600 
    205 H205       -5.4305  -25.1939  -48.5771 H         1 UNK         0.3000 
    206 H206       -7.5339  -24.8019  -47.9726 H         1 UNK         0.0600 
    207 H207       -7.9293  -24.9313  -50.4082 H         1 UNK         0.0600 
    208 H208       -9.0522  -23.7960  -49.6775 H         1 UNK         0.0600 
    209 H209       -7.6669  -23.1993  -50.5815 H         1 UNK         0.0600 
    210 H210       -6.0985  -23.4684  -46.3287 H         1 UNK         0.3000 
    211 H211       -5.9798  -21.8813  -44.8100 H         1 UNK         0.0600 
    212 H212       -8.6151  -20.7205  -45.8459 H         1 UNK         0.0600 
    213 H213       -7.8778  -20.4372  -44.2775 H         1 UNK         0.0600 
    214 H214       -8.4810  -22.0363  -44.6791 H         1 UNK         0.0600 
    215 H215       -4.7105  -21.6295  -47.3177 H         1 UNK         0.3000 
    216 H216       -3.4374  -20.3668  -48.5741 H         1 UNK         0.0600 
    217 H217       -3.6677  -18.0941  -46.5444 H         1 UNK         0.0600 
    218 H218       -2.3845  -18.3756  -47.7146 H         1 UNK         0.0600 
    219 H219       -2.5762  -19.4697  -46.3640 H         1 UNK         0.0600 
    220 H220       -6.1127  -20.5240  -49.2798 H         1 UNK         0.3000 
    221 H221       -6.8904  -17.9971  -50.5429 H         1 UNK         0.0600 
    222 H222       -7.7390  -20.8900  -51.0947 H         1 UNK         0.0600 
    223 H223       -8.6013  -19.7370  -50.0787 H         1 UNK         0.0600 
    224 H224       -8.4657  -19.4555  -51.8088 H         1 UNK         0.0600 
    225 H225       -5.1394  -20.9730  -51.3310 H         1 UNK         0.3000 
    226 H226       -3.6872  -21.6088  -52.8490 H         1 UNK         0.0600 
    227 H227       -2.4257  -19.8883  -51.4888 H         1 UNK         0.0600 
    228 H228       -1.7471  -20.1232  -53.0835 H         1 UNK         0.0600 
    229 H229       -2.7357  -18.7014  -52.7499 H         1 UNK         0.0600 
    230 H230       -2.3989  -19.7476  -54.8992 H         1 UNK         0.3000 
    231 H231       -4.2437  -19.2203  -56.9722 H         1 UNK         0.0600 
    232 H232       -2.5937  -21.8209  -57.2008 H         1 UNK         0.0600 
    233 H233       -4.3520  -21.7484  -57.1185 H         1 UNK         0.0600 
    234 H234       -3.5159  -21.0911  -58.5091 H         1 UNK         0.0600 
    235 H235       -2.7877  -18.9616  -59.0677 H         1 UNK         0.3000 
    236 H236       -0.4237  -17.3725  -58.4033 H         1 UNK         0.0600 
    237 H237       -2.0235  -16.5889  -60.1185 H         1 UNK         0.0600 
    238 H238       -0.4568  -16.8975  -60.8488 H         1 UNK         0.0600 
    239 H239       -1.7687  -18.0495  -61.0726 H         1 UNK         0.0600 
    240 H240        0.5207  -19.3968  -57.3704 H         1 UNK         0.3000 
    241 H241        1.5656  -21.4982  -58.9894 H         1 UNK         0.0600 
    242 H242        4.9738  -20.7258  -59.7650 H         1 UNK         0.3800 
    243 H243        3.8989  -22.0447  -59.4023 H         1 UNK         0.3800 
    244 H244        2.8735  -22.1384  -56.9662 H         1 UNK         0.0800 
    245 H245        1.1829  -21.9173  -56.6536 H         1 UNK         0.0800 
    246 H246        0.2244  -20.4649  -54.8386 H         1 UNK         0.0800 
    247 H247        1.2828  -21.5883  -54.0193 H         1 UNK         0.0800 
@<TRIPOS>BOND
     1    1    2 1    
     2    1  127 1    
     3    1  128 1    
     4    1  129 1    
     5    2    3 2    
     6    2    4 am   BACKBONE|DICT|INTERRES
     7    4    5 1    
     8    4  130 1    
     9    5    6 1    
    10    5   65 1    
    11    5  131 1    
    12    6    7 1    
    13    6  132 1    
    14    6  133 1    
    15    7    8 1    
    16    8    9 1    
    17    8  134 1    
    18    8  135 1    
    19    9   10 ar   
    20    9   14 ar   
    21   10   11 ar   
    22   10  136 1    
    23   11   12 ar   
    24   11  126 1    
    25   12   13 ar   
    26   12  137 1    
    27   13   14 ar   
    28   13   15 1    
    29   14  138 1    
    30   15   16 1    
    31   15  139 1    
    32   15  140 1    
    33   16   17 1    
    34   17   18 1    
    35   17  141 1    
    36   17  142 1    
    37   18   19 1    
    38   18   67 1    
    39   18  143 1    
    40   19   20 am   BACKBONE|DICT|INTERRES
    41   19  144 1    
    42   20   21 2    
    43   20   22 1    
    44   22   23 1    
    45   22   24 1    
    46   22  145 1    
    47   23  146 1    
    48   23  147 1    
    49   23  148 1    
    50   24   25 am   BACKBONE|DICT|INTERRES
    51   24  149 1    
    52   25   26 2    
    53   25   27 1    
    54   27   28 1    
    55   27   29 1    
    56   27  150 1    
    57   28  151 1    
    58   28  152 1    
    59   28  153 1    
    60   29   30 am   BACKBONE|DICT|INTERRES
    61   29  154 1    
    62   30   31 2    
    63   30   32 1    
    64   32   33 1    
    65   32   34 1    
    66   32  155 1    
    67   33  156 1    
    68   33  157 1    
    69   33  158 1    
    70   34   35 am   BACKBONE|DICT|INTERRES
    71   34  159 1    
    72   35   36 2    
    73   35   37 1    
    74   37   38 1    
    75   37   39 1    
    76   37  160 1    
    77   38  161 1    
    78   38  162 1    
    79   38  163 1    
    80   39   40 am   BACKBONE|DICT|INTERRES
    81   39  164 1    
    82   40   41 2    
    83   40   42 1    
    84   42   43 1    
    85   42   44 1    
    86   42  165 1    
    87   43  166 1    
    88   43  167 1    
    89   43  168 1    
    90   44   45 am   BACKBONE|DICT|INTERRES
    91   44  169 1    
    92   45   46 2    
    93   45   47 1    
    94   47   48 1    
    95   47   49 1    
    96   47  170 1    
    97   48  171 1    
    98   48  172 1    
    99   48  173 1    
   100   49   50 am   BACKBONE|DICT|INTERRES
   101   49  174 1    
   102   50   51 2    
   103   50   52 1    
   104   52   53 1    
   105   52   54 1    
   106   52  175 1    
   107   53  176 1    
   108   53  177 1    
   109   53  178 1    
   110   54   55 am   BACKBONE|DICT|INTERRES
   111   54  179 1    
   112   55   56 2    
   113   55   57 1    
   114   57   58 1    
   115   57   59 1    
   116   57  180 1    
   117   58  181 1    
   118   58  182 1    
   119   58  183 1    
   120   59   60 am   BACKBONE|DICT|INTERRES
   121   59  184 1    
   122   60   61 2    
   123   60   62 1    
   124   62   63 1    
   125   62   64 1    
   126   62  185 1    
   127   63  186 1    
   128   63  187 1    
   129   63  188 1    
   130   64   65 am   BACKBONE|DICT|INTERRES
   131   64  189 1    
   132   65   66 2    
   133   67   68 2    
   134   67   69 am   BACKBONE|DICT|INTERRES
   135   69   70 1    
   136   69  190 1    
   137   70   71 1    
   138   70   72 1    
   139   70  191 1    
   140   71  192 1    
   141   71  193 1    
   142   71  194 1    
   143   72   73 2    
   144   72   74 am   BACKBONE|DICT|INTERRES
   145   74   75 1    
   146   74  195 1    
   147   75   76 1    
   148   75   77 1    
   149   75  196 1    
   150   76  197 1    
   151   76  198 1    
   152   76  199 1    
   153   77   78 2    
   154   77   79 am   BACKBONE|DICT|INTERRES
   155   79   80 1    
   156   79  200 1    
   157   80   81 1    
   158   80   82 1    
   159   80  201 1    
   160   81  202 1    
   161   81  203 1    
   162   81  204 1    
   163   82   83 2    
   164   82   84 am   BACKBONE|DICT|INTERRES
   165   84   85 1    
   166   84  205 1    
   167   85   86 1    
   168   85   87 1    
   169   85  206 1    
   170   86  207 1    
   171   86  208 1    
   172   86  209 1    
   173   87   88 2    
   174   87   89 am   BACKBONE|DICT|INTERRES
   175   89   90 1    
   176   89  210 1    
   177   90   91 1    
   178   90   92 1    
   179   90  211 1    
   180   91  212 1    
   181   91  213 1    
   182   91  214 1    
   183   92   93 2    
   184   92   94 am   BACKBONE|DICT|INTERRES
   185   94   95 1    
   186   94  215 1    
   187   95   96 1    
   188   95   97 1    
   189   95  216 1    
   190   96  217 1    
   191   96  218 1    
   192   96  219 1    
   193   97   98 2    
   194   97   99 am   BACKBONE|DICT|INTERRES
   195   99  100 1    
   196   99  220 1    
   197  100  101 1    
   198  100  102 1    
   199  100  221 1    
   200  101  222 1    
   201  101  223 1    
   202  101  224 1    
   203  102  103 2    
   204  102  104 am   BACKBONE|DICT|INTERRES
   205  104  105 1    
   206  104  225 1    
   207  105  106 1    
   208  105  107 1    
   209  105  226 1    
   210  106  227 1    
   211  106  228 1    
   212  106  229 1    
   213  107  108 2    
   214  107  109 am   BACKBONE|DICT|INTERRES
   215  109  110 1    
   216  109  230 1    
   217  110  111 1    
   218  110  112 1    
   219  110  231 1    
   220  111  232 1    
   221  111  233 1    
   222  111  234 1    
   223  112  113 2    
   224  112  114 am   BACKBONE|DICT|INTERRES
   225  114  115 1    
   226  114  235 1    
   227  115  116 1    
   228  115  117 1    
   229  115  236 1    
   230  116  237 1    
   231  116  238 1    
   232  116  239 1    
   233  117  118 2    
   234  117  119 am   BACKBONE|DICT|INTERRES
   235  119  120 1    
   236  119  240 1    
   237  120  121 1    
   238  120  124 1    
   239  120  241 1    
   240  121  122 am   BACKBONE|DICT|INTERRES
   241  121  123 2    
   242  122  242 1    
   243  122  243 1    
   244  124  125 1    
   245  124  244 1    
   246  124  245 1    
   247  125  126 1    
   248  126  246 1    
   249  126  247 1    
@<TRIPOS>SUBSTRUCTURE
     1 UNK         1 GROUP             0       ****    0 ROOT    
