@<TRIPOS>MOLECULE
3R540
247   249    1
SMALL
USER_CHARGES


@<TRIPOS>ATOM
      1 CA          5.2860  -10.2855  -50.5016 C.3       0 UNK        -0.1800 
      2 C           4.8343  -11.6228  -49.9311 C.2       0 UNK         0.5000 
      3 O           5.5202  -12.6289  -50.1124 O.2       0 UNK        -0.5000 
      4 N           3.6880  -11.6358  -49.2433 N.am      1 UNK        -0.5000 
      5 CA          3.1164  -12.8155  -48.5912 C.3       1 UNK         0.1400 
      6 C6          2.4550  -13.7970  -49.5955 C.3       23 UNK        -0.0398 
      7 S7          1.8775  -15.3454  -48.8165 S.3       23 UNK        -0.2404 
      8 C8          0.5190  -15.8386  -49.9217 C.3       23 UNK        -0.0205 
      9 C9          0.9393  -16.9975  -50.8079 C.ar      23 UNK        -0.0193 
     10 C10         1.7658  -16.7783  -51.9130 C.ar      23 UNK        -0.1150 
     11 C11         2.1694  -17.8473  -52.7184 C.ar      23 UNK        -0.0193 
     12 C12         1.7388  -19.1408  -52.4098 C.ar      23 UNK        -0.1150 
     13 C13         0.9111  -19.3713  -51.3071 C.ar      23 UNK        -0.0193 
     14 C14         0.5085  -18.2938  -50.5141 C.ar      23 UNK        -0.1150 
     15 C15         0.4463  -20.7825  -50.9849 C.3       23 UNK        -0.0205 
     16 S16         1.6216  -21.6388  -49.8882 S.3       23 UNK        -0.2404 
     17 C17         1.0627  -21.0866  -48.2386 C.3       23 UNK        -0.0398 
     18 CA          0.2773  -22.1806  -47.4773 C.3       11 UNK         0.1400 
     19 N           0.1610  -21.8733  -46.0493 N.am      11 UNK        -0.5000 
     20 C          -0.3059  -22.7220  -45.1226 C.2       10 UNK         0.5000 
     21 O          -0.6523  -23.8763  -45.3657 O.2       10 UNK        -0.5000 
     22 CA         -0.4697  -22.1771  -43.6936 C.3       10 UNK         0.1400 
     23 CB          0.8784  -22.1462  -42.9593 C.3       10 UNK        -0.1800 
     24 N          -1.0901  -20.8520  -43.6694 N.am      10 UNK        -0.5000 
     25 C          -2.3304  -20.5953  -44.1108 C.2       9 UNK         0.5000 
     26 O          -3.0949  -21.4606  -44.5380 O.2       9 UNK        -0.5000 
     27 CA         -2.7826  -19.1247  -44.1133 C.3       9 UNK         0.1400 
     28 CB         -3.2564  -18.7010  -42.7153 C.3       9 UNK        -0.1800 
     29 N          -1.7425  -18.2080  -44.5799 N.am      9 UNK        -0.5000 
     30 C          -1.2056  -18.2135  -45.8095 C.2       8 UNK         0.5000 
     31 O          -1.5455  -18.9845  -46.7070 O.2       8 UNK        -0.5000 
     32 CA         -0.0460  -17.2311  -46.0543 C.3       8 UNK         0.1400 
     33 CB         -0.5643  -15.7895  -46.1829 C.3       8 UNK        -0.1800 
     34 N           0.9597  -17.3023  -44.9944 N.am      8 UNK        -0.5000 
     35 C           1.6595  -18.4016  -44.6775 C.2       7 UNK         0.5000 
     36 O           1.5868  -19.4646  -45.2944 O.2       7 UNK        -0.5000 
     37 CA          2.5457  -18.3150  -43.4244 C.3       7 UNK         0.1400 
     38 CB          3.9177  -17.7115  -43.7608 C.3       7 UNK        -0.1800 
     39 N           1.9031  -17.5379  -42.3637 N.am      7 UNK        -0.5000 
     40 C           0.8639  -17.9717  -41.6360 C.2       6 UNK         0.5000 
     41 O           0.3640  -19.0891  -41.7614 O.2       6 UNK        -0.5000 
     42 CA          0.2573  -16.9797  -40.6253 C.3       6 UNK         0.1400 
     43 CB          1.0583  -16.9835  -39.3149 C.3       6 UNK        -0.1800 
     44 N           0.1844  -15.6137  -41.1459 N.am      6 UNK        -0.5000 
     45 C          -0.6039  -15.2352  -42.1615 C.2       5 UNK         0.5000 
     46 O          -1.3917  -15.9911  -42.7285 O.2       5 UNK        -0.5000 
     47 CA         -0.4570  -13.7841  -42.6613 C.3       5 UNK         0.1400 
     48 CB         -1.4244  -12.8560  -41.9129 C.3       5 UNK        -0.1800 
     49 N           0.9008  -13.2372  -42.5716 N.am      5 UNK        -0.5000 
     50 C           1.9990  -13.7843  -43.1108 C.2       4 UNK         0.5000 
     51 O           2.0062  -14.8769  -43.6790 O.2       4 UNK        -0.5000 
     52 CA          3.2819  -12.9445  -43.0163 C.3       4 UNK         0.1400 
     53 CB          4.5184  -13.6840  -43.5585 C.3       4 UNK        -0.1800 
     54 N           3.0761  -11.7321  -43.7990 N.am      4 UNK        -0.5000 
     55 C           3.0149  -10.4839  -43.3189 C.2       3 UNK         0.5000 
     56 O           3.1912  -10.2000  -42.1338 O.2       3 UNK        -0.5000 
     57 CA          2.6882   -9.3583  -44.3240 C.3       3 UNK         0.1400 
     58 CB          3.9743   -8.6381  -44.7577 C.3       3 UNK        -0.1800 
     59 N           1.9864   -9.8297  -45.5201 N.am      3 UNK        -0.5000 
     60 C           0.7311  -10.2995  -45.5409 C.2       2 UNK         0.5000 
     61 O          -0.0121  -10.3008  -44.5592 O.2       2 UNK        -0.5000 
     62 CA          0.2278  -10.8956  -46.8730 C.3       2 UNK         0.1400 
     63 CB         -0.6299   -9.8685  -47.6275 C.3       2 UNK        -0.1800 
     64 N           1.2770  -11.3937  -47.7751 N.am      2 UNK        -0.5000 
     65 C           2.1591  -12.3616  -47.4746 C.2       1 UNK         0.5000 
     66 O           2.2624  -12.8580  -46.3545 O.2       1 UNK        -0.5000 
     67 C          -1.1007  -22.4582  -48.1171 C.2       11 UNK         0.5000 
     68 O          -1.2481  -23.4502  -48.8301 O.2       11 UNK        -0.5000 
     69 N          -2.0918  -21.6079  -47.8146 N.am      12 UNK        -0.5000 
     70 CA         -3.4769  -21.7372  -48.2714 C.3       12 UNK         0.1400 
     71 CB         -4.2678  -20.5050  -47.8034 C.3       12 UNK        -0.1800 
     72 C          -4.1511  -23.0465  -47.8129 C.2       12 UNK         0.5000 
     73 O          -4.8858  -23.6586  -48.5909 O.2       12 UNK        -0.5000 
     74 N          -3.8640  -23.4664  -46.5731 N.am      13 UNK        -0.5000 
     75 CA         -4.2858  -24.7489  -46.0145 C.3       13 UNK         0.1400 
     76 CB         -4.0996  -24.7322  -44.4899 C.3       13 UNK        -0.1800 
     77 C          -3.5380  -25.9363  -46.6485 C.2       13 UNK         0.5000 
     78 O          -4.1765  -26.9188  -47.0274 O.2       13 UNK        -0.5000 
     79 N          -2.2068  -25.8222  -46.7713 N.am      14 UNK        -0.5000 
     80 CA         -1.3228  -26.8430  -47.3437 C.3       14 UNK         0.1400 
     81 CB          0.1434  -26.4277  -47.1544 C.3       14 UNK        -0.1800 
     82 C          -1.6057  -27.1495  -48.8251 C.2       14 UNK         0.5000 
     83 O          -1.4238  -28.2917  -49.2505 O.2       14 UNK        -0.5000 
     84 N          -2.0866  -26.1490  -49.5745 N.am      15 UNK        -0.5000 
     85 CA         -2.5559  -26.2479  -50.9572 C.3       15 UNK         0.1400 
     86 CB         -2.6125  -24.8323  -51.5594 C.3       15 UNK        -0.1800 
     87 C          -3.9068  -26.9916  -51.0703 C.2       15 UNK         0.5000 
     88 O          -4.8800  -26.4346  -51.5802 O.2       15 UNK        -0.5000 
     89 N          -3.9489  -28.2322  -50.5617 N.am      16 UNK        -0.5000 
     90 CA         -5.0666  -29.1866  -50.5716 C.3       16 UNK         0.1400 
     91 CB         -5.2884  -29.7111  -52.0053 C.3       16 UNK        -0.1800 
     92 C          -6.3722  -28.6528  -49.9388 C.2       16 UNK         0.5000 
     93 O          -7.4570  -29.1148  -50.2969 O.2       16 UNK        -0.5000 
     94 N          -6.2467  -27.6673  -49.0365 N.am      17 UNK        -0.5000 
     95 CA         -7.3162  -26.8643  -48.4345 C.3       17 UNK         0.1400 
     96 CB         -8.1667  -27.7206  -47.4743 C.3       17 UNK        -0.1800 
     97 C          -8.1719  -26.0855  -49.4621 C.2       17 UNK         0.5000 
     98 O          -9.3036  -25.7101  -49.1516 O.2       17 UNK        -0.5000 
     99 N          -7.6242  -25.8393  -50.6625 N.am      18 UNK        -0.5000 
    100 CA        -8.2943  -25.1310  -51.7559 C.3       18 UNK         0.1400 
    101 CB        -7.6539  -25.5500  -53.0891 C.3       18 UNK        -0.1800 
    102 C         -8.2495  -23.5998  -51.5962 C.2       18 UNK         0.5000 
    103 O         -8.9460  -22.9003  -52.3326 O.2       18 UNK        -0.5000 
    104 N         -7.4267  -23.1115  -50.6555 N.am      19 UNK        -0.5000 
    105 CA        -7.1814  -21.7044  -50.3309 C.3       19 UNK         0.1400 
    106 CB        -8.4603  -21.0119  -49.8152 C.3       19 UNK        -0.1800 
    107 C         -6.4774  -20.9277  -51.4630 C.2       19 UNK         0.5000 
    108 O         -6.6686  -19.7173  -51.5937 O.2       19 UNK        -0.5000 
    109 N         -5.6685  -21.6386  -52.2600 N.am      20 UNK        -0.5000 
    110 CA        -4.8498  -21.0737  -53.3293 C.3       20 UNK         0.1400 
    111 CB        -4.3590  -22.2115  -54.2367 C.3       20 UNK        -0.1800 
    112 C         -3.6606  -20.2812  -52.7582 C.2       20 UNK         0.5000 
    113 O         -3.0575  -20.7065  -51.7708 O.2       20 UNK        -0.5000 
    114 N         -3.3336  -19.1612  -53.4059 N.am      21 UNK        -0.5000 
    115 CA        -2.2379  -18.2666  -53.0550 C.3       21 UNK         0.1400 
    116 CB        -2.6372  -17.3896  -51.8527 C.3       21 UNK        -0.1800 
    117 C         -1.8931  -17.4080  -54.2787 C.2       21 UNK         0.5000 
    118 O         -2.7192  -17.2793  -55.1872 O.2       21 UNK        -0.5000 
    119 N         -0.6880  -16.8288  -54.2765 N.am      22 UNK        -0.5000 
    120 CA        -0.1773  -15.9625  -55.3547 C.3       22 UNK         0.1400 
    121 C         -0.7928  -14.5311  -55.3903 C.2       22 UNK         0.5000 
    122 N         -1.5579  -14.1050  -54.3926 N.am      22 UNK        -0.7600 
    123 O         -0.5757  -13.7934  -56.3478 O.2       22 UNK        -0.5000 
    124 C124        1.3717  -15.8871  -55.3595 C.3       23 UNK        -0.0398 
    125 S125        2.1725  -17.5249  -55.4786 S.3       23 UNK        -0.2404 
    126 C126        3.0890  -17.6141  -53.9074 C.3       23 UNK        -0.0205 
    127 H127        6.2597  -10.0136  -50.0940 H         1 UNK         0.0600 
    128 H128        5.3757  -10.3516  -51.5858 H         1 UNK         0.0600 
    129 H129        4.5839   -9.4851  -50.2670 H         1 UNK         0.0600 
    130 H130        3.1939  -10.7678  -49.0951 H         1 UNK         0.3000 
    131 H131        3.9340  -13.3449  -48.0959 H         1 UNK         0.0600 
    132 H132        1.6259  -13.3033  -50.1039 H         1 UNK         0.0800 
    133 H133        3.1664  -14.0715  -50.3750 H         1 UNK         0.0800 
    134 H134       -0.3393  -16.1241  -49.3124 H         1 UNK         0.0800 
    135 H135        0.1833  -15.0036  -50.5373 H         1 UNK         0.0800 
    136 H136        2.1073  -15.7766  -52.1325 H         1 UNK         0.1150 
    137 H137        2.0532  -19.9708  -53.0272 H         1 UNK         0.1150 
    138 H138       -0.1395  -18.4622  -49.6659 H         1 UNK         0.1150 
    139 H139       -0.5490  -20.7652  -50.5380 H         1 UNK         0.0800 
    140 H140        0.3470  -21.3556  -51.9079 H         1 UNK         0.0800 
    141 H141        0.4832  -20.1666  -48.3081 H         1 UNK         0.0800 
    142 H142        1.9605  -20.8249  -47.6771 H         1 UNK         0.0800 
    143 H143        0.8547  -23.1049  -47.5435 H         1 UNK         0.0600 
    144 H144        0.4595  -20.9459  -45.7581 H         1 UNK         0.3000 
    145 H145       -1.1298  -22.8597  -43.1542 H         1 UNK         0.0600 
    146 H146        0.7556  -21.8334  -41.9224 H         1 UNK         0.0600 
    147 H147        1.3379  -23.1353  -42.9476 H         1 UNK         0.0600 
    148 H148        1.5824  -21.4641  -43.4347 H         1 UNK         0.0600 
    149 H149       -0.5387  -20.0965  -43.2762 H         1 UNK         0.3000 
    150 H150       -3.6292  -19.0383  -44.7967 H         1 UNK         0.0600 
    151 H151       -4.0391  -19.3664  -42.3487 H         1 UNK         0.0600 
    152 H152       -3.6678  -17.6916  -42.7285 H         1 UNK         0.0600 
    153 H153       -2.4415  -18.7199  -41.9908 H         1 UNK         0.0600 
    154 H154       -1.4277  -17.5093  -43.9121 H         1 UNK         0.3000 
    155 H155        0.4419  -17.5073  -46.9913 H         1 UNK         0.0600 
    156 H156       -1.2049  -15.6849  -47.0587 H         1 UNK         0.0600 
    157 H157        0.2556  -15.0786  -46.2886 H         1 UNK         0.0600 
    158 H158       -1.1524  -15.4895  -45.3174 H         1 UNK         0.0600 
    159 H159        1.1325  -16.4544  -44.4624 H         1 UNK         0.3000 
    160 H160        2.7080  -19.3294  -43.0547 H         1 UNK         0.0600 
    161 H161        4.5498  -17.6468  -42.8751 H         1 UNK         0.0600 
    162 H162        3.8303  -16.7117  -44.1858 H         1 UNK         0.0600 
    163 H163        4.4423  -18.3290  -44.4908 H         1 UNK         0.0600 
    164 H164        2.1900  -16.5722  -42.2791 H         1 UNK         0.3000 
    165 H165       -0.7590  -17.3125  -40.4036 H         1 UNK         0.0600 
    166 H166        0.5907  -16.3449  -38.5652 H         1 UNK         0.0600 
    167 H167        1.1137  -17.9888  -38.8950 H         1 UNK         0.0600 
    168 H168        2.0804  -16.6335  -39.4648 H         1 UNK         0.0600 
    169 H169        0.8045  -14.9308  -40.7367 H         1 UNK         0.3000 
    170 H170       -0.7324  -13.7750  -43.7172 H         1 UNK         0.0600 
    171 H171       -2.4498  -13.2217  -41.9822 H         1 UNK         0.0600 
    172 H172       -1.1723  -12.7809  -40.8545 H         1 UNK         0.0600 
    173 H173       -1.4107  -11.8506  -42.3348 H         1 UNK         0.0600 
    174 H174        0.9853  -12.3256  -42.1455 H         1 UNK         0.3000 
    175 H175        3.4531  -12.7140  -41.9631 H         1 UNK         0.0600 
    176 H176        5.4119  -13.0648  -43.4796 H         1 UNK         0.0600 
    177 H177        4.7050  -14.5984  -42.9943 H         1 UNK         0.0600 
    178 H178        4.3956  -13.9610  -44.6067 H         1 UNK         0.0600 
    179 H179        2.8419  -11.8970  -44.7743 H         1 UNK         0.3000 
    180 H180        2.0461   -8.6375  -43.8136 H         1 UNK         0.0600 
    181 H181        4.6514   -9.3085  -45.2888 H         1 UNK         0.0600 
    182 H182        4.5124   -8.2450  -43.8940 H         1 UNK         0.0600 
    183 H183        3.7534   -7.7946  -45.4121 H         1 UNK         0.0600 
    184 H184        2.5211   -9.8622  -46.3747 H         1 UNK         0.3000 
    185 H185       -0.4078  -11.7462  -46.6174 H         1 UNK         0.0600 
    186 H186       -1.0875  -10.3094  -48.5133 H         1 UNK         0.0600 
    187 H187       -1.4396   -9.4960  -46.9983 H         1 UNK         0.0600 
    188 H188       -0.0394   -9.0083  -47.9454 H         1 UNK         0.0600 
    189 H189        1.2355  -11.0487  -48.7226 H         1 UNK         0.3000 
    190 H190       -1.8815  -20.7906  -47.2474 H         1 UNK         0.3000 
    191 H191       -3.4665  -21.7446  -49.3624 H         1 UNK         0.0600 
    192 H192       -4.2301  -20.3936  -46.7208 H         1 UNK         0.0600 
    193 H193       -5.3183  -20.5614  -48.0792 H         1 UNK         0.0600 
    194 H194       -3.8665  -19.5932  -48.2463 H         1 UNK         0.0600 
    195 H195       -3.3040  -22.8684  -45.9737 H         1 UNK         0.3000 
    196 H196       -5.3505  -24.8756  -46.2200 H         1 UNK         0.0600 
    197 H197       -3.0572  -24.5767  -44.2106 H         1 UNK         0.0600 
    198 H198       -4.4227  -25.6748  -44.0463 H         1 UNK         0.0600 
    199 H199       -4.6880  -23.9372  -44.0313 H         1 UNK         0.0600 
    200 H200       -1.7485  -24.9939  -46.3989 H         1 UNK         0.3000 
    201 H201       -1.4869  -27.7665  -46.7850 H         1 UNK         0.0600 
    202 H202        0.3613  -25.4874  -47.6608 H         1 UNK         0.0600 
    203 H203        0.8198  -27.1824  -47.5576 H         1 UNK         0.0600 
    204 H204        0.3865  -26.3065  -46.0988 H         1 UNK         0.0600 
    205 H205       -2.1320  -25.2255  -49.1544 H         1 UNK         0.3000 
    206 H206       -1.8246  -26.8230  -51.5283 H         1 UNK         0.0600 
    207 H207       -1.6375  -24.3459  -51.5198 H         1 UNK         0.0600 
    208 H208       -2.9143  -24.8676  -52.6064 H         1 UNK         0.0600 
    209 H209       -3.3226  -24.1960  -51.0290 H         1 UNK         0.0600 
    210 H210       -3.0961  -28.5612  -50.1162 H         1 UNK         0.3000 
    211 H211       -4.7541  -30.0287  -49.9528 H         1 UNK         0.0600 
    212 H212       -5.6589  -28.9269  -52.6668 H         1 UNK         0.0600 
    213 H213       -6.0151  -30.5241  -52.0209 H         1 UNK         0.0600 
    214 H214       -4.3631  -30.0993  -52.4310 H         1 UNK         0.0600 
    215 H215       -5.3095  -27.3940  -48.7624 H         1 UNK         0.3000 
    216 H216       -6.8141  -26.1032  -47.8365 H         1 UNK         0.0600 
    217 H217       -7.5383  -28.2411  -46.7515 H         1 UNK         0.0600 
    218 H218       -8.8634  -27.1013  -46.9082 H         1 UNK         0.0600 
    219 H219       -8.7538  -28.4674  -48.0093 H         1 UNK         0.0600 
    220 H220       -6.6794  -26.1634  -50.8534 H         1 UNK         0.3000 
    221 H221       -9.3442  -25.4303  -51.7767 H         1 UNK         0.0600 
    222 H222       -6.6232  -25.2025  -53.1684 H         1 UNK         0.0600 
    223 H223       -7.6526  -26.6341  -53.2048 H         1 UNK         0.0600 
    224 H224       -8.2034  -25.1327  -53.9337 H         1 UNK         0.0600 
    225 H225       -6.8835  -23.7772  -50.1211 H         1 UNK         0.3000 
    226 H226       -6.4760  -21.7268  -49.5056 H         1 UNK         0.0600 
    227 H227       -8.9255  -21.5882  -49.0155 H         1 UNK         0.0600 
    228 H228       -8.2332  -20.0245  -49.4117 H         1 UNK         0.0600 
    229 H229       -9.1980  -20.8777  -50.6066 H         1 UNK         0.0600 
    230 H230       -5.5422  -22.6199  -52.0631 H         1 UNK         0.3000 
    231 H231       -5.4748  -20.4029  -53.9230 H         1 UNK         0.0600 
    232 H232       -5.1943  -22.7787  -54.6483 H         1 UNK         0.0600 
    233 H233       -3.7147  -22.9053  -53.6969 H         1 UNK         0.0600 
    234 H234       -3.7857  -21.8195  -55.0777 H         1 UNK         0.0600 
    235 H235       -3.8347  -18.8838  -54.2414 H         1 UNK         0.3000 
    236 H236       -1.3610  -18.8644  -52.8049 H         1 UNK         0.0600 
    237 H237       -1.8639  -16.6577  -51.6205 H         1 UNK         0.0600 
    238 H238       -3.5594  -16.8409  -52.0471 H         1 UNK         0.0600 
    239 H239       -2.7888  -17.9921  -50.9568 H         1 UNK         0.0600 
    240 H240       -0.0545  -16.9981  -53.5076 H         1 UNK         0.3000 
    241 H241       -0.4716  -16.4241  -56.2994 H         1 UNK         0.0600 
    242 H242       -1.9534  -13.1787  -54.4330 H         1 UNK         0.3800 
    243 H243       -1.7557  -14.7007  -53.6060 H         1 UNK         0.3800 
    244 H244        1.7171  -15.3024  -56.2140 H         1 UNK         0.0800 
    245 H245        1.7300  -15.3580  -54.4761 H         1 UNK         0.0800 
    246 H246        3.8099  -18.4306  -53.9702 H         1 UNK         0.0800 
    247 H247        3.6770  -16.7052  -53.7703 H         1 UNK         0.0800 
@<TRIPOS>BOND
     1    1    2 1    
     2    1  127 1    
     3    1  128 1    
     4    1  129 1    
     5    2    3 2    
     6    2    4 am   BACKBONE|DICT|INTERRES
     7    4    5 1    
     8    4  130 1    
     9    5    6 1    
    10    5   65 1    
    11    5  131 1    
    12    6    7 1    
    13    6  132 1    
    14    6  133 1    
    15    7    8 1    
    16    8    9 1    
    17    8  134 1    
    18    8  135 1    
    19    9   10 ar   
    20    9   14 ar   
    21   10   11 ar   
    22   10  136 1    
    23   11   12 ar   
    24   11  126 1    
    25   12   13 ar   
    26   12  137 1    
    27   13   14 ar   
    28   13   15 1    
    29   14  138 1    
    30   15   16 1    
    31   15  139 1    
    32   15  140 1    
    33   16   17 1    
    34   17   18 1    
    35   17  141 1    
    36   17  142 1    
    37   18   19 1    
    38   18   67 1    
    39   18  143 1    
    40   19   20 am   BACKBONE|DICT|INTERRES
    41   19  144 1    
    42   20   21 2    
    43   20   22 1    
    44   22   23 1    
    45   22   24 1    
    46   22  145 1    
    47   23  146 1    
    48   23  147 1    
    49   23  148 1    
    50   24   25 am   BACKBONE|DICT|INTERRES
    51   24  149 1    
    52   25   26 2    
    53   25   27 1    
    54   27   28 1    
    55   27   29 1    
    56   27  150 1    
    57   28  151 1    
    58   28  152 1    
    59   28  153 1    
    60   29   30 am   BACKBONE|DICT|INTERRES
    61   29  154 1    
    62   30   31 2    
    63   30   32 1    
    64   32   33 1    
    65   32   34 1    
    66   32  155 1    
    67   33  156 1    
    68   33  157 1    
    69   33  158 1    
    70   34   35 am   BACKBONE|DICT|INTERRES
    71   34  159 1    
    72   35   36 2    
    73   35   37 1    
    74   37   38 1    
    75   37   39 1    
    76   37  160 1    
    77   38  161 1    
    78   38  162 1    
    79   38  163 1    
    80   39   40 am   BACKBONE|DICT|INTERRES
    81   39  164 1    
    82   40   41 2    
    83   40   42 1    
    84   42   43 1    
    85   42   44 1    
    86   42  165 1    
    87   43  166 1    
    88   43  167 1    
    89   43  168 1    
    90   44   45 am   BACKBONE|DICT|INTERRES
    91   44  169 1    
    92   45   46 2    
    93   45   47 1    
    94   47   48 1    
    95   47   49 1    
    96   47  170 1    
    97   48  171 1    
    98   48  172 1    
    99   48  173 1    
   100   49   50 am   BACKBONE|DICT|INTERRES
   101   49  174 1    
   102   50   51 2    
   103   50   52 1    
   104   52   53 1    
   105   52   54 1    
   106   52  175 1    
   107   53  176 1    
   108   53  177 1    
   109   53  178 1    
   110   54   55 am   BACKBONE|DICT|INTERRES
   111   54  179 1    
   112   55   56 2    
   113   55   57 1    
   114   57   58 1    
   115   57   59 1    
   116   57  180 1    
   117   58  181 1    
   118   58  182 1    
   119   58  183 1    
   120   59   60 am   BACKBONE|DICT|INTERRES
   121   59  184 1    
   122   60   61 2    
   123   60   62 1    
   124   62   63 1    
   125   62   64 1    
   126   62  185 1    
   127   63  186 1    
   128   63  187 1    
   129   63  188 1    
   130   64   65 am   BACKBONE|DICT|INTERRES
   131   64  189 1    
   132   65   66 2    
   133   67   68 2    
   134   67   69 am   BACKBONE|DICT|INTERRES
   135   69   70 1    
   136   69  190 1    
   137   70   71 1    
   138   70   72 1    
   139   70  191 1    
   140   71  192 1    
   141   71  193 1    
   142   71  194 1    
   143   72   73 2    
   144   72   74 am   BACKBONE|DICT|INTERRES
   145   74   75 1    
   146   74  195 1    
   147   75   76 1    
   148   75   77 1    
   149   75  196 1    
   150   76  197 1    
   151   76  198 1    
   152   76  199 1    
   153   77   78 2    
   154   77   79 am   BACKBONE|DICT|INTERRES
   155   79   80 1    
   156   79  200 1    
   157   80   81 1    
   158   80   82 1    
   159   80  201 1    
   160   81  202 1    
   161   81  203 1    
   162   81  204 1    
   163   82   83 2    
   164   82   84 am   BACKBONE|DICT|INTERRES
   165   84   85 1    
   166   84  205 1    
   167   85   86 1    
   168   85   87 1    
   169   85  206 1    
   170   86  207 1    
   171   86  208 1    
   172   86  209 1    
   173   87   88 2    
   174   87   89 am   BACKBONE|DICT|INTERRES
   175   89   90 1    
   176   89  210 1    
   177   90   91 1    
   178   90   92 1    
   179   90  211 1    
   180   91  212 1    
   181   91  213 1    
   182   91  214 1    
   183   92   93 2    
   184   92   94 am   BACKBONE|DICT|INTERRES
   185   94   95 1    
   186   94  215 1    
   187   95   96 1    
   188   95   97 1    
   189   95  216 1    
   190   96  217 1    
   191   96  218 1    
   192   96  219 1    
   193   97   98 2    
   194   97   99 am   BACKBONE|DICT|INTERRES
   195   99  100 1    
   196   99  220 1    
   197  100  101 1    
   198  100  102 1    
   199  100  221 1    
   200  101  222 1    
   201  101  223 1    
   202  101  224 1    
   203  102  103 2    
   204  102  104 am   BACKBONE|DICT|INTERRES
   205  104  105 1    
   206  104  225 1    
   207  105  106 1    
   208  105  107 1    
   209  105  226 1    
   210  106  227 1    
   211  106  228 1    
   212  106  229 1    
   213  107  108 2    
   214  107  109 am   BACKBONE|DICT|INTERRES
   215  109  110 1    
   216  109  230 1    
   217  110  111 1    
   218  110  112 1    
   219  110  231 1    
   220  111  232 1    
   221  111  233 1    
   222  111  234 1    
   223  112  113 2    
   224  112  114 am   BACKBONE|DICT|INTERRES
   225  114  115 1    
   226  114  235 1    
   227  115  116 1    
   228  115  117 1    
   229  115  236 1    
   230  116  237 1    
   231  116  238 1    
   232  116  239 1    
   233  117  118 2    
   234  117  119 am   BACKBONE|DICT|INTERRES
   235  119  120 1    
   236  119  240 1    
   237  120  121 1    
   238  120  124 1    
   239  120  241 1    
   240  121  122 am   BACKBONE|DICT|INTERRES
   241  121  123 2    
   242  122  242 1    
   243  122  243 1    
   244  124  125 1    
   245  124  244 1    
   246  124  245 1    
   247  125  126 1    
   248  126  246 1    
   249  126  247 1    
@<TRIPOS>SUBSTRUCTURE
     1 UNK         1 GROUP             0       ****    0 ROOT    
