@<TRIPOS>MOLECULE
3R540
247   249    1
SMALL
USER_CHARGES


@<TRIPOS>ATOM
      1 CA          1.9669  -11.1481  -43.6757 C.3       0 UNK        -0.1800 
      2 C           3.1702  -11.2458  -44.6018 C.2       0 UNK         0.5000 
      3 O           4.3017  -11.0404  -44.1632 O.2       0 UNK        -0.5000 
      4 N           2.9360  -11.5749  -45.8790 N.am      1 UNK        -0.5000 
      5 CA          3.9540  -11.6811  -46.9360 C.3       1 UNK         0.1400 
      6 C6          3.3098  -11.7805  -48.3405 C.3       23 UNK        -0.0398 
      7 S7          2.1939  -13.2145  -48.5490 S.3       23 UNK        -0.2404 
      8 C8          2.7088  -13.8050  -50.1905 C.3       23 UNK        -0.0205 
      9 C9          1.8972  -15.0166  -50.6177 C.ar      23 UNK        -0.0193 
     10 C10         0.5827  -14.8566  -51.0667 C.ar      23 UNK        -0.1150 
     11 C11        -0.1837  -15.9621  -51.4477 C.ar      23 UNK        -0.0193 
     12 C12         0.3848  -17.2390  -51.3672 C.ar      23 UNK        -0.1150 
     13 C13         1.7020  -17.4134  -50.9344 C.ar      23 UNK        -0.0193 
     14 C14         2.4559  -16.2962  -50.5644 C.ar      23 UNK        -0.1150 
     15 C15         2.3017  -18.8128  -50.8813 C.3       23 UNK        -0.0205 
     16 S16         2.9339  -19.2862  -49.2366 S.3       23 UNK        -0.2404 
     17 C17         1.5515  -18.8923  -48.1132 C.3       23 UNK        -0.0398 
     18 CA          0.4781  -20.0097  -48.0209 C.3       11 UNK         0.1400 
     19 N          -0.0305  -20.1713  -46.6554 N.am      11 UNK        -0.5000 
     20 C          -0.8744  -21.1305  -46.2497 C.2       10 UNK         0.5000 
     21 O          -1.2743  -22.0404  -46.9749 O.2       10 UNK        -0.5000 
     22 CA         -1.4049  -21.0234  -44.8073 C.3       10 UNK         0.1400 
     23 CB         -0.4047  -21.6164  -43.8040 C.3       10 UNK        -0.1800 
     24 N          -1.7302  -19.6456  -44.4316 N.am      10 UNK        -0.5000 
     25 C          -2.6952  -18.9171  -45.0121 C.2       9 UNK         0.5000 
     26 O          -3.4488  -19.3552  -45.8809 O.2       9 UNK        -0.5000 
     27 CA         -2.8073  -17.4402  -44.5929 C.3       9 UNK         0.1400 
     28 CB         -3.5690  -17.3044  -43.2664 C.3       9 UNK        -0.1800 
     29 N          -1.5043  -16.7823  -44.4864 N.am      9 UNK        -0.5000 
     30 C          -0.6540  -16.6060  -45.5082 C.2       8 UNK         0.5000 
     31 O          -0.8999  -16.9370  -46.6670 O.2       8 UNK        -0.5000 
     32 CA          0.7293  -16.0233  -45.1702 C.3       8 UNK         0.1400 
     33 CB          0.6745  -14.4947  -45.0414 C.3       8 UNK        -0.1800 
     34 N           1.2934  -16.6001  -43.9498 N.am      8 UNK        -0.5000 
     35 C           1.6142  -17.8937  -43.8010 C.2       7 UNK         0.5000 
     36 O           1.4886  -18.7353  -44.6877 O.2       7 UNK        -0.5000 
     37 CA          2.1106  -18.3323  -42.4149 C.3       7 UNK         0.1400 
     38 CB          3.5938  -17.9840  -42.2216 C.3       7 UNK        -0.1800 
     39 N           1.3122  -17.7391  -41.3443 N.am      7 UNK        -0.5000 
     40 C           0.0285  -18.0449  -41.1064 C.2       6 UNK         0.5000 
     41 O          -0.6020  -18.8955  -41.7349 O.2       6 UNK        -0.5000 
     42 CA         -0.6786  -17.2264  -40.0118 C.3       6 UNK         0.1400 
     43 CB         -0.3904  -17.8139  -38.6223 C.3       6 UNK        -0.1800 
     44 N          -0.2897  -15.8151  -40.0345 N.am      6 UNK        -0.5000 
     45 C          -0.5866  -14.9663  -41.0287 C.2       5 UNK         0.5000 
     46 O          -1.2450  -15.2769  -42.0203 O.2       5 UNK        -0.5000 
     47 CA         -0.0067  -13.5460  -40.9178 C.3       5 UNK         0.1400 
     48 CB         -0.9110  -12.6544  -40.0544 C.3       5 UNK        -0.1800 
     49 N           1.3569  -13.5266  -40.3814 N.am      5 UNK        -0.5000 
     50 C           2.4189  -14.0421  -41.0117 C.2       4 UNK         0.5000 
     51 O           2.3568  -14.6252  -42.0979 O.2       4 UNK        -0.5000 
     52 CA          3.7758  -13.8859  -40.3192 C.3       4 UNK         0.1400 
     53 CB          4.1216  -15.1282  -39.4805 C.3       4 UNK        -0.1800 
     54 N           4.7719  -13.6719  -41.3596 N.am      4 UNK        -0.5000 
     55 C           5.9606  -13.0806  -41.2058 C.2       3 UNK         0.5000 
     56 O           6.4043  -12.7301  -40.1110 O.2       3 UNK        -0.5000 
     57 CA          6.7690  -12.7757  -42.4844 C.3       3 UNK         0.1400 
     58 CB          8.2680  -13.1126  -42.3379 C.3       3 UNK        -0.1800 
     59 N           6.1892  -13.3390  -43.7118 N.am      3 UNK        -0.5000 
     60 C           6.2053  -14.6108  -44.1422 C.2       2 UNK         0.5000 
     61 O           6.7515  -15.5296  -43.5319 O.2       2 UNK        -0.5000 
     62 CA          5.4659  -14.9204  -45.4649 C.3       2 UNK         0.1400 
     63 CB          4.5902  -16.1753  -45.3347 C.3       2 UNK        -0.1800 
     64 N           4.6136  -13.8157  -45.9076 N.am      2 UNK        -0.5000 
     65 C           4.9928  -12.8019  -46.6963 C.2       1 UNK         0.5000 
     66 O           6.1147  -12.7079  -47.1949 O.2       1 UNK        -0.5000 
     67 C          -0.6689  -19.7689  -49.0251 C.2       11 UNK         0.5000 
     68 O          -0.7211  -20.4319  -50.0606 O.2       11 UNK        -0.5000 
     69 N          -1.5827  -18.8508  -48.6772 N.am      12 UNK        -0.5000 
     70 CA         -2.7592  -18.4911  -49.4669 C.3       12 UNK         0.1400 
     71 CB         -3.4375  -17.2619  -48.8438 C.3       12 UNK        -0.1800 
     72 C          -3.7671  -19.6409  -49.6255 C.2       12 UNK         0.5000 
     73 O          -4.3416  -19.7871  -50.7046 O.2       12 UNK        -0.5000 
     74 N          -3.9556  -20.4315  -48.5598 N.am      13 UNK        -0.5000 
     75 CA         -4.7930  -21.6321  -48.5487 C.3       13 UNK         0.1400 
     76 CB         -5.0705  -22.0394  -47.0938 C.3       13 UNK        -0.1800 
     77 C          -4.1706  -22.8093  -49.3224 C.2       13 UNK         0.5000 
     78 O          -4.9124  -23.6532  -49.8261 O.2       13 UNK        -0.5000 
     79 N          -2.8320  -22.8465  -49.3922 N.am      14 UNK        -0.5000 
     80 CA         -1.9906  -23.8158  -50.0948 C.3       14 UNK         0.1400 
     81 CB         -2.0953  -23.6021  -51.6184 C.3       14 UNK        -0.1800 
     82 C          -2.2771  -25.2631  -49.6484 C.2       14 UNK         0.5000 
     83 O          -1.8592  -25.6535  -48.5576 O.2       14 UNK        -0.5000 
     84 N          -2.9974  -26.0246  -50.4817 N.am      15 UNK        -0.5000 
     85 CA         -3.4316  -27.3961  -50.2141 C.3       15 UNK         0.1400 
     86 CB         -3.8345  -28.0372  -51.5518 C.3       15 UNK        -0.1800 
     87 C          -4.5953  -27.5025  -49.2041 C.2       15 UNK         0.5000 
     88 O          -4.9581  -28.6217  -48.8403 O.2       15 UNK        -0.5000 
     89 N          -5.1809  -26.3609  -48.8056 N.am      16 UNK        -0.5000 
     90 CA         -6.4369  -26.2185  -48.0574 C.3       16 UNK         0.1400 
     91 CB         -6.3570  -26.8648  -46.6586 C.3       16 UNK        -0.1800 
     92 C          -7.6320  -26.7015  -48.9044 C.2       16 UNK         0.5000 
     93 O          -8.5175  -27.4072  -48.4181 O.2       16 UNK        -0.5000 
     94 N          -7.5994  -26.3113  -50.1806 N.am      17 UNK        -0.5000 
     95 CA         -8.5238  -26.6461  -51.2536 C.3       17 UNK         0.1400 
     96 CB         -8.2632  -28.0887  -51.7337 C.3       17 UNK        -0.1800 
     97 C          -8.2966  -25.6158  -52.3734 C.2       17 UNK         0.5000 
     98 O          -7.5172  -24.6787  -52.1893 O.2       17 UNK        -0.5000 
     99 N          -8.9530  -25.8003  -53.5252 N.am      18 UNK        -0.5000 
    100 CA        -8.7788  -24.9461  -54.7061 C.3       18 UNK         0.1400 
    101 CB        -9.8810  -25.2721  -55.7255 C.3       18 UNK        -0.1800 
    102 C         -7.3855  -25.0695  -55.3612 C.2       18 UNK         0.5000 
    103 O         -6.9485  -24.1349  -56.0338 O.2       18 UNK        -0.5000 
    104 N         -6.7226  -26.2181  -55.1636 N.am      19 UNK        -0.5000 
    105 CA        -5.4031  -26.5478  -55.6984 C.3       19 UNK         0.1400 
    106 CB        -5.0815  -28.0146  -55.3700 C.3       19 UNK        -0.1800 
    107 C         -4.3021  -25.6056  -55.1743 C.2       19 UNK         0.5000 
    108 O         -3.9889  -25.6333  -53.9826 O.2       19 UNK        -0.5000 
    109 N         -3.7495  -24.7938  -56.0877 N.am      20 UNK        -0.5000 
    110 CA        -2.6377  -23.8478  -55.9116 C.3       20 UNK         0.1400 
    111 CB        -1.3460  -24.6005  -55.5281 C.3       20 UNK        -0.1800 
    112 C         -2.9151  -22.6605  -54.9616 C.2       20 UNK         0.5000 
    113 O         -1.9934  -21.8942  -54.6766 O.2       20 UNK        -0.5000 
    114 N         -4.1596  -22.5130  -54.4929 N.am      21 UNK        -0.5000 
    115 CA        -4.5805  -21.4624  -53.5697 C.3       21 UNK         0.1400 
    116 CB        -5.8916  -21.8964  -52.9016 C.3       21 UNK        -0.1800 
    117 C         -4.7477  -20.1024  -54.2687 C.2       21 UNK         0.5000 
    118 O         -4.9993  -20.0492  -55.4758 O.2       21 UNK        -0.5000 
    119 N         -4.6397  -19.0284  -53.4803 N.am      22 UNK        -0.5000 
    120 CA        -4.8278  -17.6371  -53.9294 C.3       22 UNK         0.1400 
    121 C         -6.3186  -17.1964  -54.0278 C.2       22 UNK         0.5000 
    122 N         -7.2828  -17.9840  -53.5662 N.am      22 UNK        -0.7600 
    123 O         -6.6081  -16.1200  -54.5432 O.2       22 UNK        -0.5000 
    124 C124       -4.0146  -16.6357  -53.0697 C.3       23 UNK        -0.0398 
    125 S125       -2.2197  -16.9477  -53.1374 S.3       23 UNK        -0.2404 
    126 C126       -1.6304  -15.7502  -51.8918 C.3       23 UNK        -0.0205 
    127 H127        1.7925  -10.1088  -43.3981 H         1 UNK         0.0600 
    128 H128        2.1477  -11.7167  -42.7652 H         1 UNK         0.0600 
    129 H129        1.0613  -11.5346  -44.1436 H         1 UNK         0.0600 
    130 H130        1.9867  -11.7404  -46.1827 H         1 UNK         0.3000 
    131 H131        4.5180  -10.7460  -46.9131 H         1 UNK         0.0600 
    132 H132        2.7296  -10.8781  -48.5377 H         1 UNK         0.0800 
    133 H133        4.0863  -11.7972  -49.1075 H         1 UNK         0.0800 
    134 H134        3.7731  -14.0456  -50.1717 H         1 UNK         0.0800 
    135 H135        2.5822  -13.0052  -50.9218 H         1 UNK         0.0800 
    136 H136        0.1522  -13.8655  -51.1032 H         1 UNK         0.1150 
    137 H137       -0.1980  -18.1068  -51.6407 H         1 UNK         0.1150 
    138 H138        3.4732  -16.4275  -50.2229 H         1 UNK         0.1150 
    139 H139        1.5742  -19.5591  -51.2029 H         1 UNK         0.0800 
    140 H140        3.1225  -18.8669  -51.5975 H         1 UNK         0.0800 
    141 H141        1.1221  -17.9170  -48.3486 H         1 UNK         0.0800 
    142 H142        2.0256  -18.7537  -47.1431 H         1 UNK         0.0800 
    143 H143        0.9436  -20.9629  -48.2806 H         1 UNK         0.0600 
    144 H144        0.2971  -19.4977  -45.9683 H         1 UNK         0.3000 
    145 H145       -2.3249  -21.6087  -44.7500 H         1 UNK         0.0600 
    146 H146       -0.8078  -21.6014  -42.7912 H         1 UNK         0.0600 
    147 H147       -0.1768  -22.6545  -44.0487 H         1 UNK         0.0600 
    148 H148        0.5365  -21.0672  -43.7961 H         1 UNK         0.0600 
    149 H149       -1.1759  -19.2298  -43.6906 H         1 UNK         0.3000 
    150 H150       -3.3778  -16.9200  -45.3648 H         1 UNK         0.0600 
    151 H151       -4.5504  -17.7759  -43.3293 H         1 UNK         0.0600 
    152 H152       -3.7272  -16.2569  -43.0092 H         1 UNK         0.0600 
    153 H153       -3.0309  -17.7729  -42.4421 H         1 UNK         0.0600 
    154 H154       -1.2473  -16.4292  -43.5689 H         1 UNK         0.3000 
    155 H155        1.4020  -16.2677  -45.9951 H         1 UNK         0.0600 
    156 H156        0.0089  -14.1805  -44.2375 H         1 UNK         0.0600 
    157 H157        0.3154  -14.0387  -45.9648 H         1 UNK         0.0600 
    158 H158        1.6621  -14.0847  -44.8354 H         1 UNK         0.0600 
    159 H159        1.4687  -15.9595  -43.1813 H         1 UNK         0.3000 
    160 H160        2.0086  -19.4179  -42.3521 H         1 UNK         0.0600 
    161 H161        3.7712  -16.9101  -42.2736 H         1 UNK         0.0600 
    162 H162        4.2059  -18.4518  -42.9936 H         1 UNK         0.0600 
    163 H163        3.9603  -18.3393  -41.2585 H         1 UNK         0.0600 
    164 H164        1.7421  -17.0012  -40.8083 H         1 UNK         0.3000 
    165 H165       -1.7540  -17.2866  -40.1927 H         1 UNK         0.0600 
    166 H166       -0.9466  -17.2852  -37.8480 H         1 UNK         0.0600 
    167 H167       -0.6857  -18.8629  -38.5741 H         1 UNK         0.0600 
    168 H168        0.6697  -17.7592  -38.3715 H         1 UNK         0.0600 
    169 H169        0.2565  -15.4762  -39.2564 H         1 UNK         0.3000 
    170 H170        0.0220  -13.1236  -41.9244 H         1 UNK         0.0600 
    171 H171       -1.9300  -12.6394  -40.4436 H         1 UNK         0.0600 
    172 H172       -0.9586  -13.0049  -39.0226 H         1 UNK         0.0600 
    173 H173       -0.5540  -11.6244  -40.0436 H         1 UNK         0.0600 
    174 H174        1.4857  -13.0638  -39.4929 H         1 UNK         0.3000 
    175 H175        3.7401  -13.0069  -39.6722 H         1 UNK         0.0600 
    176 H176        4.2159  -16.0201  -40.0989 H         1 UNK         0.0600 
    177 H177        5.0632  -14.9944  -38.9480 H         1 UNK         0.0600 
    178 H178        3.3524  -15.3239  -38.7325 H         1 UNK         0.0600 
    179 H179        4.4602  -13.9181  -42.2897 H         1 UNK         0.3000 
    180 H180        6.7004  -11.6946  -42.6136 H         1 UNK         0.0600 
    181 H181        8.4287  -14.1609  -42.0860 H         1 UNK         0.0600 
    182 H182        8.7235  -12.5188  -41.5448 H         1 UNK         0.0600 
    183 H183        8.8139  -12.8974  -43.2564 H         1 UNK         0.0600 
    184 H184        5.6667  -12.6666  -44.2620 H         1 UNK         0.3000 
    185 H185        6.2275  -15.1180  -46.2218 H         1 UNK         0.0600 
    186 H186        5.1875  -17.0547  -45.0912 H         1 UNK         0.0600 
    187 H187        3.8528  -16.0485  -44.5448 H         1 UNK         0.0600 
    188 H188        4.0594  -16.3910  -46.2624 H         1 UNK         0.0600 
    189 H189        3.6729  -13.7993  -45.5434 H         1 UNK         0.3000 
    190 H190       -1.4326  -18.3137  -47.8262 H         1 UNK         0.3000 
    191 H191       -2.4116  -18.2250  -50.4649 H         1 UNK         0.0600 
    192 H192       -3.8237  -17.4778  -47.8476 H         1 UNK         0.0600 
    193 H193       -4.2759  -16.9261  -49.4548 H         1 UNK         0.0600 
    194 H194       -2.7418  -16.4276  -48.7541 H         1 UNK         0.0600 
    195 H195       -3.5051  -20.1819  -47.6843 H         1 UNK         0.3000 
    196 H196       -5.7454  -21.3907  -49.0252 H         1 UNK         0.0600 
    197 H197       -5.7161  -22.9170  -47.0479 H         1 UNK         0.0600 
    198 H198       -5.5709  -21.2384  -46.5491 H         1 UNK         0.0600 
    199 H199       -4.1491  -22.2799  -46.5622 H         1 UNK         0.0600 
    200 H200       -2.3211  -22.1539  -48.8576 H         1 UNK         0.3000 
    201 H201       -0.9624  -23.5985  -49.8015 H         1 UNK         0.0600 
    202 H202       -1.7695  -22.5975  -51.8889 H         1 UNK         0.0600 
    203 H203       -3.1147  -23.7266  -51.9848 H         1 UNK         0.0600 
    204 H204       -1.4587  -24.3024  -52.1598 H         1 UNK         0.0600 
    205 H205       -3.3203  -25.6164  -51.3495 H         1 UNK         0.3000 
    206 H206       -2.5877  -27.9542  -49.8037 H         1 UNK         0.0600 
    207 H207       -4.6947  -27.5294  -51.9899 H         1 UNK         0.0600 
    208 H208       -3.0188  -27.9971  -52.2742 H         1 UNK         0.0600 
    209 H209       -4.1030  -29.0865  -51.4231 H         1 UNK         0.0600 
    210 H210       -4.8253  -25.4938  -49.1989 H         1 UNK         0.3000 
    211 H211       -6.5817  -25.1473  -47.9118 H         1 UNK         0.0600 
    212 H212       -6.3057  -27.9524  -46.7097 H         1 UNK         0.0600 
    213 H213       -7.2364  -26.6111  -46.0658 H         1 UNK         0.0600 
    214 H214       -5.4831  -26.5116  -46.1112 H         1 UNK         0.0600 
    215 H215       -6.8797  -25.6597  -50.4751 H         1 UNK         0.3000 
    216 H216       -9.5494  -26.5474  -50.8935 H         1 UNK         0.0600 
    217 H217       -8.9702  -28.3864  -52.5082 H         1 UNK         0.0600 
    218 H218       -8.3691  -28.8035  -50.9175 H         1 UNK         0.0600 
    219 H219       -7.2575  -28.1996  -52.1414 H         1 UNK         0.0600 
    220 H220       -9.5899  -26.5786  -53.6166 H         1 UNK         0.3000 
    221 H221       -8.9005  -23.9061  -54.3951 H         1 UNK         0.0600 
    222 H222       -9.8240  -26.3078  -56.0629 H         1 UNK         0.0600 
    223 H223      -10.8720  -25.1100  -55.3011 H         1 UNK         0.0600 
    224 H224       -9.7988  -24.6348  -56.6071 H         1 UNK         0.0600 
    225 H225       -7.1537  -26.9149  -54.5761 H         1 UNK         0.3000 
    226 H226       -5.4554  -26.4562  -56.7853 H         1 UNK         0.0600 
    227 H227       -5.8023  -28.6894  -55.8320 H         1 UNK         0.0600 
    228 H228       -4.0939  -28.2907  -55.7418 H         1 UNK         0.0600 
    229 H229       -5.0909  -28.2003  -54.2959 H         1 UNK         0.0600 
    230 H230       -4.1294  -24.8228  -57.0239 H         1 UNK         0.3000 
    231 H231       -2.4732  -23.4013  -56.8932 H         1 UNK         0.0600 
    232 H232       -1.1305  -25.4000  -56.2368 H         1 UNK         0.0600 
    233 H233       -1.4145  -25.0434  -54.5345 H         1 UNK         0.0600 
    234 H234       -0.4850  -23.9312  -55.5267 H         1 UNK         0.0600 
    235 H235       -4.8723  -23.1561  -54.8071 H         1 UNK         0.3000 
    236 H236       -3.8175  -21.3590  -52.7956 H         1 UNK         0.0600 
    237 H237       -6.2547  -21.1398  -52.2055 H         1 UNK         0.0600 
    238 H238       -6.6793  -22.0828  -53.6327 H         1 UNK         0.0600 
    239 H239       -5.7399  -22.8096  -52.3277 H         1 UNK         0.0600 
    240 H240       -4.4679  -19.1695  -52.4876 H         1 UNK         0.3000 
    241 H241       -4.4413  -17.5640  -54.9479 H         1 UNK         0.0600 
    242 H242       -8.2436  -17.6885  -53.6414 H         1 UNK         0.3800 
    243 H243       -7.0611  -18.8692  -53.1409 H         1 UNK         0.3800 
    244 H244       -4.1821  -15.6110  -53.4067 H         1 UNK         0.0800 
    245 H245       -4.3456  -16.6783  -52.0308 H         1 UNK         0.0800 
    246 H246       -1.7504  -14.7477  -52.3055 H         1 UNK         0.0800 
    247 H247       -2.2673  -15.7960  -51.0100 H         1 UNK         0.0800 
@<TRIPOS>BOND
     1    1    2 1    
     2    1  127 1    
     3    1  128 1    
     4    1  129 1    
     5    2    3 2    
     6    2    4 am   BACKBONE|DICT|INTERRES
     7    4    5 1    
     8    4  130 1    
     9    5    6 1    
    10    5   65 1    
    11    5  131 1    
    12    6    7 1    
    13    6  132 1    
    14    6  133 1    
    15    7    8 1    
    16    8    9 1    
    17    8  134 1    
    18    8  135 1    
    19    9   10 ar   
    20    9   14 ar   
    21   10   11 ar   
    22   10  136 1    
    23   11   12 ar   
    24   11  126 1    
    25   12   13 ar   
    26   12  137 1    
    27   13   14 ar   
    28   13   15 1    
    29   14  138 1    
    30   15   16 1    
    31   15  139 1    
    32   15  140 1    
    33   16   17 1    
    34   17   18 1    
    35   17  141 1    
    36   17  142 1    
    37   18   19 1    
    38   18   67 1    
    39   18  143 1    
    40   19   20 am   BACKBONE|DICT|INTERRES
    41   19  144 1    
    42   20   21 2    
    43   20   22 1    
    44   22   23 1    
    45   22   24 1    
    46   22  145 1    
    47   23  146 1    
    48   23  147 1    
    49   23  148 1    
    50   24   25 am   BACKBONE|DICT|INTERRES
    51   24  149 1    
    52   25   26 2    
    53   25   27 1    
    54   27   28 1    
    55   27   29 1    
    56   27  150 1    
    57   28  151 1    
    58   28  152 1    
    59   28  153 1    
    60   29   30 am   BACKBONE|DICT|INTERRES
    61   29  154 1    
    62   30   31 2    
    63   30   32 1    
    64   32   33 1    
    65   32   34 1    
    66   32  155 1    
    67   33  156 1    
    68   33  157 1    
    69   33  158 1    
    70   34   35 am   BACKBONE|DICT|INTERRES
    71   34  159 1    
    72   35   36 2    
    73   35   37 1    
    74   37   38 1    
    75   37   39 1    
    76   37  160 1    
    77   38  161 1    
    78   38  162 1    
    79   38  163 1    
    80   39   40 am   BACKBONE|DICT|INTERRES
    81   39  164 1    
    82   40   41 2    
    83   40   42 1    
    84   42   43 1    
    85   42   44 1    
    86   42  165 1    
    87   43  166 1    
    88   43  167 1    
    89   43  168 1    
    90   44   45 am   BACKBONE|DICT|INTERRES
    91   44  169 1    
    92   45   46 2    
    93   45   47 1    
    94   47   48 1    
    95   47   49 1    
    96   47  170 1    
    97   48  171 1    
    98   48  172 1    
    99   48  173 1    
   100   49   50 am   BACKBONE|DICT|INTERRES
   101   49  174 1    
   102   50   51 2    
   103   50   52 1    
   104   52   53 1    
   105   52   54 1    
   106   52  175 1    
   107   53  176 1    
   108   53  177 1    
   109   53  178 1    
   110   54   55 am   BACKBONE|DICT|INTERRES
   111   54  179 1    
   112   55   56 2    
   113   55   57 1    
   114   57   58 1    
   115   57   59 1    
   116   57  180 1    
   117   58  181 1    
   118   58  182 1    
   119   58  183 1    
   120   59   60 am   BACKBONE|DICT|INTERRES
   121   59  184 1    
   122   60   61 2    
   123   60   62 1    
   124   62   63 1    
   125   62   64 1    
   126   62  185 1    
   127   63  186 1    
   128   63  187 1    
   129   63  188 1    
   130   64   65 am   BACKBONE|DICT|INTERRES
   131   64  189 1    
   132   65   66 2    
   133   67   68 2    
   134   67   69 am   BACKBONE|DICT|INTERRES
   135   69   70 1    
   136   69  190 1    
   137   70   71 1    
   138   70   72 1    
   139   70  191 1    
   140   71  192 1    
   141   71  193 1    
   142   71  194 1    
   143   72   73 2    
   144   72   74 am   BACKBONE|DICT|INTERRES
   145   74   75 1    
   146   74  195 1    
   147   75   76 1    
   148   75   77 1    
   149   75  196 1    
   150   76  197 1    
   151   76  198 1    
   152   76  199 1    
   153   77   78 2    
   154   77   79 am   BACKBONE|DICT|INTERRES
   155   79   80 1    
   156   79  200 1    
   157   80   81 1    
   158   80   82 1    
   159   80  201 1    
   160   81  202 1    
   161   81  203 1    
   162   81  204 1    
   163   82   83 2    
   164   82   84 am   BACKBONE|DICT|INTERRES
   165   84   85 1    
   166   84  205 1    
   167   85   86 1    
   168   85   87 1    
   169   85  206 1    
   170   86  207 1    
   171   86  208 1    
   172   86  209 1    
   173   87   88 2    
   174   87   89 am   BACKBONE|DICT|INTERRES
   175   89   90 1    
   176   89  210 1    
   177   90   91 1    
   178   90   92 1    
   179   90  211 1    
   180   91  212 1    
   181   91  213 1    
   182   91  214 1    
   183   92   93 2    
   184   92   94 am   BACKBONE|DICT|INTERRES
   185   94   95 1    
   186   94  215 1    
   187   95   96 1    
   188   95   97 1    
   189   95  216 1    
   190   96  217 1    
   191   96  218 1    
   192   96  219 1    
   193   97   98 2    
   194   97   99 am   BACKBONE|DICT|INTERRES
   195   99  100 1    
   196   99  220 1    
   197  100  101 1    
   198  100  102 1    
   199  100  221 1    
   200  101  222 1    
   201  101  223 1    
   202  101  224 1    
   203  102  103 2    
   204  102  104 am   BACKBONE|DICT|INTERRES
   205  104  105 1    
   206  104  225 1    
   207  105  106 1    
   208  105  107 1    
   209  105  226 1    
   210  106  227 1    
   211  106  228 1    
   212  106  229 1    
   213  107  108 2    
   214  107  109 am   BACKBONE|DICT|INTERRES
   215  109  110 1    
   216  109  230 1    
   217  110  111 1    
   218  110  112 1    
   219  110  231 1    
   220  111  232 1    
   221  111  233 1    
   222  111  234 1    
   223  112  113 2    
   224  112  114 am   BACKBONE|DICT|INTERRES
   225  114  115 1    
   226  114  235 1    
   227  115  116 1    
   228  115  117 1    
   229  115  236 1    
   230  116  237 1    
   231  116  238 1    
   232  116  239 1    
   233  117  118 2    
   234  117  119 am   BACKBONE|DICT|INTERRES
   235  119  120 1    
   236  119  240 1    
   237  120  121 1    
   238  120  124 1    
   239  120  241 1    
   240  121  122 am   BACKBONE|DICT|INTERRES
   241  121  123 2    
   242  122  242 1    
   243  122  243 1    
   244  124  125 1    
   245  124  244 1    
   246  124  245 1    
   247  125  126 1    
   248  126  246 1    
   249  126  247 1    
@<TRIPOS>SUBSTRUCTURE
     1 UNK         1 GROUP             0       ****    0 ROOT    
