@<TRIPOS>MOLECULE
3R540
247   249    1
SMALL
USER_CHARGES


@<TRIPOS>ATOM
      1 CA         -3.0532  -13.2012  -48.2064 C.3       0 UNK        -0.1800 
      2 C          -1.9622  -13.9275  -47.4333 C.2       0 UNK         0.5000 
      3 O          -2.1437  -15.0878  -47.0744 O.2       0 UNK        -0.5000 
      4 N          -0.8438  -13.2388  -47.1656 N.am      1 UNK        -0.5000 
      5 CA          0.3816  -13.7345  -46.5114 C.3       1 UNK         0.1400 
      6 C6          1.0639  -14.9092  -47.2613 C.3       23 UNK        -0.0398 
      7 S7          1.5753  -14.4161  -48.9427 S.3       23 UNK        -0.2404 
      8 C8          2.0794  -16.0168  -49.6620 C.3       23 UNK        -0.0205 
      9 C9          0.9549  -16.9754  -50.0672 C.ar      23 UNK        -0.0193 
     10 C10         1.3165  -18.2474  -50.5230 C.ar      23 UNK        -0.1150 
     11 C11         0.3485  -19.1675  -50.9325 C.ar      23 UNK        -0.0193 
     12 C12        -0.9962  -18.7951  -50.9161 C.ar      23 UNK        -0.1150 
     13 C13        -1.3873  -17.5489  -50.4205 C.ar      23 UNK        -0.0193 
     14 C14        -0.4062  -16.6402  -50.0103 C.ar      23 UNK        -0.1150 
     15 C15        -2.8654  -17.1790  -50.3209 C.3       23 UNK        -0.0205 
     16 S16        -3.8925  -18.4623  -49.5181 S.3       23 UNK        -0.2404 
     17 C17        -3.0931  -18.6354  -47.8861 C.3       23 UNK        -0.0398 
     18 CA         -2.1584  -19.8714  -47.8231 C.3       11 UNK         0.1400 
     19 N          -0.9417  -19.5874  -47.0627 N.am      11 UNK        -0.5000 
     20 C           0.1828  -20.3105  -47.0443 C.2       10 UNK         0.5000 
     21 O           0.2978  -21.3924  -47.6200 O.2       10 UNK        -0.5000 
     22 CA          1.3638  -19.7562  -46.2214 C.3       10 UNK         0.1400 
     23 CB          2.1861  -18.7600  -47.0539 C.3       10 UNK        -0.1800 
     24 N           0.9959  -19.1916  -44.9139 N.am      10 UNK        -0.5000 
     25 C           0.2025  -18.1463  -44.6236 C.2       9 UNK         0.5000 
     26 O          -0.2934  -17.4203  -45.4825 O.2       9 UNK        -0.5000 
     27 CA         -0.1204  -17.8695  -43.1391 C.3       9 UNK         0.1400 
     28 CB         -1.5928  -17.4549  -42.9353 C.3       9 UNK        -0.1800 
     29 N           0.2455  -18.9653  -42.2349 N.am      9 UNK        -0.5000 
     30 C          -0.2419  -20.2174  -42.2165 C.2       8 UNK         0.5000 
     31 O          -1.1683  -20.5993  -42.9324 O.2       8 UNK        -0.5000 
     32 CA          0.4747  -21.2181  -41.2788 C.3       8 UNK         0.1400 
     33 CB          0.3041  -22.6829  -41.7329 C.3       8 UNK        -0.1800 
     34 N           1.8976  -20.9039  -41.0765 N.am      8 UNK        -0.5000 
     35 C           2.8373  -20.7858  -42.0267 C.2       7 UNK         0.5000 
     36 O           2.6391  -20.9904  -43.2262 O.2       7 UNK        -0.5000 
     37 CA          4.2114  -20.2655  -41.5666 C.3       7 UNK         0.1400 
     38 CB          5.3247  -21.2646  -41.9177 C.3       7 UNK        -0.1800 
     39 N           4.5212  -18.9656  -42.1690 N.am      7 UNK        -0.5000 
     40 C           3.7890  -17.8519  -42.0281 C.2       6 UNK         0.5000 
     41 O           2.7600  -17.7915  -41.3483 O.2       6 UNK        -0.5000 
     42 CA          4.2785  -16.6098  -42.7995 C.3       6 UNK         0.1400 
     43 CB          3.8661  -16.6849  -44.2765 C.3       6 UNK        -0.1800 
     44 N           3.7528  -15.3689  -42.2334 N.am      6 UNK        -0.5000 
     45 C           4.1191  -14.8588  -41.0493 C.2       5 UNK         0.5000 
     46 O           4.9949  -15.3534  -40.3358 O.2       5 UNK        -0.5000 
     47 CA          3.3827  -13.5788  -40.6025 C.3       5 UNK         0.1400 
     48 CB          4.0853  -12.8428  -39.4423 C.3       5 UNK        -0.1800 
     49 N           3.1095  -12.6622  -41.7136 N.am      5 UNK        -0.5000 
     50 C           4.0032  -12.0484  -42.5077 C.2       4 UNK         0.5000 
     51 O           5.2231  -12.1641  -42.3858 O.2       4 UNK        -0.5000 
     52 CA          3.4494  -11.1601  -43.6420 C.3       4 UNK         0.1400 
     53 CB          3.7400  -11.7915  -45.0139 C.3       4 UNK        -0.1800 
     54 N           2.0098  -10.9209  -43.5279 N.am      4 UNK        -0.5000 
     55 C           1.4392  -10.0455  -42.6884 C.2       3 UNK         0.5000 
     56 O           2.0739   -9.2684  -41.9751 O.2       3 UNK        -0.5000 
     57 CA         -0.1007  -10.0626  -42.6141 C.3       3 UNK         0.1400 
     58 CB         -0.6931   -8.9473  -43.4888 C.3       3 UNK        -0.1800 
     59 N          -0.6881  -11.3449  -43.0159 N.am      3 UNK        -0.5000 
     60 C          -0.5694  -12.4963  -42.3371 C.2       2 UNK         0.5000 
     61 O           0.0593  -12.6099  -41.2855 O.2       2 UNK        -0.5000 
     62 CA         -1.2057  -13.7376  -42.9864 C.3       2 UNK         0.1400 
     63 CB         -2.7197  -13.7702  -42.7261 C.3       2 UNK        -0.1800 
     64 N          -0.9560  -13.7733  -44.4283 N.am      2 UNK        -0.5000 
     65 C           0.2413  -13.9918  -44.9908 C.2       1 UNK         0.5000 
     66 O           1.2408  -14.2910  -44.3332 O.2       1 UNK        -0.5000 
     67 C          -2.8891  -21.1624  -47.3994 C.2       11 UNK         0.5000 
     68 O          -3.7311  -21.6499  -48.1543 O.2       11 UNK        -0.5000 
     69 N          -2.5104  -21.7516  -46.2560 N.am      12 UNK        -0.5000 
     70 CA         -2.8887  -23.1083  -45.8571 C.3       12 UNK         0.1400 
     71 CB         -2.3390  -23.3985  -44.4538 C.3       12 UNK        -0.1800 
     72 C          -2.4136  -24.1847  -46.8563 C.2       12 UNK         0.5000 
     73 O          -3.1300  -25.1629  -47.0676 O.2       12 UNK        -0.5000 
     74 N          -1.2565  -23.9636  -47.5031 N.am      13 UNK        -0.5000 
     75 CA         -0.7206  -24.8295  -48.5603 C.3       13 UNK         0.1400 
     76 CB          0.7431  -24.4532  -48.8371 C.3       13 UNK        -0.1800 
     77 C          -1.5406  -24.7633  -49.8637 C.2       13 UNK         0.5000 
     78 O          -1.5431  -25.7255  -50.6304 O.2       13 UNK        -0.5000 
     79 N          -2.2372  -23.6396  -50.0737 N.am      14 UNK        -0.5000 
     80 CA         -3.1583  -23.4098  -51.1841 C.3       14 UNK         0.1400 
     81 CB         -3.0052  -21.9532  -51.6464 C.3       14 UNK        -0.1800 
     82 C          -4.6211  -23.7003  -50.8009 C.2       14 UNK         0.5000 
     83 O          -5.5123  -23.4166  -51.6018 O.2       14 UNK        -0.5000 
     84 N          -4.8578  -24.2114  -49.5822 N.am      15 UNK        -0.5000 
     85 CA         -6.1657  -24.4937  -48.9832 C.3       15 UNK         0.1400 
     86 CB         -6.8097  -25.7182  -49.6652 C.3       15 UNK        -0.1800 
     87 C          -7.0852  -23.2527  -48.9524 C.2       15 UNK         0.5000 
     88 O          -8.2531  -23.3365  -49.3337 O.2       15 UNK        -0.5000 
     89 N          -6.5140  -22.1127  -48.5332 N.am      16 UNK        -0.5000 
     90 CA         -7.1193  -20.7763  -48.5030 C.3       16 UNK         0.1400 
     91 CB         -8.3081  -20.7192  -47.5208 C.3       16 UNK        -0.1800 
     92 C          -7.4608  -20.2614  -49.9172 C.2       16 UNK         0.5000 
     93 O          -8.5432  -19.7178  -50.1426 O.2       16 UNK        -0.5000 
     94 N          -6.5098  -20.4609  -50.8407 N.am      17 UNK        -0.5000 
     95 CA         -6.5292  -20.0744  -52.2556 C.3       17 UNK         0.1400 
     96 CB         -6.6433  -18.5448  -52.4221 C.3       17 UNK        -0.1800 
     97 C          -7.5510  -20.8486  -53.1145 C.2       17 UNK         0.5000 
     98 O          -7.8773  -20.4040  -54.2161 O.2       17 UNK        -0.5000 
     99 N          -8.0044  -22.0150  -52.6347 N.am      18 UNK        -0.5000 
    100 CA        -8.7941  -22.9708  -53.4149 C.3       18 UNK         0.1400 
    101 CB        -9.4655  -23.9746  -52.4675 C.3       18 UNK        -0.1800 
    102 C         -7.9273  -23.6986  -54.4616 C.2       18 UNK         0.5000 
    103 O         -8.4067  -23.9922  -55.5571 O.2       18 UNK        -0.5000 
    104 N         -6.6575  -23.9334  -54.1131 N.am      19 UNK        -0.5000 
    105 CA        -5.5985  -24.4410  -54.9736 C.3       19 UNK         0.1400 
    106 CB        -5.0914  -25.7791  -54.4060 C.3       19 UNK        -0.1800 
    107 C         -4.5043  -23.3634  -55.0241 C.2       19 UNK         0.5000 
    108 O         -3.4062  -23.5632  -54.5041 O.2       19 UNK        -0.5000 
    109 N         -4.8430  -22.2128  -55.6240 N.am      20 UNK        -0.5000 
    110 CA        -4.0565  -20.9702  -55.6684 C.3       20 UNK         0.1400 
    111 CB        -4.8666  -19.9078  -56.4275 C.3       20 UNK        -0.1800 
    112 C         -2.6277  -21.0768  -56.2486 C.2       20 UNK         0.5000 
    113 O         -1.8389  -20.1476  -56.0758 O.2       20 UNK        -0.5000 
    114 N         -2.3083  -22.2003  -56.9034 N.am      21 UNK        -0.5000 
    115 CA        -0.9609  -22.5741  -57.3361 C.3       21 UNK         0.1400 
    116 CB        -1.0755  -23.7375  -58.3340 C.3       21 UNK        -0.1800 
    117 C         -0.0143  -22.9511  -56.1726 C.2       21 UNK         0.5000 
    118 O          1.1935  -23.0350  -56.3984 O.2       21 UNK        -0.5000 
    119 N         -0.5652  -23.1814  -54.9701 N.am      22 UNK        -0.5000 
    120 CA         0.1437  -23.5563  -53.7307 C.3       22 UNK         0.1400 
    121 C          0.6573  -25.0288  -53.7100 C.2       22 UNK         0.5000 
    122 N          0.1833  -25.9066  -54.5862 N.am      22 UNK        -0.7600 
    123 O          1.4820  -25.3935  -52.8762 O.2       22 UNK        -0.5000 
    124 C124        1.2420  -22.5401  -53.2943 C.3       23 UNK        -0.0398 
    125 S125        0.6434  -20.8198  -53.1411 S.3       23 UNK        -0.2404 
    126 C126        0.7475  -20.5773  -51.3420 C.3       23 UNK        -0.0205 
    127 H127       -3.2467  -13.7126  -49.1492 H         1 UNK         0.0600 
    128 H128       -3.9773  -13.1881  -47.6288 H         1 UNK         0.0600 
    129 H129       -2.7763  -12.1707  -48.4295 H         1 UNK         0.0600 
    130 H130       -0.7847  -12.2836  -47.4903 H         1 UNK         0.3000 
    131 H131        1.0744  -12.8933  -46.5637 H         1 UNK         0.0600 
    132 H132        1.9526  -15.2518  -46.7282 H         1 UNK         0.0800 
    133 H133        0.3946  -15.7661  -47.3272 H         1 UNK         0.0800 
    134 H134        2.7529  -16.5162  -48.9645 H         1 UNK         0.0800 
    135 H135        2.6714  -15.8035  -50.5529 H         1 UNK         0.0800 
    136 H136        2.3606  -18.5263  -50.5501 H         1 UNK         0.1150 
    137 H137       -1.7473  -19.4952  -51.2468 H         1 UNK         0.1150 
    138 H138       -0.7164  -15.6723  -49.6472 H         1 UNK         0.1150 
    139 H139       -3.2496  -17.0003  -51.3257 H         1 UNK         0.0800 
    140 H140       -2.9912  -16.2453  -49.7706 H         1 UNK         0.0800 
    141 H141       -2.5331  -17.7189  -47.6926 H         1 UNK         0.0800 
    142 H142       -3.8609  -18.6720  -47.1115 H         1 UNK         0.0800 
    143 H143       -1.8076  -20.0919  -48.8291 H         1 UNK         0.0600 
    144 H144       -0.9171  -18.7028  -46.5580 H         1 UNK         0.3000 
    145 H145        2.0098  -20.6071  -46.0000 H         1 UNK         0.0600 
    146 H146        1.6115  -17.8672  -47.2947 H         1 UNK         0.0600 
    147 H147        3.0872  -18.4514  -46.5281 H         1 UNK         0.0600 
    148 H148        2.5018  -19.2099  -47.9956 H         1 UNK         0.0600 
    149 H149        1.3542  -19.7305  -44.1318 H         1 UNK         0.3000 
    150 H150        0.5023  -17.0193  -42.8568 H         1 UNK         0.0600 
    151 H151       -1.8454  -16.5940  -43.5536 H         1 UNK         0.0600 
    152 H152       -1.7857  -17.1789  -41.8988 H         1 UNK         0.0600 
    153 H153       -2.2848  -18.2518  -43.2071 H         1 UNK         0.0600 
    154 H154        1.0434  -18.7589  -41.6403 H         1 UNK         0.3000 
    155 H155       -0.0058  -21.1153  -40.3050 H         1 UNK         0.0600 
    156 H156       -0.7484  -22.9681  -41.7492 H         1 UNK         0.0600 
    157 H157        0.8129  -23.3678  -41.0547 H         1 UNK         0.0600 
    158 H158        0.7024  -22.8455  -42.7348 H         1 UNK         0.0600 
    159 H159        2.1546  -20.6768  -40.1255 H         1 UNK         0.3000 
    160 H160        4.1997  -20.1368  -40.4824 H         1 UNK         0.0600 
    161 H161        5.4153  -21.4056  -42.9956 H         1 UNK         0.0600 
    162 H162        6.2908  -20.9284  -41.5406 H         1 UNK         0.0600 
    163 H163        5.1256  -22.2413  -41.4748 H         1 UNK         0.0600 
    164 H164        5.3334  -18.9401  -42.7681 H         1 UNK         0.3000 
    165 H165        5.3686  -16.5766  -42.7432 H         1 UNK         0.0600 
    166 H166        4.2311  -15.8215  -44.8333 H         1 UNK         0.0600 
    167 H167        4.2818  -17.5745  -44.7495 H         1 UNK         0.0600 
    168 H168        2.7830  -16.7202  -44.3926 H         1 UNK         0.0600 
    169 H169        3.0133  -14.9134  -42.7519 H         1 UNK         0.3000 
    170 H170        2.4089  -13.9076  -40.2369 H         1 UNK         0.0600 
    171 H171        4.1608  -13.4830  -38.5626 H         1 UNK         0.0600 
    172 H172        5.0964  -12.5343  -39.7090 H         1 UNK         0.0600 
    173 H173        3.5294  -11.9527  -39.1474 H         1 UNK         0.0600 
    174 H174        2.1263  -12.4966  -41.8898 H         1 UNK         0.3000 
    175 H175        3.9694  -10.2011  -43.5921 H         1 UNK         0.0600 
    176 H176        3.2999  -12.7844  -45.1053 H         1 UNK         0.0600 
    177 H177        3.3536  -11.1744  -45.8252 H         1 UNK         0.0600 
    178 H178        4.8138  -11.8982  -45.1727 H         1 UNK         0.0600 
    179 H179        1.4087  -11.5269  -44.0643 H         1 UNK         0.3000 
    180 H180       -0.3814   -9.8714  -41.5762 H         1 UNK         0.0600 
    181 H181       -0.2989   -7.9723  -43.1990 H         1 UNK         0.0600 
    182 H182       -0.4593   -9.0953  -44.5438 H         1 UNK         0.0600 
    183 H183       -1.7776   -8.9002  -43.3875 H         1 UNK         0.0600 
    184 H184       -1.2192  -11.3461  -43.8741 H         1 UNK         0.3000 
    185 H185       -0.7551  -14.6223  -42.5323 H         1 UNK         0.0600 
    186 H186       -2.9296  -13.7856  -41.6559 H         1 UNK         0.0600 
    187 H187       -3.2225  -12.8985  -43.1467 H         1 UNK         0.0600 
    188 H188       -3.1795  -14.6584  -43.1589 H         1 UNK         0.0600 
    189 H189       -1.7338  -13.5684  -45.0381 H         1 UNK         0.3000 
    190 H190       -1.8242  -21.2850  -45.6795 H         1 UNK         0.3000 
    191 H191       -3.9790  -23.1537  -45.8156 H         1 UNK         0.0600 
    192 H192       -2.5966  -24.4083  -44.1316 H         1 UNK         0.0600 
    193 H193       -2.7546  -22.7091  -43.7188 H         1 UNK         0.0600 
    194 H194       -1.2525  -23.3087  -44.4213 H         1 UNK         0.0600 
    195 H195       -0.7338  -23.1137  -47.3141 H         1 UNK         0.3000 
    196 H196       -0.7468  -25.8607  -48.2021 H         1 UNK         0.0600 
    197 H197        1.1897  -25.1357  -49.5617 H         1 UNK         0.0600 
    198 H198        1.3441  -24.5022  -47.9291 H         1 UNK         0.0600 
    199 H199        0.8306  -23.4455  -49.2448 H         1 UNK         0.0600 
    200 H200       -2.2127  -22.9203  -49.3645 H         1 UNK         0.3000 
    201 H201       -2.9070  -24.0677  -52.0169 H         1 UNK         0.0600 
    202 H202       -3.6506  -21.7397  -52.4966 H         1 UNK         0.0600 
    203 H203       -1.9861  -21.7506  -51.9684 H         1 UNK         0.0600 
    204 H204       -3.2613  -21.2502  -50.8539 H         1 UNK         0.0600 
    205 H205       -4.0626  -24.3995  -48.9863 H         1 UNK         0.3000 
    206 H206       -5.9792  -24.7570  -47.9412 H         1 UNK         0.0600 
    207 H207       -6.1679  -26.5949  -49.5784 H         1 UNK         0.0600 
    208 H208       -7.7653  -25.9704  -49.2041 H         1 UNK         0.0600 
    209 H209       -6.9899  -25.5446  -50.7256 H         1 UNK         0.0600 
    210 H210       -5.5221  -22.1333  -48.3047 H         1 UNK         0.3000 
    211 H211       -6.3488  -20.1066  -48.1177 H         1 UNK         0.0600 
    212 H212       -9.1532  -21.3149  -47.8664 H         1 UNK         0.0600 
    213 H213       -8.6615  -19.6948  -47.3987 H         1 UNK         0.0600 
    214 H214       -8.0214  -21.0829  -46.5342 H         1 UNK         0.0600 
    215 H215       -5.6778  -20.9487  -50.5414 H         1 UNK         0.3000 
    216 H216       -5.5536  -20.3614  -52.6468 H         1 UNK         0.0600 
    217 H217       -5.8971  -18.0247  -51.8221 H         1 UNK         0.0600 
    218 H218       -6.4818  -18.2511  -53.4599 H         1 UNK         0.0600 
    219 H219       -7.6267  -18.1766  -52.1294 H         1 UNK         0.0600 
    220 H220       -7.6678  -22.3282  -51.7334 H         1 UNK         0.3000 
    221 H221       -9.5785  -22.4266  -53.9450 H         1 UNK         0.0600 
    222 H222       -8.7305  -24.5568  -51.9128 H         1 UNK         0.0600 
    223 H223      -10.1036  -23.4673  -51.7436 H         1 UNK         0.0600 
    224 H224      -10.0912  -24.6758  -53.0208 H         1 UNK         0.0600 
    225 H225       -6.3496  -23.6484  -53.1838 H         1 UNK         0.3000 
    226 H226       -5.9579  -24.6051  -55.9913 H         1 UNK         0.0600 
    227 H227       -5.8860  -26.5251  -54.3939 H         1 UNK         0.0600 
    228 H228       -4.2777  -26.1780  -55.0127 H         1 UNK         0.0600 
    229 H229       -4.7207  -25.6717  -53.3857 H         1 UNK         0.0600 
    230 H230       -5.7712  -22.1502  -56.0176 H         1 UNK         0.3000 
    231 H231       -3.9423  -20.6297  -54.6380 H         1 UNK         0.0600 
    232 H232       -5.0520  -20.2078  -57.4595 H         1 UNK         0.0600 
    233 H233       -5.8302  -19.7285  -55.9508 H         1 UNK         0.0600 
    234 H234       -4.3396  -18.9530  -56.4525 H         1 UNK         0.0600 
    235 H235       -3.0214  -22.9085  -56.9921 H         1 UNK         0.3000 
    236 H236       -0.5174  -21.7208  -57.8532 H         1 UNK         0.0600 
    237 H237       -1.5251  -24.6187  -57.8747 H         1 UNK         0.0600 
    238 H238       -1.6831  -23.4601  -59.1957 H         1 UNK         0.0600 
    239 H239       -0.0943  -24.0286  -58.7114 H         1 UNK         0.0600 
    240 H240       -1.5776  -23.1444  -54.8875 H         1 UNK         0.3000 
    241 H241       -0.6223  -23.5373  -52.9559 H         1 UNK         0.0600 
    242 H242        0.5123  -26.8589  -54.5624 H         1 UNK         0.3800 
    243 H243       -0.5063  -25.6288  -55.2654 H         1 UNK         0.3800 
    244 H244        2.0733  -22.5478  -53.9997 H         1 UNK         0.0800 
    245 H245        1.6721  -22.8426  -52.3383 H         1 UNK         0.0800 
    246 H246        0.1031  -21.2975  -50.8354 H         1 UNK         0.0800 
    247 H247        1.7640  -20.7913  -51.0082 H         1 UNK         0.0800 
@<TRIPOS>BOND
     1    1    2 1    
     2    1  127 1    
     3    1  128 1    
     4    1  129 1    
     5    2    3 2    
     6    2    4 am   BACKBONE|DICT|INTERRES
     7    4    5 1    
     8    4  130 1    
     9    5    6 1    
    10    5   65 1    
    11    5  131 1    
    12    6    7 1    
    13    6  132 1    
    14    6  133 1    
    15    7    8 1    
    16    8    9 1    
    17    8  134 1    
    18    8  135 1    
    19    9   10 ar   
    20    9   14 ar   
    21   10   11 ar   
    22   10  136 1    
    23   11   12 ar   
    24   11  126 1    
    25   12   13 ar   
    26   12  137 1    
    27   13   14 ar   
    28   13   15 1    
    29   14  138 1    
    30   15   16 1    
    31   15  139 1    
    32   15  140 1    
    33   16   17 1    
    34   17   18 1    
    35   17  141 1    
    36   17  142 1    
    37   18   19 1    
    38   18   67 1    
    39   18  143 1    
    40   19   20 am   BACKBONE|DICT|INTERRES
    41   19  144 1    
    42   20   21 2    
    43   20   22 1    
    44   22   23 1    
    45   22   24 1    
    46   22  145 1    
    47   23  146 1    
    48   23  147 1    
    49   23  148 1    
    50   24   25 am   BACKBONE|DICT|INTERRES
    51   24  149 1    
    52   25   26 2    
    53   25   27 1    
    54   27   28 1    
    55   27   29 1    
    56   27  150 1    
    57   28  151 1    
    58   28  152 1    
    59   28  153 1    
    60   29   30 am   BACKBONE|DICT|INTERRES
    61   29  154 1    
    62   30   31 2    
    63   30   32 1    
    64   32   33 1    
    65   32   34 1    
    66   32  155 1    
    67   33  156 1    
    68   33  157 1    
    69   33  158 1    
    70   34   35 am   BACKBONE|DICT|INTERRES
    71   34  159 1    
    72   35   36 2    
    73   35   37 1    
    74   37   38 1    
    75   37   39 1    
    76   37  160 1    
    77   38  161 1    
    78   38  162 1    
    79   38  163 1    
    80   39   40 am   BACKBONE|DICT|INTERRES
    81   39  164 1    
    82   40   41 2    
    83   40   42 1    
    84   42   43 1    
    85   42   44 1    
    86   42  165 1    
    87   43  166 1    
    88   43  167 1    
    89   43  168 1    
    90   44   45 am   BACKBONE|DICT|INTERRES
    91   44  169 1    
    92   45   46 2    
    93   45   47 1    
    94   47   48 1    
    95   47   49 1    
    96   47  170 1    
    97   48  171 1    
    98   48  172 1    
    99   48  173 1    
   100   49   50 am   BACKBONE|DICT|INTERRES
   101   49  174 1    
   102   50   51 2    
   103   50   52 1    
   104   52   53 1    
   105   52   54 1    
   106   52  175 1    
   107   53  176 1    
   108   53  177 1    
   109   53  178 1    
   110   54   55 am   BACKBONE|DICT|INTERRES
   111   54  179 1    
   112   55   56 2    
   113   55   57 1    
   114   57   58 1    
   115   57   59 1    
   116   57  180 1    
   117   58  181 1    
   118   58  182 1    
   119   58  183 1    
   120   59   60 am   BACKBONE|DICT|INTERRES
   121   59  184 1    
   122   60   61 2    
   123   60   62 1    
   124   62   63 1    
   125   62   64 1    
   126   62  185 1    
   127   63  186 1    
   128   63  187 1    
   129   63  188 1    
   130   64   65 am   BACKBONE|DICT|INTERRES
   131   64  189 1    
   132   65   66 2    
   133   67   68 2    
   134   67   69 am   BACKBONE|DICT|INTERRES
   135   69   70 1    
   136   69  190 1    
   137   70   71 1    
   138   70   72 1    
   139   70  191 1    
   140   71  192 1    
   141   71  193 1    
   142   71  194 1    
   143   72   73 2    
   144   72   74 am   BACKBONE|DICT|INTERRES
   145   74   75 1    
   146   74  195 1    
   147   75   76 1    
   148   75   77 1    
   149   75  196 1    
   150   76  197 1    
   151   76  198 1    
   152   76  199 1    
   153   77   78 2    
   154   77   79 am   BACKBONE|DICT|INTERRES
   155   79   80 1    
   156   79  200 1    
   157   80   81 1    
   158   80   82 1    
   159   80  201 1    
   160   81  202 1    
   161   81  203 1    
   162   81  204 1    
   163   82   83 2    
   164   82   84 am   BACKBONE|DICT|INTERRES
   165   84   85 1    
   166   84  205 1    
   167   85   86 1    
   168   85   87 1    
   169   85  206 1    
   170   86  207 1    
   171   86  208 1    
   172   86  209 1    
   173   87   88 2    
   174   87   89 am   BACKBONE|DICT|INTERRES
   175   89   90 1    
   176   89  210 1    
   177   90   91 1    
   178   90   92 1    
   179   90  211 1    
   180   91  212 1    
   181   91  213 1    
   182   91  214 1    
   183   92   93 2    
   184   92   94 am   BACKBONE|DICT|INTERRES
   185   94   95 1    
   186   94  215 1    
   187   95   96 1    
   188   95   97 1    
   189   95  216 1    
   190   96  217 1    
   191   96  218 1    
   192   96  219 1    
   193   97   98 2    
   194   97   99 am   BACKBONE|DICT|INTERRES
   195   99  100 1    
   196   99  220 1    
   197  100  101 1    
   198  100  102 1    
   199  100  221 1    
   200  101  222 1    
   201  101  223 1    
   202  101  224 1    
   203  102  103 2    
   204  102  104 am   BACKBONE|DICT|INTERRES
   205  104  105 1    
   206  104  225 1    
   207  105  106 1    
   208  105  107 1    
   209  105  226 1    
   210  106  227 1    
   211  106  228 1    
   212  106  229 1    
   213  107  108 2    
   214  107  109 am   BACKBONE|DICT|INTERRES
   215  109  110 1    
   216  109  230 1    
   217  110  111 1    
   218  110  112 1    
   219  110  231 1    
   220  111  232 1    
   221  111  233 1    
   222  111  234 1    
   223  112  113 2    
   224  112  114 am   BACKBONE|DICT|INTERRES
   225  114  115 1    
   226  114  235 1    
   227  115  116 1    
   228  115  117 1    
   229  115  236 1    
   230  116  237 1    
   231  116  238 1    
   232  116  239 1    
   233  117  118 2    
   234  117  119 am   BACKBONE|DICT|INTERRES
   235  119  120 1    
   236  119  240 1    
   237  120  121 1    
   238  120  124 1    
   239  120  241 1    
   240  121  122 am   BACKBONE|DICT|INTERRES
   241  121  123 2    
   242  122  242 1    
   243  122  243 1    
   244  124  125 1    
   245  124  244 1    
   246  124  245 1    
   247  125  126 1    
   248  126  246 1    
   249  126  247 1    
@<TRIPOS>SUBSTRUCTURE
     1 UNK         1 GROUP             0       ****    0 ROOT    
