@<TRIPOS>MOLECULE
3R540
247   249    1
SMALL
USER_CHARGES


@<TRIPOS>ATOM
      1 CA         -0.5227  -10.8234  -49.5185 C.3       0 UNK        -0.1800 
      2 C           0.5862  -11.8339  -49.7765 C.2       0 UNK         0.5000 
      3 O           1.5158  -11.5461  -50.5313 O.2       0 UNK        -0.5000 
      4 N           0.4851  -13.0162  -49.1593 N.am      1 UNK        -0.5000 
      5 CA          1.4865  -14.0844  -49.2068 C.3       1 UNK         0.1400 
      6 C6          0.8687  -15.4810  -48.9303 C.3       23 UNK        -0.0398 
      7 S7         -0.2521  -15.5846  -47.4880 S.3       23 UNK        -0.2404 
      8 C8         -1.9090  -15.3368  -48.2140 C.3       23 UNK        -0.0205 
      9 C9         -2.3219  -16.4427  -49.1766 C.ar      23 UNK        -0.0193 
     10 C10        -2.2117  -16.2466  -50.5561 C.ar      23 UNK        -0.1150 
     11 C11        -2.6248  -17.2364  -51.4508 C.ar      23 UNK        -0.0193 
     12 C12        -3.1552  -18.4312  -50.9559 C.ar      23 UNK        -0.1150 
     13 C13        -3.2587  -18.6486  -49.5789 C.ar      23 UNK        -0.0193 
     14 C14        -2.8505  -17.6448  -48.6955 C.ar      23 UNK        -0.1150 
     15 C15        -3.8294  -19.9610  -49.0583 C.3       23 UNK        -0.0205 
     16 S16        -2.6175  -21.3184  -49.1643 S.3       23 UNK        -0.2404 
     17 C17        -1.6576  -21.1270  -47.6182 C.3       23 UNK        -0.0398 
     18 CA         -1.3492  -22.4657  -46.8915 C.3       11 UNK         0.1400 
     19 N          -0.5207  -22.2647  -45.6990 N.am      11 UNK        -0.5000 
     20 C          -0.0350  -23.2246  -44.8957 C.2       10 UNK         0.5000 
     21 O          -0.1854  -24.4340  -45.0887 O.2       10 UNK        -0.5000 
     22 CA          0.7169  -22.7514  -43.6380 C.3       10 UNK         0.1400 
     23 CB          2.1484  -22.3181  -43.9857 C.3       10 UNK        -0.1800 
     24 N           0.0235  -21.6674  -42.9382 N.am      10 UNK        -0.5000 
     25 C          -1.1936  -21.7849  -42.3860 C.2       9 UNK         0.5000 
     26 O          -1.8441  -22.8277  -42.3832 O.2       9 UNK        -0.5000 
     27 CA         -1.8184  -20.5162  -41.7825 C.3       9 UNK         0.1400 
     28 CB         -1.2118  -20.2060  -40.4062 C.3       9 UNK        -0.1800 
     29 N          -1.6827  -19.3576  -42.6630 N.am      9 UNK        -0.5000 
     30 C          -2.2110  -19.2729  -43.8926 C.2       8 UNK         0.5000 
     31 O          -2.9269  -20.1398  -44.3957 O.2       8 UNK        -0.5000 
     32 CA         -1.8208  -18.0420  -44.7265 C.3       8 UNK         0.1400 
     33 CB         -2.6595  -16.8163  -44.3400 C.3       8 UNK        -0.1800 
     34 N          -0.3980  -17.7266  -44.6255 N.am      8 UNK        -0.5000 
     35 C           0.5858  -18.5319  -45.0478 C.2       7 UNK         0.5000 
     36 O           0.3941  -19.6120  -45.6028 O.2       7 UNK        -0.5000 
     37 CA          2.0260  -18.0885  -44.7512 C.3       7 UNK         0.1400 
     38 CB          2.5513  -17.1350  -45.8335 C.3       7 UNK        -0.1800 
     39 N           2.1436  -17.4792  -43.4265 N.am      7 UNK        -0.5000 
     40 C           2.0437  -18.1684  -42.2808 C.2       6 UNK         0.5000 
     41 O           1.9047  -19.3909  -42.2286 O.2       6 UNK        -0.5000 
     42 CA          2.0510  -17.3491  -40.9789 C.3       6 UNK         0.1400 
     43 CB          3.4870  -17.0524  -40.5240 C.3       6 UNK        -0.1800 
     44 N           1.3021  -16.0980  -41.1104 N.am      6 UNK        -0.5000 
     45 C          -0.0357  -16.0414  -41.1890 C.2       5 UNK         0.5000 
     46 O          -0.7602  -17.0348  -41.1450 O.2       5 UNK        -0.5000 
     47 CA         -0.6795  -14.6552  -41.3836 C.3       5 UNK         0.1400 
     48 CB         -0.9617  -13.9992  -40.0241 C.3       5 UNK        -0.1800 
     49 N           0.1111  -13.7379  -42.2053 N.am      5 UNK        -0.5000 
     50 C           0.4922  -13.9641  -43.4695 C.2       4 UNK         0.5000 
     51 O           0.2338  -15.0010  -44.0795 O.2       4 UNK        -0.5000 
     52 CA          1.3363  -12.8774  -44.1655 C.3       4 UNK         0.1400 
     53 CB          1.4795  -11.5694  -43.3557 C.3       4 UNK        -0.1800 
     54 N           2.6594  -13.3755  -44.5490 N.am      4 UNK        -0.5000 
     55 C           3.5690  -13.9632  -43.7554 C.2       3 UNK         0.5000 
     56 O           3.3785  -14.2021  -42.5615 O.2       3 UNK        -0.5000 
     57 CA          4.9117  -14.3570  -44.3996 C.3       3 UNK         0.1400 
     58 CB          5.4870  -15.6584  -43.8110 C.3       3 UNK        -0.1800 
     59 N           4.8000  -14.4854  -45.8564 N.am      3 UNK        -0.5000 
     60 C           5.4720  -13.7373  -46.7386 C.2       2 UNK         0.5000 
     61 O           6.2792  -12.8624  -46.4217 O.2       2 UNK        -0.5000 
     62 CA          5.2115  -14.0018  -48.2349 C.3       2 UNK         0.1400 
     63 CB          6.1917  -15.0640  -48.7575 C.3       2 UNK        -0.1800 
     64 N           3.8483  -14.3857  -48.6295 N.am      2 UNK        -0.5000 
     65 C           2.7090  -13.7490  -48.3193 C.2       1 UNK         0.5000 
     66 O           2.6129  -12.9108  -47.4191 O.2       1 UNK        -0.5000 
     67 C          -2.6237  -23.2682  -46.5591 C.2       11 UNK         0.5000 
     68 O          -2.8929  -24.2742  -47.2176 O.2       11 UNK        -0.5000 
     69 N          -3.3488  -22.8300  -45.5204 N.am      12 UNK        -0.5000 
     70 CA         -4.5550  -23.4840  -45.0179 C.3       12 UNK         0.1400 
     71 CB         -5.2336  -22.5671  -43.9889 C.3       12 UNK        -0.1800 
     72 C          -4.2890  -24.8755  -44.4128 C.2       12 UNK         0.5000 
     73 O          -5.1164  -25.7716  -44.5840 O.2       12 UNK        -0.5000 
     74 N          -3.1565  -25.0282  -43.7121 N.am      13 UNK        -0.5000 
     75 CA         -2.7523  -26.2621  -43.0438 C.3       13 UNK         0.1400 
     76 CB         -1.5834  -25.9903  -42.0828 C.3       13 UNK        -0.1800 
     77 C          -2.4070  -27.3965  -44.0212 C.2       13 UNK         0.5000 
     78 O          -3.0316  -28.4563  -43.9442 O.2       13 UNK        -0.5000 
     79 N          -1.4162  -27.1768  -44.8992 N.am      14 UNK        -0.5000 
     80 CA         -0.8861  -28.2307  -45.7732 C.3       14 UNK         0.1400 
     81 CB         -0.1096  -29.2747  -44.9397 C.3       14 UNK        -0.1800 
     82 C           0.0150  -27.7374  -46.9168 C.2       14 UNK         0.5000 
     83 O           0.1758  -28.4775  -47.8887 O.2       14 UNK        -0.5000 
     84 N           0.6307  -26.5520  -46.7932 N.am      15 UNK        -0.5000 
     85 CA          1.6635  -26.0865  -47.7267 C.3       15 UNK         0.1400 
     86 CB          2.4206  -24.8994  -47.1112 C.3       15 UNK        -0.1800 
     87 C           1.1170  -25.7101  -49.1153 C.2       15 UNK         0.5000 
     88 O           1.8208  -25.8991  -50.1088 O.2       15 UNK        -0.5000 
     89 N          -0.1216  -25.1954  -49.1426 N.am      16 UNK        -0.5000 
     90 CA         -0.8505  -24.6641  -50.2993 C.3       16 UNK         0.1400 
     91 CB         -1.1459  -25.7926  -51.3108 C.3       16 UNK        -0.1800 
     92 C          -0.1695  -23.4453  -50.9680 C.2       16 UNK         0.5000 
     93 O           0.8934  -22.9915  -50.5382 O.2       16 UNK        -0.5000 
     94 N          -0.8294  -22.9263  -52.0060 N.am      17 UNK        -0.5000 
     95 CA         -0.4526  -21.8027  -52.8597 C.3       17 UNK         0.1400 
     96 CB         -0.3127  -20.4931  -52.0515 C.3       17 UNK        -0.1800 
     97 C          -1.5379  -21.6960  -53.9475 C.2       17 UNK         0.5000 
     98 O          -2.3717  -22.6007  -54.0692 O.2       17 UNK        -0.5000 
     99 N          -1.5465  -20.5917  -54.7051 N.am      18 UNK        -0.5000 
    100 CA        -2.5384  -20.2677  -55.7371 C.3       18 UNK         0.1400 
    101 CB        -1.9530  -19.1827  -56.6589 C.3       18 UNK        -0.1800 
    102 C         -3.9052  -19.8547  -55.1429 C.2       18 UNK         0.5000 
    103 O         -4.4213  -18.7795  -55.4521 O.2       18 UNK        -0.5000 
    104 N         -4.4711  -20.7074  -54.2805 N.am      19 UNK        -0.5000 
    105 CA        -5.7162  -20.4854  -53.5405 C.3       19 UNK         0.1400 
    106 CB        -5.9425  -21.6596  -52.5778 C.3       19 UNK        -0.1800 
    107 C         -6.9471  -20.2614  -54.4395 C.2       19 UNK         0.5000 
    108 O         -7.8618  -19.5403  -54.0434 O.2       19 UNK        -0.5000 
    109 N         -6.9255  -20.8321  -55.6516 N.am      20 UNK        -0.5000 
    110 CA        -7.9294  -20.6146  -56.6945 C.3       20 UNK         0.1400 
    111 CB        -7.6926  -21.6203  -57.8316 C.3       20 UNK        -0.1800 
    112 C         -7.9425  -19.1723  -57.2439 C.2       20 UNK         0.5000 
    113 O         -8.9913  -18.7154  -57.7003 O.2       20 UNK        -0.5000 
    114 N         -6.7932  -18.4844  -57.1885 N.am      21 UNK        -0.5000 
    115 CA        -6.6490  -17.0814  -57.5708 C.3       21 UNK         0.1400 
    116 CB        -5.2653  -16.8604  -58.2039 C.3       21 UNK        -0.1800 
    117 C         -6.8486  -16.1589  -56.3573 C.2       21 UNK         0.5000 
    118 O         -7.5430  -15.1483  -56.4757 O.2       21 UNK        -0.5000 
    119 N         -6.2398  -16.5185  -55.2188 N.am      22 UNK        -0.5000 
    120 CA        -6.3142  -15.7554  -53.9620 C.3       22 UNK         0.1400 
    121 C         -7.7006  -15.7924  -53.2571 C.2       22 UNK         0.5000 
    122 N         -8.5090  -16.8315  -53.4185 N.am      22 UNK        -0.7600 
    123 O         -8.0542  -14.8497  -52.5542 O.2       22 UNK        -0.5000 
    124 C124       -5.1901  -16.1541  -52.9752 C.3       23 UNK        -0.0398 
    125 S125       -3.5359  -15.6689  -53.5746 S.3       23 UNK        -0.2404 
    126 C126       -2.4857  -17.0208  -52.9509 C.3       23 UNK        -0.0205 
    127 H127       -0.1096   -9.9203  -49.0692 H         1 UNK         0.0600 
    128 H128       -1.2842  -11.2198  -48.8463 H         1 UNK         0.0600 
    129 H129       -1.0065  -10.5491  -50.4559 H         1 UNK         0.0600 
    130 H130       -0.2691  -13.1743  -48.5079 H         1 UNK         0.3000 
    131 H131        1.8659  -14.1173  -50.2308 H         1 UNK         0.0600 
    132 H132        1.6514  -16.2294  -48.8025 H         1 UNK         0.0800 
    133 H133        0.3296  -15.8057  -49.8179 H         1 UNK         0.0800 
    134 H134       -2.6353  -15.2826  -47.4020 H         1 UNK         0.0800 
    135 H135       -1.9510  -14.3685  -48.7134 H         1 UNK         0.0800 
    136 H136       -1.8112  -15.3181  -50.9387 H         1 UNK         0.1150 
    137 H137       -3.4741  -19.2040  -51.6410 H         1 UNK         0.1150 
    138 H138       -2.9570  -17.7927  -47.6336 H         1 UNK         0.1150 
    139 H139       -4.1898  -19.8552  -48.0339 H         1 UNK         0.0800 
    140 H140       -4.7015  -20.2293  -49.6563 H         1 UNK         0.0800 
    141 H141       -2.1830  -20.4481  -46.9474 H         1 UNK         0.0800 
    142 H142       -0.7235  -20.6262  -47.8763 H         1 UNK         0.0800 
    143 H143       -0.7530  -23.0710  -47.5740 H         1 UNK         0.0600 
    144 H144       -0.2903  -21.2968  -45.4824 H         1 UNK         0.3000 
    145 H145        0.7803  -23.5987  -42.9526 H         1 UNK         0.0600 
    146 H146        2.6950  -23.1285  -44.4691 H         1 UNK         0.0600 
    147 H147        2.1604  -21.4646  -44.6632 H         1 UNK         0.0600 
    148 H148        2.7041  -22.0406  -43.0898 H         1 UNK         0.0600 
    149 H149        0.5118  -20.7808  -42.8705 H         1 UNK         0.3000 
    150 H150       -2.8853  -20.7053  -41.6469 H         1 UNK         0.0600 
    151 H151       -1.3044  -21.0618  -39.7365 H         1 UNK         0.0600 
    152 H152       -1.7211  -19.3667  -39.9325 H         1 UNK         0.0600 
    153 H153       -0.1529  -19.9569  -40.4776 H         1 UNK         0.0600 
    154 H154       -1.1489  -18.5732  -42.3009 H         1 UNK         0.3000 
    155 H155       -2.0208  -18.2801  -45.7691 H         1 UNK         0.0600 
    156 H156       -2.5181  -16.5469  -43.2938 H         1 UNK         0.0600 
    157 H157       -2.3955  -15.9504  -44.9473 H         1 UNK         0.0600 
    158 H158       -3.7223  -17.0095  -44.4893 H         1 UNK         0.0600 
    159 H159       -0.1551  -16.8106  -44.2554 H         1 UNK         0.3000 
    160 H160        2.6495  -18.9849  -44.7727 H         1 UNK         0.0600 
    161 H161        2.1188  -16.1389  -45.7421 H         1 UNK         0.0600 
    162 H162        2.3122  -17.5095  -46.8295 H         1 UNK         0.0600 
    163 H163        3.6348  -17.0494  -45.7844 H         1 UNK         0.0600 
    164 H164        2.1756  -16.4708  -43.3809 H         1 UNK         0.3000 
    165 H165        1.5743  -17.9540  -40.2044 H         1 UNK         0.0600 
    166 H166        3.4971  -16.5190  -39.5735 H         1 UNK         0.0600 
    167 H167        4.0500  -17.9762  -40.3851 H         1 UNK         0.0600 
    168 H168        4.0258  -16.4479  -41.2526 H         1 UNK         0.0600 
    169 H169        1.8411  -15.2472  -41.2178 H         1 UNK         0.3000 
    170 H170       -1.6339  -14.8059  -41.8909 H         1 UNK         0.0600 
    171 H171       -1.5709  -14.6502  -39.3953 H         1 UNK         0.0600 
    172 H172       -0.0401  -13.7866  -39.4808 H         1 UNK         0.0600 
    173 H173       -1.5066  -13.0625  -40.1427 H         1 UNK         0.0600 
    174 H174        0.3957  -12.8735  -41.7687 H         1 UNK         0.3000 
    175 H175        0.8155  -12.6392  -45.0941 H         1 UNK         0.0600 
    176 H176        2.0193  -11.7200  -42.4200 H         1 UNK         0.0600 
    177 H177        2.0238  -10.8190  -43.9293 H         1 UNK         0.0600 
    178 H178        0.5047  -11.1413  -43.1184 H         1 UNK         0.0600 
    179 H179        2.8872  -13.2441  -45.5309 H         1 UNK         0.3000 
    180 H180        5.6041  -13.5536  -44.1419 H         1 UNK         0.0600 
    181 H181        4.7866  -16.4889  -43.8825 H         1 UNK         0.0600 
    182 H182        5.7331  -15.5309  -42.7564 H         1 UNK         0.0600 
    183 H183        6.4059  -15.9490  -44.3202 H         1 UNK         0.0600 
    184 H184        4.1397  -15.1638  -46.2065 H         1 UNK         0.3000 
    185 H185        5.4277  -13.0666  -48.7552 H         1 UNK         0.0600 
    186 H186        7.2221  -14.8046  -48.5099 H         1 UNK         0.0600 
    187 H187        5.9876  -16.0445  -48.3255 H         1 UNK         0.0600 
    188 H188        6.1359  -15.1558  -49.8424 H         1 UNK         0.0600 
    189 H189        3.8088  -15.0782  -49.3633 H         1 UNK         0.3000 
    190 H190       -3.0627  -21.9804  -45.0410 H         1 UNK         0.3000 
    191 H191       -5.2384  -23.6145  -45.8596 H         1 UNK         0.0600 
    192 H192       -4.5825  -22.3698  -43.1363 H         1 UNK         0.0600 
    193 H193       -6.1505  -23.0175  -43.6068 H         1 UNK         0.0600 
    194 H194       -5.5016  -21.6079  -44.4324 H         1 UNK         0.0600 
    195 H195       -2.5642  -24.2179  -43.5579 H         1 UNK         0.3000 
    196 H196       -3.5970  -26.5994  -42.4393 H         1 UNK         0.0600 
    197 H197       -1.2494  -26.9106  -41.6019 H         1 UNK         0.0600 
    198 H198       -1.8786  -25.3024  -41.2906 H         1 UNK         0.0600 
    199 H199       -0.7253  -25.5592  -42.5980 H         1 UNK         0.0600 
    200 H200       -0.9896  -26.2570  -44.9436 H         1 UNK         0.3000 
    201 H201       -1.7324  -28.7291  -46.2510 H         1 UNK         0.0600 
    202 H202       -0.7553  -29.7967  -44.2343 H         1 UNK         0.0600 
    203 H203        0.6973  -28.8092  -44.3725 H         1 UNK         0.0600 
    204 H204        0.3373  -30.0384  -45.5778 H         1 UNK         0.0600 
    205 H205        0.4333  -25.9436  -46.0049 H         1 UNK         0.3000 
    206 H206        2.3795  -26.9000  -47.8639 H         1 UNK         0.0600 
    207 H207        3.2794  -24.6288  -47.7266 H         1 UNK         0.0600 
    208 H208        1.7893  -24.0143  -47.0346 H         1 UNK         0.0600 
    209 H209        2.7954  -25.1382  -46.1159 H         1 UNK         0.0600 
    210 H210       -0.6051  -25.1209  -48.2589 H         1 UNK         0.3000 
    211 H211       -1.8049  -24.3088  -49.9078 H         1 UNK         0.0600 
    212 H212       -0.2432  -26.1221  -51.8261 H         1 UNK         0.0600 
    213 H213       -1.8564  -25.4704  -52.0725 H         1 UNK         0.0600 
    214 H214       -1.5823  -26.6600  -50.8152 H         1 UNK         0.0600 
    215 H215       -1.6904  -23.3628  -52.3158 H         1 UNK         0.3000 
    216 H216        0.4949  -22.0368  -53.3475 H         1 UNK         0.0600 
    217 H217       -1.2425  -20.2433  -51.5464 H         1 UNK         0.0600 
    218 H218       -0.0442  -19.6491  -52.6867 H         1 UNK         0.0600 
    219 H219        0.4640  -20.5636  -51.2914 H         1 UNK         0.0600 
    220 H220       -0.8413  -19.8893  -54.5373 H         1 UNK         0.3000 
    221 H221       -2.7111  -21.1594  -56.3430 H         1 UNK         0.0600 
    222 H222       -1.7680  -18.2526  -56.1196 H         1 UNK         0.0600 
    223 H223       -1.0118  -19.5070  -57.1032 H         1 UNK         0.0600 
    224 H224       -2.6348  -18.9561  -57.4797 H         1 UNK         0.0600 
    225 H225       -3.9660  -21.5673  -54.0845 H         1 UNK         0.3000 
    226 H226       -5.5861  -19.5813  -52.9440 H         1 UNK         0.0600 
    227 H227       -5.1124  -21.7608  -51.8779 H         1 UNK         0.0600 
    228 H228       -6.8482  -21.5131  -51.9877 H         1 UNK         0.0600 
    229 H229       -6.0469  -22.6038  -53.1137 H         1 UNK         0.0600 
    230 H230       -6.1349  -21.4113  -55.8927 H         1 UNK         0.3000 
    231 H231       -8.9130  -20.8112  -56.2627 H         1 UNK         0.0600 
    232 H232       -8.4415  -21.5058  -58.6164 H         1 UNK         0.0600 
    233 H233       -7.7568  -22.6469  -57.4706 H         1 UNK         0.0600 
    234 H234       -6.7126  -21.4850  -58.2908 H         1 UNK         0.0600 
    235 H235       -5.9874  -18.9080  -56.7442 H         1 UNK         0.3000 
    236 H236       -7.4004  -16.8225  -58.3198 H         1 UNK         0.0600 
    237 H237       -5.1240  -17.5006  -59.0747 H         1 UNK         0.0600 
    238 H238       -5.1521  -15.8280  -58.5369 H         1 UNK         0.0600 
    239 H239       -4.4566  -17.0665  -57.5023 H         1 UNK         0.0600 
    240 H240       -5.6390  -17.3374  -55.2200 H         1 UNK         0.3000 
    241 H241       -6.1522  -14.7069  -54.2214 H         1 UNK         0.0600 
    242 H242       -8.2103  -17.6701  -53.9073 H         1 UNK         0.3800 
    243 H243       -9.4055  -16.8277  -52.9595 H         1 UNK         0.3800 
    244 H244       -5.3302  -15.6733  -52.0050 H         1 UNK         0.0800 
    245 H245       -5.2180  -17.2281  -52.7909 H         1 UNK         0.0800 
    246 H246       -1.4445  -16.7928  -53.1824 H         1 UNK         0.0800 
    247 H247       -2.7217  -17.9342  -53.4918 H         1 UNK         0.0800 
@<TRIPOS>BOND
     1    1    2 1    
     2    1  127 1    
     3    1  128 1    
     4    1  129 1    
     5    2    3 2    
     6    2    4 am   BACKBONE|DICT|INTERRES
     7    4    5 1    
     8    4  130 1    
     9    5    6 1    
    10    5   65 1    
    11    5  131 1    
    12    6    7 1    
    13    6  132 1    
    14    6  133 1    
    15    7    8 1    
    16    8    9 1    
    17    8  134 1    
    18    8  135 1    
    19    9   10 ar   
    20    9   14 ar   
    21   10   11 ar   
    22   10  136 1    
    23   11   12 ar   
    24   11  126 1    
    25   12   13 ar   
    26   12  137 1    
    27   13   14 ar   
    28   13   15 1    
    29   14  138 1    
    30   15   16 1    
    31   15  139 1    
    32   15  140 1    
    33   16   17 1    
    34   17   18 1    
    35   17  141 1    
    36   17  142 1    
    37   18   19 1    
    38   18   67 1    
    39   18  143 1    
    40   19   20 am   BACKBONE|DICT|INTERRES
    41   19  144 1    
    42   20   21 2    
    43   20   22 1    
    44   22   23 1    
    45   22   24 1    
    46   22  145 1    
    47   23  146 1    
    48   23  147 1    
    49   23  148 1    
    50   24   25 am   BACKBONE|DICT|INTERRES
    51   24  149 1    
    52   25   26 2    
    53   25   27 1    
    54   27   28 1    
    55   27   29 1    
    56   27  150 1    
    57   28  151 1    
    58   28  152 1    
    59   28  153 1    
    60   29   30 am   BACKBONE|DICT|INTERRES
    61   29  154 1    
    62   30   31 2    
    63   30   32 1    
    64   32   33 1    
    65   32   34 1    
    66   32  155 1    
    67   33  156 1    
    68   33  157 1    
    69   33  158 1    
    70   34   35 am   BACKBONE|DICT|INTERRES
    71   34  159 1    
    72   35   36 2    
    73   35   37 1    
    74   37   38 1    
    75   37   39 1    
    76   37  160 1    
    77   38  161 1    
    78   38  162 1    
    79   38  163 1    
    80   39   40 am   BACKBONE|DICT|INTERRES
    81   39  164 1    
    82   40   41 2    
    83   40   42 1    
    84   42   43 1    
    85   42   44 1    
    86   42  165 1    
    87   43  166 1    
    88   43  167 1    
    89   43  168 1    
    90   44   45 am   BACKBONE|DICT|INTERRES
    91   44  169 1    
    92   45   46 2    
    93   45   47 1    
    94   47   48 1    
    95   47   49 1    
    96   47  170 1    
    97   48  171 1    
    98   48  172 1    
    99   48  173 1    
   100   49   50 am   BACKBONE|DICT|INTERRES
   101   49  174 1    
   102   50   51 2    
   103   50   52 1    
   104   52   53 1    
   105   52   54 1    
   106   52  175 1    
   107   53  176 1    
   108   53  177 1    
   109   53  178 1    
   110   54   55 am   BACKBONE|DICT|INTERRES
   111   54  179 1    
   112   55   56 2    
   113   55   57 1    
   114   57   58 1    
   115   57   59 1    
   116   57  180 1    
   117   58  181 1    
   118   58  182 1    
   119   58  183 1    
   120   59   60 am   BACKBONE|DICT|INTERRES
   121   59  184 1    
   122   60   61 2    
   123   60   62 1    
   124   62   63 1    
   125   62   64 1    
   126   62  185 1    
   127   63  186 1    
   128   63  187 1    
   129   63  188 1    
   130   64   65 am   BACKBONE|DICT|INTERRES
   131   64  189 1    
   132   65   66 2    
   133   67   68 2    
   134   67   69 am   BACKBONE|DICT|INTERRES
   135   69   70 1    
   136   69  190 1    
   137   70   71 1    
   138   70   72 1    
   139   70  191 1    
   140   71  192 1    
   141   71  193 1    
   142   71  194 1    
   143   72   73 2    
   144   72   74 am   BACKBONE|DICT|INTERRES
   145   74   75 1    
   146   74  195 1    
   147   75   76 1    
   148   75   77 1    
   149   75  196 1    
   150   76  197 1    
   151   76  198 1    
   152   76  199 1    
   153   77   78 2    
   154   77   79 am   BACKBONE|DICT|INTERRES
   155   79   80 1    
   156   79  200 1    
   157   80   81 1    
   158   80   82 1    
   159   80  201 1    
   160   81  202 1    
   161   81  203 1    
   162   81  204 1    
   163   82   83 2    
   164   82   84 am   BACKBONE|DICT|INTERRES
   165   84   85 1    
   166   84  205 1    
   167   85   86 1    
   168   85   87 1    
   169   85  206 1    
   170   86  207 1    
   171   86  208 1    
   172   86  209 1    
   173   87   88 2    
   174   87   89 am   BACKBONE|DICT|INTERRES
   175   89   90 1    
   176   89  210 1    
   177   90   91 1    
   178   90   92 1    
   179   90  211 1    
   180   91  212 1    
   181   91  213 1    
   182   91  214 1    
   183   92   93 2    
   184   92   94 am   BACKBONE|DICT|INTERRES
   185   94   95 1    
   186   94  215 1    
   187   95   96 1    
   188   95   97 1    
   189   95  216 1    
   190   96  217 1    
   191   96  218 1    
   192   96  219 1    
   193   97   98 2    
   194   97   99 am   BACKBONE|DICT|INTERRES
   195   99  100 1    
   196   99  220 1    
   197  100  101 1    
   198  100  102 1    
   199  100  221 1    
   200  101  222 1    
   201  101  223 1    
   202  101  224 1    
   203  102  103 2    
   204  102  104 am   BACKBONE|DICT|INTERRES
   205  104  105 1    
   206  104  225 1    
   207  105  106 1    
   208  105  107 1    
   209  105  226 1    
   210  106  227 1    
   211  106  228 1    
   212  106  229 1    
   213  107  108 2    
   214  107  109 am   BACKBONE|DICT|INTERRES
   215  109  110 1    
   216  109  230 1    
   217  110  111 1    
   218  110  112 1    
   219  110  231 1    
   220  111  232 1    
   221  111  233 1    
   222  111  234 1    
   223  112  113 2    
   224  112  114 am   BACKBONE|DICT|INTERRES
   225  114  115 1    
   226  114  235 1    
   227  115  116 1    
   228  115  117 1    
   229  115  236 1    
   230  116  237 1    
   231  116  238 1    
   232  116  239 1    
   233  117  118 2    
   234  117  119 am   BACKBONE|DICT|INTERRES
   235  119  120 1    
   236  119  240 1    
   237  120  121 1    
   238  120  124 1    
   239  120  241 1    
   240  121  122 am   BACKBONE|DICT|INTERRES
   241  121  123 2    
   242  122  242 1    
   243  122  243 1    
   244  124  125 1    
   245  124  244 1    
   246  124  245 1    
   247  125  126 1    
   248  126  246 1    
   249  126  247 1    
@<TRIPOS>SUBSTRUCTURE
     1 UNK         1 GROUP             0       ****    0 ROOT    
