@<TRIPOS>MOLECULE
3R540
247   249    1
SMALL
USER_CHARGES


@<TRIPOS>ATOM
      1 CA          7.1625  -16.6250  -49.7044 C.3       0 UNK        -0.1800 
      2 C           5.7017  -16.4761  -49.3044 C.2       0 UNK         0.5000 
      3 O           5.4119  -16.2225  -48.1369 O.2       0 UNK        -0.5000 
      4 N           4.7865  -16.6310  -50.2700 N.am      1 UNK        -0.5000 
      5 CA          3.3304  -16.5333  -50.0895 C.3       1 UNK         0.1400 
      6 C6          2.5663  -17.0143  -51.3487 C.3       23 UNK        -0.0398 
      7 S7          2.9466  -18.7473  -51.7842 S.3       23 UNK        -0.2404 
      8 C8          1.3954  -19.5924  -51.3465 C.3       23 UNK        -0.0205 
      9 C9          1.0920  -19.5029  -49.8610 C.ar      23 UNK        -0.0193 
     10 C10         0.0639  -18.6730  -49.4058 C.ar      23 UNK        -0.1150 
     11 C11        -0.2378  -18.6010  -48.0452 C.ar      23 UNK        -0.0193 
     12 C12         0.5158  -19.3490  -47.1375 C.ar      23 UNK        -0.1150 
     13 C13         1.5365  -20.1959  -47.5787 C.ar      23 UNK        -0.0193 
     14 C14         1.8236  -20.2633  -48.9446 C.ar      23 UNK        -0.1150 
     15 C15         2.3386  -21.0260  -46.5854 C.3       23 UNK        -0.0205 
     16 S16         1.2952  -21.8731  -45.3523 S.3       23 UNK        -0.2404 
     17 C17         0.5554  -23.2459  -46.3109 C.3       23 UNK        -0.0398 
     18 CA         -0.8975  -23.0235  -46.8351 C.3       11 UNK         0.1400 
     19 N          -1.7436  -22.2355  -45.9373 N.am      11 UNK        -0.5000 
     20 C          -2.4224  -22.7312  -44.9001 C.2       10 UNK         0.5000 
     21 O          -2.3981  -23.9169  -44.5648 O.2       10 UNK        -0.5000 
     22 CA         -3.2147  -21.7120  -44.0731 C.3       10 UNK         0.1400 
     23 CB         -4.3746  -22.3474  -43.2831 C.3       10 UNK        -0.1800 
     24 N          -2.2801  -21.0687  -43.1604 N.am      10 UNK        -0.5000 
     25 C          -2.3706  -19.8128  -42.7130 C.2       9 UNK         0.5000 
     26 O          -3.3111  -19.0627  -42.9859 O.2       9 UNK        -0.5000 
     27 CA         -1.2322  -19.3445  -41.7820 C.3       9 UNK         0.1400 
     28 CB          0.1495  -19.8696  -42.2227 C.3       9 UNK        -0.1800 
     29 N          -1.1746  -17.8861  -41.7094 N.am      9 UNK        -0.5000 
     30 C          -1.7437  -17.1343  -40.7582 C.2       8 UNK         0.5000 
     31 O          -2.3835  -17.6038  -39.8152 O.2       8 UNK        -0.5000 
     32 CA         -1.5530  -15.6037  -40.8365 C.3       8 UNK         0.1400 
     33 CB         -0.5826  -15.1304  -39.7423 C.3       8 UNK        -0.1800 
     34 N          -1.0557  -15.1357  -42.1297 N.am      8 UNK        -0.5000 
     35 C          -1.7936  -15.0168  -43.2405 C.2       7 UNK         0.5000 
     36 O          -3.0090  -15.2069  -43.2774 O.2       7 UNK        -0.5000 
     37 CA         -1.0435  -14.6410  -44.5350 C.3       7 UNK         0.1400 
     38 CB         -1.0442  -13.1189  -44.7374 C.3       7 UNK        -0.1800 
     39 N           0.3365  -15.1338  -44.5894 N.am      7 UNK        -0.5000 
     40 C           0.6927  -16.4252  -44.5334 C.2       6 UNK         0.5000 
     41 O          -0.1116  -17.3442  -44.4083 O.2       6 UNK        -0.5000 
     42 CA          2.1963  -16.7392  -44.5552 C.3       6 UNK         0.1400 
     43 CB          2.7829  -16.5993  -45.9678 C.3       6 UNK        -0.1800 
     44 N           2.9256  -15.8771  -43.6284 N.am      6 UNK        -0.5000 
     45 C           2.9020  -16.0116  -42.2948 C.2       5 UNK         0.5000 
     46 O           2.3272  -16.9269  -41.7069 O.2       5 UNK        -0.5000 
     47 CA          3.6214  -14.9221  -41.4780 C.3       5 UNK         0.1400 
     48 CB          5.0999  -15.2860  -41.2755 C.3       5 UNK        -0.1800 
     49 N           3.5315  -13.5982  -42.0961 N.am      5 UNK        -0.5000 
     50 C           2.3969  -12.8958  -42.2256 C.2       4 UNK         0.5000 
     51 O           1.3039  -13.2773  -41.8090 O.2       4 UNK        -0.5000 
     52 CA          2.4978  -11.5662  -42.9958 C.3       4 UNK         0.1400 
     53 CB          2.9161  -10.4262  -42.0553 C.3       4 UNK        -0.1800 
     54 N           3.4260  -11.6301  -44.1294 N.am      4 UNK        -0.5000 
     55 C           3.2546  -12.4146  -45.2008 C.2       3 UNK         0.5000 
     56 O           2.3010  -13.1840  -45.3395 O.2       3 UNK        -0.5000 
     57 CA          4.3492  -12.3677  -46.2714 C.3       3 UNK         0.1400 
     58 CB          5.4708  -13.3693  -45.9472 C.3       3 UNK        -0.1800 
     59 N           3.7560  -12.6965  -47.5626 N.am      3 UNK        -0.5000 
     60 C           4.1663  -12.2239  -48.7424 C.2       2 UNK         0.5000 
     61 O           5.1455  -11.4871  -48.8781 O.2       2 UNK        -0.5000 
     62 CA          3.3594  -12.6770  -49.9731 C.3       2 UNK         0.1400 
     63 CB          3.7161  -11.8837  -51.2436 C.3       2 UNK        -0.1800 
     64 N           3.5930  -14.0955  -50.2284 N.am      2 UNK        -0.5000 
     65 C           2.8776  -15.1048  -49.7151 C.2       1 UNK         0.5000 
     66 O           1.9040  -14.9432  -48.9790 O.2       1 UNK        -0.5000 
     67 C          -1.0026  -22.5366  -48.2954 C.2       11 UNK         0.5000 
     68 O          -0.1324  -22.8557  -49.1059 O.2       11 UNK        -0.5000 
     69 N          -2.1023  -21.8469  -48.6475 N.am      12 UNK        -0.5000 
     70 CA         -2.3734  -21.3220  -49.9951 C.3       12 UNK         0.1400 
     71 CB         -3.6259  -20.4350  -49.9625 C.3       12 UNK        -0.1800 
     72 C          -2.4993  -22.4026  -51.0878 C.2       12 UNK         0.5000 
     73 O          -2.3356  -22.1007  -52.2712 O.2       12 UNK        -0.5000 
     74 N          -2.7187  -23.6586  -50.6758 N.am      13 UNK        -0.5000 
     75 CA         -2.6771  -24.8514  -51.5209 C.3       13 UNK         0.1400 
     76 CB         -3.0692  -26.0721  -50.6765 C.3       13 UNK        -0.1800 
     77 C          -1.3112  -25.0735  -52.2063 C.2       13 UNK         0.5000 
     78 O          -1.2713  -25.6997  -53.2648 O.2       13 UNK        -0.5000 
     79 N          -0.2293  -24.5071  -51.6460 N.am      14 UNK        -0.5000 
     80 CA          1.1052  -24.4717  -52.2523 C.3       14 UNK         0.1400 
     81 CB          2.1138  -23.9394  -51.2229 C.3       14 UNK        -0.1800 
     82 C           1.1704  -23.6404  -53.5522 C.2       14 UNK         0.5000 
     83 O           2.0378  -23.9004  -54.3865 O.2       14 UNK        -0.5000 
     84 N           0.2426  -22.6863  -53.7177 N.am      15 UNK        -0.5000 
     85 CA          0.0435  -21.9017  -54.9390 C.3       15 UNK         0.1400 
     86 CB         -0.1434  -20.4235  -54.5576 C.3       15 UNK        -0.1800 
     87 C          -1.1427  -22.4272  -55.7756 C.2       15 UNK         0.5000 
     88 O          -1.5635  -21.7507  -56.7150 O.2       15 UNK        -0.5000 
     89 N          -1.6595  -23.6168  -55.4285 N.am      16 UNK        -0.5000 
     90 CA         -2.7829  -24.3198  -56.0552 C.3       16 UNK         0.1400 
     91 CB         -2.4362  -24.7363  -57.5005 C.3       16 UNK        -0.1800 
     92 C          -4.1238  -23.5633  -55.9440 C.2       16 UNK         0.5000 
     93 O          -4.9500  -23.6391  -56.8562 O.2       16 UNK        -0.5000 
     94 N          -4.3283  -22.8567  -54.8221 N.am      17 UNK        -0.5000 
     95 CA         -5.5922  -22.2014  -54.4799 C.3       17 UNK         0.1400 
     96 CB         -5.3698  -21.2942  -53.2618 C.3       17 UNK        -0.1800 
     97 C          -6.7176  -23.2187  -54.1978 C.2       17 UNK         0.5000 
     98 O          -6.4415  -24.3665  -53.8383 O.2       17 UNK        -0.5000 
     99 N          -7.9704  -22.7669  -54.3477 N.am      18 UNK        -0.5000 
    100 CA        -9.1860  -23.5722  -54.1742 C.3       18 UNK         0.1400 
    101 CB       -10.3921  -22.7649  -54.6791 C.3       18 UNK        -0.1800 
    102 C         -9.4300  -24.0559  -52.7295 C.2       18 UNK         0.5000 
    103 O        -10.1274  -25.0523  -52.5337 O.2       18 UNK        -0.5000 
    104 N         -8.8466  -23.3557  -51.7531 N.am      19 UNK        -0.5000 
    105 CA        -8.7974  -23.7238  -50.3452 C.3       19 UNK         0.1400 
    106 CB        -9.9200  -23.0028  -49.5809 C.3       19 UNK        -0.1800 
    107 C         -7.4177  -23.3198  -49.8124 C.2       19 UNK         0.5000 
    108 O         -6.8098  -22.3883  -50.3454 O.2       19 UNK        -0.5000 
    109 N         -6.9478  -24.0161  -48.7707 N.am      20 UNK        -0.5000 
    110 CA        -5.6496  -23.7562  -48.1456 C.3       20 UNK         0.1400 
    111 CB        -5.2244  -24.9775  -47.3170 C.3       20 UNK        -0.1800 
    112 C         -5.6318  -22.4866  -47.2765 C.2       20 UNK         0.5000 
    113 O         -4.5609  -21.9115  -47.0916 O.2       20 UNK        -0.5000 
    114 N         -6.7973  -22.0835  -46.7521 N.am      21 UNK        -0.5000 
    115 CA        -6.9756  -20.9048  -45.9053 C.3       21 UNK         0.1400 
    116 CB        -8.4276  -20.8595  -45.4050 C.3       21 UNK        -0.1800 
    117 C         -6.6036  -19.6011  -46.6357 C.2       21 UNK         0.5000 
    118 O         -7.1368  -19.3312  -47.7139 O.2       21 UNK        -0.5000 
    119 N         -5.7034  -18.8237  -46.0264 N.am      22 UNK        -0.5000 
    120 CA        -5.1687  -17.5686  -46.5788 C.3       22 UNK         0.1400 
    121 C         -6.0742  -16.3238  -46.3430 C.2       22 UNK         0.5000 
    122 N         -7.1617  -16.4190  -45.5872 N.am      22 UNK        -0.7600 
    123 O         -5.7926  -15.2509  -46.8697 O.2       22 UNK        -0.5000 
    124 C124       -3.7263  -17.3110  -46.0782 C.3       23 UNK        -0.0398 
    125 S125       -2.5793  -18.6447  -46.5628 S.3       23 UNK        -0.2404 
    126 C126       -1.3712  -17.7136  -47.5568 C.3       23 UNK        -0.0205 
    127 H127        7.2723  -16.8483  -50.7659 H         1 UNK         0.0600 
    128 H128        7.6257  -17.4324  -49.1372 H         1 UNK         0.0600 
    129 H129        7.7045  -15.7034  -49.4924 H         1 UNK         0.0600 
    130 H130        5.0908  -16.8699  -51.2031 H         1 UNK         0.3000 
    131 H131        3.0565  -17.1838  -49.2556 H         1 UNK         0.0600 
    132 H132        1.4893  -16.9058  -51.2113 H         1 UNK         0.0800 
    133 H133        2.8190  -16.3913  -52.2085 H         1 UNK         0.0800 
    134 H134        1.4648  -20.6404  -51.6393 H         1 UNK         0.0800 
    135 H135        0.5770  -19.1660  -51.9276 H         1 UNK         0.0800 
    136 H136       -0.5110  -18.0922  -50.1130 H         1 UNK         0.1150 
    137 H137        0.2906  -19.2857  -46.0827 H         1 UNK         0.1150 
    138 H138        2.6120  -20.9114  -49.3001 H         1 UNK         0.1150 
    139 H139        2.9567  -21.7634  -47.0996 H         1 UNK         0.0800 
    140 H140        3.0238  -20.3594  -46.0605 H         1 UNK         0.0800 
    141 H141        0.5360  -24.0977  -45.6301 H         1 UNK         0.0800 
    142 H142        1.2392  -23.5481  -47.1055 H         1 UNK         0.0800 
    143 H143       -1.3438  -24.0182  -46.9019 H         1 UNK         0.0600 
    144 H144       -1.7876  -21.2433  -46.1302 H         1 UNK         0.3000 
    145 H145       -3.6284  -20.9720  -44.7610 H         1 UNK         0.0600 
    146 H146       -5.0454  -22.8922  -43.9485 H         1 UNK         0.0600 
    147 H147       -4.9664  -21.5873  -42.7729 H         1 UNK         0.0600 
    148 H148       -4.0138  -23.0501  -42.5312 H         1 UNK         0.0600 
    149 H149       -1.4682  -21.6189  -42.9157 H         1 UNK         0.3000 
    150 H150       -1.4397  -19.7522  -40.7909 H         1 UNK         0.0600 
    151 H151        0.2269  -20.9497  -42.0965 H         1 UNK         0.0600 
    152 H152        0.9478  -19.4248  -41.6283 H         1 UNK         0.0600 
    153 H153        0.3541  -19.6463  -43.2700 H         1 UNK         0.0600 
    154 H154       -0.7401  -17.4308  -42.5050 H         1 UNK         0.3000 
    155 H155       -2.5257  -15.1438  -40.6505 H         1 UNK         0.0600 
    156 H156        0.4166  -15.5433  -39.8880 H         1 UNK         0.0600 
    157 H157       -0.9247  -15.4358  -38.7527 H         1 UNK         0.0600 
    158 H158       -0.4973  -14.0436  -39.7344 H         1 UNK         0.0600 
    159 H159       -0.0757  -14.8816  -42.1732 H         1 UNK         0.3000 
    160 H160       -1.5833  -15.0937  -45.3678 H         1 UNK         0.0600 
    161 H161       -0.5109  -12.6093  -43.9348 H         1 UNK         0.0600 
    162 H162       -2.0622  -12.7277  -44.7562 H         1 UNK         0.0600 
    163 H163       -0.5720  -12.8452  -45.6811 H         1 UNK         0.0600 
    164 H164        1.0611  -14.4332  -44.7271 H         1 UNK         0.3000 
    165 H165        2.3247  -17.7780  -44.2421 H         1 UNK         0.0600 
    166 H166        3.8272  -16.9096  -45.9900 H         1 UNK         0.0600 
    167 H167        2.2461  -17.2227  -46.6819 H         1 UNK         0.0600 
    168 H168        2.7319  -15.5751  -46.3351 H         1 UNK         0.0600 
    169 H169        3.3825  -15.0701  -44.0251 H         1 UNK         0.3000 
    170 H170        3.1428  -14.8724  -40.4974 H         1 UNK         0.0600 
    171 H171        5.1992  -16.2615  -40.7974 H         1 UNK         0.0600 
    172 H172        5.6386  -15.3284  -42.2230 H         1 UNK         0.0600 
    173 H173        5.6010  -14.5594  -40.6357 H         1 UNK         0.0600 
    174 H174        4.3851  -13.2068  -42.4656 H         1 UNK         0.3000 
    175 H175        1.5055  -11.3351  -43.3880 H         1 UNK         0.0600 
    176 H176        3.9169  -10.5823  -41.6508 H         1 UNK         0.0600 
    177 H177        2.9079   -9.4660  -42.5715 H         1 UNK         0.0600 
    178 H178        2.2297  -10.3455  -41.2113 H         1 UNK         0.0600 
    179 H179        4.2372  -11.0301  -44.0821 H         1 UNK         0.3000 
    180 H180        4.7586  -11.3556  -46.2996 H         1 UNK         0.0600 
    181 H181        5.0965  -14.3933  -45.9110 H         1 UNK         0.0600 
    182 H182        5.9298  -13.1502  -44.9826 H         1 UNK         0.0600 
    183 H183        6.2602  -13.3333  -46.6983 H         1 UNK         0.0600 
    184 H184        2.9361  -13.2915  -47.5167 H         1 UNK         0.3000 
    185 H185        2.3021  -12.5041  -49.7608 H         1 UNK         0.0600 
    186 H186        3.5552  -10.8152  -51.0946 H         1 UNK         0.0600 
    187 H187        4.7593  -12.0232  -51.5303 H         1 UNK         0.0600 
    188 H188        3.0947  -12.1903  -52.0852 H         1 UNK         0.0600 
    189 H189        4.4079  -14.3224  -50.7795 H         1 UNK         0.3000 
    190 H190       -2.8302  -21.6912  -47.9547 H         1 UNK         0.3000 
    191 H191       -1.5266  -20.6985  -50.2794 H         1 UNK         0.0600 
    192 H192       -3.7981  -19.9673  -50.9324 H         1 UNK         0.0600 
    193 H193       -3.5263  -19.6336  -49.2313 H         1 UNK         0.0600 
    194 H194       -4.5196  -21.0065  -49.7133 H         1 UNK         0.0600 
    195 H195       -2.8080  -23.8126  -49.6839 H         1 UNK         0.3000 
    196 H196       -3.4221  -24.7251  -52.3095 H         1 UNK         0.0600 
    197 H197       -2.3829  -26.2226  -49.8422 H         1 UNK         0.0600 
    198 H198       -4.0754  -25.9631  -50.2712 H         1 UNK         0.0600 
    199 H199       -3.0608  -26.9822  -51.2778 H         1 UNK         0.0600 
    200 H200       -0.3333  -23.9950  -50.7753 H         1 UNK         0.3000 
    201 H201        1.3846  -25.4966  -52.5045 H         1 UNK         0.0600 
    202 H202        2.1180  -24.5513  -50.3208 H         1 UNK         0.0600 
    203 H203        1.8859  -22.9148  -50.9289 H         1 UNK         0.0600 
    204 H204        3.1270  -23.9470  -51.6266 H         1 UNK         0.0600 
    205 H205       -0.4609  -22.5542  -52.9990 H         1 UNK         0.3000 
    206 H206        0.9253  -21.9679  -55.5792 H         1 UNK         0.0600 
    207 H207        0.7632  -20.0280  -54.1026 H         1 UNK         0.0600 
    208 H208       -0.3482  -19.8068  -55.4334 H         1 UNK         0.0600 
    209 H209       -0.9682  -20.2862  -53.8575 H         1 UNK         0.0600 
    210 H210       -1.2375  -24.1072  -54.6492 H         1 UNK         0.3000 
    211 H211       -2.9174  -25.2373  -55.4807 H         1 UNK         0.0600 
    212 H212       -3.2035  -25.3925  -57.9129 H         1 UNK         0.0600 
    213 H213       -1.4927  -25.2807  -57.5381 H         1 UNK         0.0600 
    214 H214       -2.3540  -23.8748  -58.1636 H         1 UNK         0.0600 
    215 H215       -3.5991  -22.8215  -54.1223 H         1 UNK         0.3000 
    216 H216       -5.8901  -21.5798  -55.3268 H         1 UNK         0.0600 
    217 H217       -5.1116  -21.8756  -52.3770 H         1 UNK         0.0600 
    218 H218       -6.2681  -20.7236  -53.0238 H         1 UNK         0.0600 
    219 H219       -4.5670  -20.5784  -53.4400 H         1 UNK         0.0600 
    220 H220       -8.1112  -21.8082  -54.6325 H         1 UNK         0.3000 
    221 H221       -9.0865  -24.4621  -54.7991 H         1 UNK         0.0600 
    222 H222      -10.2753  -22.4938  -55.7286 H         1 UNK         0.0600 
    223 H223      -10.5293  -21.8468  -54.1066 H         1 UNK         0.0600 
    224 H224      -11.3130  -23.3438  -54.5960 H         1 UNK         0.0600 
    225 H225       -8.2370  -22.5859  -51.9982 H         1 UNK         0.3000 
    226 H226       -8.9103  -24.8046  -50.2356 H         1 UNK         0.0600 
    227 H227       -9.8212  -21.9186  -49.6507 H         1 UNK         0.0600 
    228 H228      -10.9003  -23.2753  -49.9724 H         1 UNK         0.0600 
    229 H229       -9.9073  -23.2675  -48.5230 H         1 UNK         0.0600 
    230 H230       -7.4981  -24.7703  -48.3849 H         1 UNK         0.3000 
    231 H231       -4.9125  -23.6149  -48.9374 H         1 UNK         0.0600 
    232 H232       -5.9268  -25.1791  -46.5073 H         1 UNK         0.0600 
    233 H233       -4.2426  -24.8218  -46.8669 H         1 UNK         0.0600 
    234 H234       -5.1585  -25.8725  -47.9357 H         1 UNK         0.0600 
    235 H235       -7.6303  -22.6009  -46.9869 H         1 UNK         0.3000 
    236 H236       -6.3237  -21.0196  -45.0378 H         1 UNK         0.0600 
    237 H237       -8.6753  -21.7520  -44.8300 H         1 UNK         0.0600 
    238 H238       -8.5899  -19.9995  -44.7541 H         1 UNK         0.0600 
    239 H239       -9.1357  -20.7845  -46.2314 H         1 UNK         0.0600 
    240 H240       -5.3051  -19.1128  -45.1446 H         1 UNK         0.3000 
    241 H241       -5.1124  -17.6802  -47.6636 H         1 UNK         0.0600 
    242 H242       -7.7423  -15.6067  -45.4483 H         1 UNK         0.3800 
    243 H243       -7.4088  -17.2928  -45.1522 H         1 UNK         0.3800 
    244 H244       -3.7090  -17.2236  -44.9909 H         1 UNK         0.0800 
    245 H245       -3.3519  -16.3615  -46.4632 H         1 UNK         0.0800 
    246 H246       -0.9510  -16.9018  -46.9643 H         1 UNK         0.0800 
    247 H247       -1.8904  -17.2516  -48.3977 H         1 UNK         0.0800 
@<TRIPOS>BOND
     1    1    2 1    
     2    1  127 1    
     3    1  128 1    
     4    1  129 1    
     5    2    3 2    
     6    2    4 am   BACKBONE|DICT|INTERRES
     7    4    5 1    
     8    4  130 1    
     9    5    6 1    
    10    5   65 1    
    11    5  131 1    
    12    6    7 1    
    13    6  132 1    
    14    6  133 1    
    15    7    8 1    
    16    8    9 1    
    17    8  134 1    
    18    8  135 1    
    19    9   10 ar   
    20    9   14 ar   
    21   10   11 ar   
    22   10  136 1    
    23   11   12 ar   
    24   11  126 1    
    25   12   13 ar   
    26   12  137 1    
    27   13   14 ar   
    28   13   15 1    
    29   14  138 1    
    30   15   16 1    
    31   15  139 1    
    32   15  140 1    
    33   16   17 1    
    34   17   18 1    
    35   17  141 1    
    36   17  142 1    
    37   18   19 1    
    38   18   67 1    
    39   18  143 1    
    40   19   20 am   BACKBONE|DICT|INTERRES
    41   19  144 1    
    42   20   21 2    
    43   20   22 1    
    44   22   23 1    
    45   22   24 1    
    46   22  145 1    
    47   23  146 1    
    48   23  147 1    
    49   23  148 1    
    50   24   25 am   BACKBONE|DICT|INTERRES
    51   24  149 1    
    52   25   26 2    
    53   25   27 1    
    54   27   28 1    
    55   27   29 1    
    56   27  150 1    
    57   28  151 1    
    58   28  152 1    
    59   28  153 1    
    60   29   30 am   BACKBONE|DICT|INTERRES
    61   29  154 1    
    62   30   31 2    
    63   30   32 1    
    64   32   33 1    
    65   32   34 1    
    66   32  155 1    
    67   33  156 1    
    68   33  157 1    
    69   33  158 1    
    70   34   35 am   BACKBONE|DICT|INTERRES
    71   34  159 1    
    72   35   36 2    
    73   35   37 1    
    74   37   38 1    
    75   37   39 1    
    76   37  160 1    
    77   38  161 1    
    78   38  162 1    
    79   38  163 1    
    80   39   40 am   BACKBONE|DICT|INTERRES
    81   39  164 1    
    82   40   41 2    
    83   40   42 1    
    84   42   43 1    
    85   42   44 1    
    86   42  165 1    
    87   43  166 1    
    88   43  167 1    
    89   43  168 1    
    90   44   45 am   BACKBONE|DICT|INTERRES
    91   44  169 1    
    92   45   46 2    
    93   45   47 1    
    94   47   48 1    
    95   47   49 1    
    96   47  170 1    
    97   48  171 1    
    98   48  172 1    
    99   48  173 1    
   100   49   50 am   BACKBONE|DICT|INTERRES
   101   49  174 1    
   102   50   51 2    
   103   50   52 1    
   104   52   53 1    
   105   52   54 1    
   106   52  175 1    
   107   53  176 1    
   108   53  177 1    
   109   53  178 1    
   110   54   55 am   BACKBONE|DICT|INTERRES
   111   54  179 1    
   112   55   56 2    
   113   55   57 1    
   114   57   58 1    
   115   57   59 1    
   116   57  180 1    
   117   58  181 1    
   118   58  182 1    
   119   58  183 1    
   120   59   60 am   BACKBONE|DICT|INTERRES
   121   59  184 1    
   122   60   61 2    
   123   60   62 1    
   124   62   63 1    
   125   62   64 1    
   126   62  185 1    
   127   63  186 1    
   128   63  187 1    
   129   63  188 1    
   130   64   65 am   BACKBONE|DICT|INTERRES
   131   64  189 1    
   132   65   66 2    
   133   67   68 2    
   134   67   69 am   BACKBONE|DICT|INTERRES
   135   69   70 1    
   136   69  190 1    
   137   70   71 1    
   138   70   72 1    
   139   70  191 1    
   140   71  192 1    
   141   71  193 1    
   142   71  194 1    
   143   72   73 2    
   144   72   74 am   BACKBONE|DICT|INTERRES
   145   74   75 1    
   146   74  195 1    
   147   75   76 1    
   148   75   77 1    
   149   75  196 1    
   150   76  197 1    
   151   76  198 1    
   152   76  199 1    
   153   77   78 2    
   154   77   79 am   BACKBONE|DICT|INTERRES
   155   79   80 1    
   156   79  200 1    
   157   80   81 1    
   158   80   82 1    
   159   80  201 1    
   160   81  202 1    
   161   81  203 1    
   162   81  204 1    
   163   82   83 2    
   164   82   84 am   BACKBONE|DICT|INTERRES
   165   84   85 1    
   166   84  205 1    
   167   85   86 1    
   168   85   87 1    
   169   85  206 1    
   170   86  207 1    
   171   86  208 1    
   172   86  209 1    
   173   87   88 2    
   174   87   89 am   BACKBONE|DICT|INTERRES
   175   89   90 1    
   176   89  210 1    
   177   90   91 1    
   178   90   92 1    
   179   90  211 1    
   180   91  212 1    
   181   91  213 1    
   182   91  214 1    
   183   92   93 2    
   184   92   94 am   BACKBONE|DICT|INTERRES
   185   94   95 1    
   186   94  215 1    
   187   95   96 1    
   188   95   97 1    
   189   95  216 1    
   190   96  217 1    
   191   96  218 1    
   192   96  219 1    
   193   97   98 2    
   194   97   99 am   BACKBONE|DICT|INTERRES
   195   99  100 1    
   196   99  220 1    
   197  100  101 1    
   198  100  102 1    
   199  100  221 1    
   200  101  222 1    
   201  101  223 1    
   202  101  224 1    
   203  102  103 2    
   204  102  104 am   BACKBONE|DICT|INTERRES
   205  104  105 1    
   206  104  225 1    
   207  105  106 1    
   208  105  107 1    
   209  105  226 1    
   210  106  227 1    
   211  106  228 1    
   212  106  229 1    
   213  107  108 2    
   214  107  109 am   BACKBONE|DICT|INTERRES
   215  109  110 1    
   216  109  230 1    
   217  110  111 1    
   218  110  112 1    
   219  110  231 1    
   220  111  232 1    
   221  111  233 1    
   222  111  234 1    
   223  112  113 2    
   224  112  114 am   BACKBONE|DICT|INTERRES
   225  114  115 1    
   226  114  235 1    
   227  115  116 1    
   228  115  117 1    
   229  115  236 1    
   230  116  237 1    
   231  116  238 1    
   232  116  239 1    
   233  117  118 2    
   234  117  119 am   BACKBONE|DICT|INTERRES
   235  119  120 1    
   236  119  240 1    
   237  120  121 1    
   238  120  124 1    
   239  120  241 1    
   240  121  122 am   BACKBONE|DICT|INTERRES
   241  121  123 2    
   242  122  242 1    
   243  122  243 1    
   244  124  125 1    
   245  124  244 1    
   246  124  245 1    
   247  125  126 1    
   248  126  246 1    
   249  126  247 1    
@<TRIPOS>SUBSTRUCTURE
     1 UNK         1 GROUP             0       ****    0 ROOT    
