@<TRIPOS>MOLECULE
3R540
247   249    1
SMALL
USER_CHARGES


@<TRIPOS>ATOM
      1 CA         -1.5040  -15.8758  -50.1914 C.3       0 UNK        -0.1800 
      2 C          -0.7164  -15.1001  -49.1473 C.2       0 UNK         0.5000 
      3 O           0.4028  -14.6634  -49.4196 O.2       0 UNK        -0.5000 
      4 N          -1.2939  -14.9166  -47.9538 N.am      1 UNK        -0.5000 
      5 CA         -0.7057  -14.2236  -46.8026 C.3       1 UNK         0.1400 
      6 C6         -1.2594  -14.7173  -45.4344 C.3       23 UNK        -0.0398 
      7 S7         -3.0609  -15.0249  -45.3906 S.3       23 UNK        -0.2404 
      8 C8         -3.1137  -16.8290  -45.1325 C.3       23 UNK        -0.0205 
      9 C9         -2.7187  -17.6026  -46.3821 C.ar      23 UNK        -0.0193 
     10 C10        -3.6863  -17.9466  -47.3277 C.ar      23 UNK        -0.1150 
     11 C11        -3.3403  -18.6901  -48.4589 C.ar      23 UNK        -0.0193 
     12 C12        -2.0066  -19.0622  -48.6580 C.ar      23 UNK        -0.1150 
     13 C13        -1.0232  -18.7188  -47.7247 C.ar      23 UNK        -0.0193 
     14 C14        -1.3939  -17.9981  -46.5848 C.ar      23 UNK        -0.1150 
     15 C15         0.4361  -19.0930  -47.9762 C.3       23 UNK        -0.0205 
     16 S16         1.2752  -19.7832  -46.5056 S.3       23 UNK        -0.2404 
     17 C17         1.7929  -21.4410  -47.0602 C.3       23 UNK        -0.0398 
     18 CA          0.8582  -22.6133  -46.6711 C.3       11 UNK         0.1400 
     19 N           0.6375  -22.7740  -45.2288 N.am      11 UNK        -0.5000 
     20 C           0.2997  -23.9501  -44.6740 C.2       10 UNK         0.5000 
     21 O           0.1649  -24.9910  -45.3195 O.2       10 UNK        -0.5000 
     22 CA          0.0264  -23.9688  -43.1582 C.3       10 UNK         0.1400 
     23 CB          1.3413  -23.9087  -42.3662 C.3       10 UNK        -0.1800 
     24 N          -0.8531  -22.8866  -42.7201 N.am      10 UNK        -0.5000 
     25 C          -2.1146  -22.7026  -43.1344 C.2       9 UNK         0.5000 
     26 O          -2.6987  -23.4748  -43.8938 O.2       9 UNK        -0.5000 
     27 CA         -2.8391  -21.4270  -42.6504 C.3       9 UNK         0.1400 
     28 CB         -3.7729  -21.7568  -41.4767 C.3       9 UNK        -0.1800 
     29 N          -1.9544  -20.3209  -42.2618 N.am      9 UNK        -0.5000 
     30 C          -1.0295  -19.7592  -43.0516 C.2       8 UNK         0.5000 
     31 O          -0.8047  -20.1467  -44.1985 O.2       8 UNK        -0.5000 
     32 CA         -0.1991  -18.6137  -42.4480 C.3       8 UNK         0.1400 
     33 CB          0.4360  -19.0207  -41.1007 C.3       8 UNK        -0.1800 
     34 N           0.8503  -18.2227  -43.3876 N.am      8 UNK        -0.5000 
     35 C           1.5343  -17.0750  -43.3486 C.2       7 UNK         0.5000 
     36 O           1.2760  -16.1540  -42.5715 O.2       7 UNK        -0.5000 
     37 CA          2.6861  -16.9192  -44.3589 C.3       7 UNK         0.1400 
     38 CB          2.2131  -16.1969  -45.6252 C.3       7 UNK        -0.1800 
     39 N           3.7908  -16.1498  -43.7907 N.am      7 UNK        -0.5000 
     40 C           4.6729  -16.6174  -42.8993 C.2       6 UNK         0.5000 
     41 O           4.6664  -17.7736  -42.4746 O.2       6 UNK        -0.5000 
     42 CA          5.7480  -15.6364  -42.4043 C.3       6 UNK         0.1400 
     43 CB          6.8495  -15.4634  -43.4629 C.3       6 UNK        -0.1800 
     44 N           5.1771  -14.3258  -42.0917 N.am      6 UNK        -0.5000 
     45 C           5.2225  -13.7334  -40.8897 C.2       5 UNK         0.5000 
     46 O           5.7576  -14.2337  -39.8993 O.2       5 UNK        -0.5000 
     47 CA          4.5738  -12.3381  -40.7610 C.3       5 UNK         0.1400 
     48 CB          5.6415  -11.2391  -40.8753 C.3       5 UNK        -0.1800 
     49 N           3.5376  -12.0931  -41.7635 N.am      5 UNK        -0.5000 
     50 C           2.3376  -12.6875  -41.7807 C.2       4 UNK         0.5000 
     51 O           1.9204  -13.3874  -40.8579 O.2       4 UNK        -0.5000 
     52 CA          1.4567  -12.4758  -43.0323 C.3       4 UNK         0.1400 
     53 CB          0.2233  -11.6282  -42.6834 C.3       4 UNK        -0.1800 
     54 N           2.1293  -11.8685  -44.1900 N.am      4 UNK        -0.5000 
     55 C           3.1738  -12.3759  -44.8589 C.2       3 UNK         0.5000 
     56 O           3.7598  -13.4056  -44.5182 O.2       3 UNK        -0.5000 
     57 CA          3.6084  -11.6121  -46.1237 C.3       3 UNK         0.1400 
     58 CB          4.8210  -12.2623  -46.8139 C.3       3 UNK        -0.1800 
     59 N           2.4957  -11.5685  -47.0700 N.am      3 UNK        -0.5000 
     60 C           1.6209  -10.5625  -47.2126 C.2       2 UNK         0.5000 
     61 O           1.6946   -9.4978  -46.5994 O.2       2 UNK        -0.5000 
     62 CA          0.4291  -10.8288  -48.1545 C.3       2 UNK         0.1400 
     63 CB          0.8132  -10.5559  -49.6163 C.3       2 UNK        -0.1800 
     64 N          -0.0342  -12.2109  -48.0225 N.am      2 UNK        -0.5000 
     65 C          -0.6891  -12.6869  -46.9561 C.2       1 UNK         0.5000 
     66 O          -1.2047  -11.9630  -46.1039 O.2       1 UNK        -0.5000 
     67 C          -0.4668  -22.6115  -47.4543 C.2       11 UNK         0.5000 
     68 O          -0.4852  -23.0929  -48.5857 O.2       11 UNK        -0.5000 
     69 N          -1.5571  -22.1406  -46.8293 N.am      12 UNK        -0.5000 
     70 CA         -2.9130  -22.2059  -47.3791 C.3       12 UNK         0.1400 
     71 CB         -3.8883  -21.4520  -46.4620 C.3       12 UNK        -0.1800 
     72 C          -3.3788  -23.6556  -47.5927 C.2       12 UNK         0.5000 
     73 O          -3.8935  -23.9771  -48.6647 O.2       12 UNK        -0.5000 
     74 N          -3.1447  -24.5050  -46.5823 N.am      13 UNK        -0.5000 
     75 CA         -3.4145  -25.9399  -46.6127 C.3       13 UNK         0.1400 
     76 CB         -3.2387  -26.5258  -45.2038 C.3       13 UNK        -0.1800 
     77 C          -2.5331  -26.6842  -47.6299 C.2       13 UNK         0.5000 
     78 O          -3.0517  -27.5134  -48.3771 O.2       13 UNK        -0.5000 
     79 N          -1.2327  -26.3549  -47.6699 N.am      14 UNK        -0.5000 
     80 CA         -0.2624  -26.9292  -48.6080 C.3       14 UNK         0.1400 
     81 CB          1.1546  -26.4726  -48.2321 C.3       14 UNK        -0.1800 
     82 C          -0.5690  -26.5865  -50.0786 C.2       14 UNK         0.5000 
     83 O          -0.4390  -27.4509  -50.9458 O.2       14 UNK        -0.5000 
     84 N          -1.0015  -25.3431  -50.3255 N.am      15 UNK        -0.5000 
     85 CA         -1.4475  -24.8532  -51.6304 C.3       15 UNK         0.1400 
     86 CB         -1.4213  -23.3169  -51.6060 C.3       15 UNK        -0.1800 
     87 C          -2.8564  -25.3391  -52.0233 C.2       15 UNK         0.5000 
     88 O          -3.2532  -25.1555  -53.1763 O.2       15 UNK        -0.5000 
     89 N          -3.6028  -25.8854  -51.0497 N.am      16 UNK        -0.5000 
     90 CA         -5.0181  -26.2663  -51.1103 C.3       16 UNK         0.1400 
     91 CB         -5.2013  -27.5116  -52.0010 C.3       16 UNK        -0.1800 
     92 C          -5.9182  -25.0852  -51.5323 C.2       16 UNK         0.5000 
     93 O          -6.8657  -25.2710  -52.2985 O.2       16 UNK        -0.5000 
     94 N          -5.5484  -23.8772  -51.0771 N.am      17 UNK        -0.5000 
     95 CA         -6.0254  -22.5437  -51.4668 C.3       17 UNK         0.1400 
     96 CB         -7.5143  -22.3578  -51.1174 C.3       17 UNK        -0.1800 
     97 C          -5.7496  -22.1647  -52.9392 C.2       17 UNK         0.5000 
     98 O          -5.3024  -21.0475  -53.2046 O.2       17 UNK        -0.5000 
     99 N          -6.0268  -23.0907  -53.8633 N.am      18 UNK        -0.5000 
    100 CA        -5.9929  -22.9283  -55.3139 C.3       18 UNK         0.1400 
    101 CB        -6.4598  -24.2339  -55.9747 C.3       18 UNK        -0.1800 
    102 C         -4.6309  -22.4947  -55.8780 C.2       18 UNK         0.5000 
    103 O         -4.5894  -21.5674  -56.6870 O.2       18 UNK        -0.5000 
    104 N         -3.5392  -23.1373  -55.4357 N.am      19 UNK        -0.5000 
    105 CA        -2.1865  -22.8582  -55.9375 C.3       19 UNK         0.1400 
    106 CB        -1.2428  -24.0099  -55.5621 C.3       19 UNK        -0.1800 
    107 C         -1.6221  -21.5033  -55.4638 C.2       19 UNK         0.5000 
    108 O         -0.7048  -20.9758  -56.0933 O.2       19 UNK        -0.5000 
    109 N         -2.1945  -20.9570  -54.3839 N.am      20 UNK        -0.5000 
    110 CA        -1.8953  -19.6287  -53.8498 C.3       20 UNK         0.1400 
    111 CB        -1.9973  -19.6927  -52.3191 C.3       20 UNK        -0.1800 
    112 C         -2.8363  -18.5456  -54.4162 C.2       20 UNK         0.5000 
    113 O         -2.6486  -17.3690  -54.1056 O.2       20 UNK        -0.5000 
    114 N         -3.8286  -18.9574  -55.2224 N.am      21 UNK        -0.5000 
    115 CA        -4.9029  -18.1496  -55.8062 C.3       21 UNK         0.1400 
    116 CB        -4.3415  -17.1063  -56.7951 C.3       21 UNK        -0.1800 
    117 C         -5.8490  -17.5405  -54.7486 C.2       21 UNK         0.5000 
    118 O         -6.4143  -16.4686  -54.9743 O.2       21 UNK        -0.5000 
    119 N         -6.0226  -18.2426  -53.6208 N.am      22 UNK        -0.5000 
    120 CA        -6.9324  -17.8578  -52.5294 C.3       22 UNK         0.1400 
    121 C         -8.4241  -18.2202  -52.7941 C.2       22 UNK         0.5000 
    122 N         -8.7535  -18.9961  -53.8203 N.am      22 UNK        -0.7600 
    123 O         -9.3025  -17.7819  -52.0566 O.2       22 UNK        -0.5000 
    124 C124       -6.4730  -18.4295  -51.1655 C.3       23 UNK        -0.0398 
    125 S125       -4.8312  -17.8403  -50.6379 S.3       23 UNK        -0.2404 
    126 C126       -4.4246  -19.1330  -49.4266 C.3       23 UNK        -0.0205 
    127 H127       -0.9840  -16.8001  -50.4421 H         1 UNK         0.0600 
    128 H128       -2.4997  -16.1324  -49.8311 H         1 UNK         0.0600 
    129 H129       -1.6135  -15.2858  -51.1011 H         1 UNK         0.0600 
    130 H130       -2.2157  -15.2974  -47.7874 H         1 UNK         0.3000 
    131 H131        0.3506  -14.4872  -46.8044 H         1 UNK         0.0600 
    132 H132       -1.0115  -14.0263  -44.6273 H         1 UNK         0.0800 
    133 H133       -0.7427  -15.6330  -45.1550 H         1 UNK         0.0800 
    134 H134       -4.1252  -17.1096  -44.8353 H         1 UNK         0.0800 
    135 H135       -2.4699  -17.1025  -44.2956 H         1 UNK         0.0800 
    136 H136       -4.7159  -17.6567  -47.1716 H         1 UNK         0.1150 
    137 H137       -1.7364  -19.6339  -49.5331 H         1 UNK         0.1150 
    138 H138       -0.6468  -17.7515  -45.8479 H         1 UNK         0.1150 
    139 H139        0.5061  -19.7923  -48.8100 H         1 UNK         0.0800 
    140 H140        0.9696  -18.1945  -48.2884 H         1 UNK         0.0800 
    141 H141        1.9643  -21.4321  -48.1378 H         1 UNK         0.0800 
    142 H142        2.7751  -21.6237  -46.6229 H         1 UNK         0.0800 
    143 H143        1.3876  -23.5078  -47.0038 H         1 UNK         0.0600 
    144 H144        0.6444  -21.9316  -44.6688 H         1 UNK         0.3000 
    145 H145       -0.4691  -24.9134  -42.9241 H         1 UNK         0.0600 
    146 H146        1.1623  -24.0191  -41.2965 H         1 UNK         0.0600 
    147 H147        2.0145  -24.7129  -42.6664 H         1 UNK         0.0600 
    148 H148        1.8656  -22.9653  -42.5233 H         1 UNK         0.0600 
    149 H149       -0.4545  -22.2006  -42.0975 H         1 UNK         0.3000 
    150 H150       -3.4511  -21.0705  -43.4802 H         1 UNK         0.0600 
    151 H151       -4.4664  -22.5565  -41.7412 H         1 UNK         0.0600 
    152 H152       -4.3721  -20.8915  -41.1927 H         1 UNK         0.0600 
    153 H153       -3.2145  -22.0836  -40.5986 H         1 UNK         0.0600 
    154 H154       -2.0792  -19.9610  -41.3268 H         1 UNK         0.3000 
    155 H155       -0.8717  -17.7677  -42.2943 H         1 UNK         0.0600 
    156 H156        1.0332  -18.2112  -40.6807 H         1 UNK         0.0600 
    157 H157        1.0878  -19.8880  -41.2125 H         1 UNK         0.0600 
    158 H158       -0.3206  -19.2683  -40.3559 H         1 UNK         0.0600 
    159 H159        1.0274  -18.9031  -44.1182 H         1 UNK         0.3000 
    160 H160        3.0525  -17.9098  -44.6365 H         1 UNK         0.0600 
    161 H161        1.8820  -15.1874  -45.3871 H         1 UNK         0.0600 
    162 H162        1.3868  -16.7217  -46.1021 H         1 UNK         0.0600 
    163 H163        3.0150  -16.1207  -46.3597 H         1 UNK         0.0600 
    164 H164        3.8403  -15.1746  -44.0728 H         1 UNK         0.3000 
    165 H165        6.2030  -16.0801  -41.5164 H         1 UNK         0.0600 
    166 H166        6.4640  -15.0076  -44.3760 H         1 UNK         0.0600 
    167 H167        7.6558  -14.8319  -43.0896 H         1 UNK         0.0600 
    168 H168        7.2875  -16.4251  -43.7332 H         1 UNK         0.0600 
    169 H169        4.6897  -13.8566  -42.8480 H         1 UNK         0.3000 
    170 H170        4.1196  -12.2730  -39.7700 H         1 UNK         0.0600 
    171 H171        6.4196  -11.3708  -40.1221 H         1 UNK         0.0600 
    172 H172        6.1259  -11.2484  -41.8526 H         1 UNK         0.0600 
    173 H173        5.2084  -10.2503  -40.7233 H         1 UNK         0.0600 
    174 H174        3.7940  -11.5182  -42.5518 H         1 UNK         0.3000 
    175 H175        1.1135  -13.4649  -43.3411 H         1 UNK         0.0600 
    176 H176        0.5033  -10.6165  -42.3879 H         1 UNK         0.0600 
    177 H177       -0.4597  -11.5541  -43.5293 H         1 UNK         0.0600 
    178 H178       -0.3363  -12.0693  -41.8575 H         1 UNK         0.0600 
    179 H179        1.7185  -11.0134  -44.5395 H         1 UNK         0.3000 
    180 H180        3.8927  -10.6020  -45.8217 H         1 UNK         0.0600 
    181 H181        4.6070  -13.2838  -47.1312 H         1 UNK         0.0600 
    182 H182        5.6799  -12.2997  -46.1424 H         1 UNK         0.0600 
    183 H183        5.1227  -11.6949  -47.6945 H         1 UNK         0.0600 
    184 H184        2.3365  -12.4129  -47.5996 H         1 UNK         0.3000 
    185 H185       -0.3835  -10.1532  -47.8789 H         1 UNK         0.0600 
    186 H186        1.1537   -9.5276  -49.7443 H         1 UNK         0.0600 
    187 H187        1.6156  -11.2131  -49.9539 H         1 UNK         0.0600 
    188 H188       -0.0394  -10.7010  -50.2800 H         1 UNK         0.0600 
    189 H189        0.3109  -12.8870  -48.6988 H         1 UNK         0.3000 
    190 H190       -1.4471  -21.7246  -45.9137 H         1 UNK         0.3000 
    191 H191       -2.8978  -21.7126  -48.3519 H         1 UNK         0.0600 
    192 H192       -4.8243  -21.2472  -46.9822 H         1 UNK         0.0600 
    193 H193       -3.4754  -20.4976  -46.1377 H         1 UNK         0.0600 
    194 H194       -4.1365  -22.0235  -45.5686 H         1 UNK         0.0600 
    195 H195       -2.7648  -24.1359  -45.7148 H         1 UNK         0.3000 
    196 H196       -4.4560  -26.0775  -46.9107 H         1 UNK         0.0600 
    197 H197       -3.4436  -27.5970  -45.1966 H         1 UNK         0.0600 
    198 H198       -3.9234  -26.0583  -44.4959 H         1 UNK         0.0600 
    199 H199       -2.2244  -26.3810  -44.8301 H         1 UNK         0.0600 
    200 H200       -0.8740  -25.6941  -46.9889 H         1 UNK         0.3000 
    201 H201       -0.3064  -28.0153  -48.5039 H         1 UNK         0.0600 
    202 H202        1.3936  -26.7282  -47.1997 H         1 UNK         0.0600 
    203 H203        1.2728  -25.3961  -48.3500 H         1 UNK         0.0600 
    204 H204        1.8991  -26.9538  -48.8674 H         1 UNK         0.0600 
    205 H205       -1.0121  -24.6657  -49.5674 H         1 UNK         0.3000 
    206 H206       -0.7501  -25.2035  -52.3934 H         1 UNK         0.0600 
    207 H207       -0.4156  -22.9409  -51.4183 H         1 UNK         0.0600 
    208 H208       -1.7502  -22.9022  -52.5564 H         1 UNK         0.0600 
    209 H209       -2.0795  -22.9157  -50.8341 H         1 UNK         0.0600 
    210 H210       -3.1782  -25.9695  -50.1356 H         1 UNK         0.3000 
    211 H211       -5.3118  -26.5320  -50.0939 H         1 UNK         0.0600 
    212 H212       -4.9708  -27.2994  -53.0456 H         1 UNK         0.0600 
    213 H213       -6.2284  -27.8756  -51.9590 H         1 UNK         0.0600 
    214 H214       -4.5553  -28.3264  -51.6738 H         1 UNK         0.0600 
    215 H215       -4.7844  -23.8733  -50.4060 H         1 UNK         0.3000 
    216 H216       -5.4555  -21.8424  -50.8569 H         1 UNK         0.0600 
    217 H217       -8.1524  -23.0578  -51.6568 H         1 UNK         0.0600 
    218 H218       -7.8598  -21.3555  -51.3708 H         1 UNK         0.0600 
    219 H219       -7.6871  -22.5019  -50.0509 H         1 UNK         0.0600 
    220 H220       -6.3788  -23.9801  -53.5177 H         1 UNK         0.3000 
    221 H221       -6.7124  -22.1465  -55.5652 H         1 UNK         0.0600 
    222 H222       -5.8126  -25.0713  -55.7101 H         1 UNK         0.0600 
    223 H223       -7.4752  -24.4881  -55.6699 H         1 UNK         0.0600 
    224 H224       -6.4593  -24.1464  -57.0620 H         1 UNK         0.0600 
    225 H225       -3.6323  -23.8731  -54.7410 H         1 UNK         0.3000 
    226 H226       -2.2371  -22.8195  -57.0278 H         1 UNK         0.0600 
    227 H227       -1.6358  -24.9700  -55.8971 H         1 UNK         0.0600 
    228 H228       -0.2653  -23.8780  -56.0274 H         1 UNK         0.0600 
    229 H229       -1.0838  -24.0688  -54.4877 H         1 UNK         0.0600 
    230 H230       -2.9668  -21.4466  -53.9532 H         1 UNK         0.3000 
    231 H231       -0.8747  -19.3412  -54.1104 H         1 UNK         0.0600 
    232 H232       -2.9817  -20.0358  -52.0026 H         1 UNK         0.0600 
    233 H233       -1.8299  -18.7131  -51.8699 H         1 UNK         0.0600 
    234 H234       -1.2531  -20.3713  -51.9030 H         1 UNK         0.0600 
    235 H235       -3.8853  -19.9465  -55.4308 H         1 UNK         0.3000 
    236 H236       -5.5143  -18.8448  -56.3831 H         1 UNK         0.0600 
    237 H237       -3.6802  -17.5721  -57.5257 H         1 UNK         0.0600 
    238 H238       -5.1457  -16.6221  -57.3502 H         1 UNK         0.0600 
    239 H239       -3.7808  -16.3226  -56.2852 H         1 UNK         0.0600 
    240 H240       -5.5487  -19.1344  -53.5123 H         1 UNK         0.3000 
    241 H241       -6.9072  -16.7699  -52.4422 H         1 UNK         0.0600 
    242 H242       -8.0443  -19.3594  -54.4353 H         1 UNK         0.3800 
    243 H243       -9.7232  -19.2167  -53.9842 H         1 UNK         0.3800 
    244 H244       -7.1790  -18.1619  -50.3771 H         1 UNK         0.0800 
    245 H245       -6.4569  -19.5173  -51.2060 H         1 UNK         0.0800 
    246 H246       -4.1192  -20.0388  -49.9497 H         1 UNK         0.0800 
    247 H247       -5.3193  -19.3960  -48.8600 H         1 UNK         0.0800 
@<TRIPOS>BOND
     1    1    2 1    
     2    1  127 1    
     3    1  128 1    
     4    1  129 1    
     5    2    3 2    
     6    2    4 am   BACKBONE|DICT|INTERRES
     7    4    5 1    
     8    4  130 1    
     9    5    6 1    
    10    5   65 1    
    11    5  131 1    
    12    6    7 1    
    13    6  132 1    
    14    6  133 1    
    15    7    8 1    
    16    8    9 1    
    17    8  134 1    
    18    8  135 1    
    19    9   10 ar   
    20    9   14 ar   
    21   10   11 ar   
    22   10  136 1    
    23   11   12 ar   
    24   11  126 1    
    25   12   13 ar   
    26   12  137 1    
    27   13   14 ar   
    28   13   15 1    
    29   14  138 1    
    30   15   16 1    
    31   15  139 1    
    32   15  140 1    
    33   16   17 1    
    34   17   18 1    
    35   17  141 1    
    36   17  142 1    
    37   18   19 1    
    38   18   67 1    
    39   18  143 1    
    40   19   20 am   BACKBONE|DICT|INTERRES
    41   19  144 1    
    42   20   21 2    
    43   20   22 1    
    44   22   23 1    
    45   22   24 1    
    46   22  145 1    
    47   23  146 1    
    48   23  147 1    
    49   23  148 1    
    50   24   25 am   BACKBONE|DICT|INTERRES
    51   24  149 1    
    52   25   26 2    
    53   25   27 1    
    54   27   28 1    
    55   27   29 1    
    56   27  150 1    
    57   28  151 1    
    58   28  152 1    
    59   28  153 1    
    60   29   30 am   BACKBONE|DICT|INTERRES
    61   29  154 1    
    62   30   31 2    
    63   30   32 1    
    64   32   33 1    
    65   32   34 1    
    66   32  155 1    
    67   33  156 1    
    68   33  157 1    
    69   33  158 1    
    70   34   35 am   BACKBONE|DICT|INTERRES
    71   34  159 1    
    72   35   36 2    
    73   35   37 1    
    74   37   38 1    
    75   37   39 1    
    76   37  160 1    
    77   38  161 1    
    78   38  162 1    
    79   38  163 1    
    80   39   40 am   BACKBONE|DICT|INTERRES
    81   39  164 1    
    82   40   41 2    
    83   40   42 1    
    84   42   43 1    
    85   42   44 1    
    86   42  165 1    
    87   43  166 1    
    88   43  167 1    
    89   43  168 1    
    90   44   45 am   BACKBONE|DICT|INTERRES
    91   44  169 1    
    92   45   46 2    
    93   45   47 1    
    94   47   48 1    
    95   47   49 1    
    96   47  170 1    
    97   48  171 1    
    98   48  172 1    
    99   48  173 1    
   100   49   50 am   BACKBONE|DICT|INTERRES
   101   49  174 1    
   102   50   51 2    
   103   50   52 1    
   104   52   53 1    
   105   52   54 1    
   106   52  175 1    
   107   53  176 1    
   108   53  177 1    
   109   53  178 1    
   110   54   55 am   BACKBONE|DICT|INTERRES
   111   54  179 1    
   112   55   56 2    
   113   55   57 1    
   114   57   58 1    
   115   57   59 1    
   116   57  180 1    
   117   58  181 1    
   118   58  182 1    
   119   58  183 1    
   120   59   60 am   BACKBONE|DICT|INTERRES
   121   59  184 1    
   122   60   61 2    
   123   60   62 1    
   124   62   63 1    
   125   62   64 1    
   126   62  185 1    
   127   63  186 1    
   128   63  187 1    
   129   63  188 1    
   130   64   65 am   BACKBONE|DICT|INTERRES
   131   64  189 1    
   132   65   66 2    
   133   67   68 2    
   134   67   69 am   BACKBONE|DICT|INTERRES
   135   69   70 1    
   136   69  190 1    
   137   70   71 1    
   138   70   72 1    
   139   70  191 1    
   140   71  192 1    
   141   71  193 1    
   142   71  194 1    
   143   72   73 2    
   144   72   74 am   BACKBONE|DICT|INTERRES
   145   74   75 1    
   146   74  195 1    
   147   75   76 1    
   148   75   77 1    
   149   75  196 1    
   150   76  197 1    
   151   76  198 1    
   152   76  199 1    
   153   77   78 2    
   154   77   79 am   BACKBONE|DICT|INTERRES
   155   79   80 1    
   156   79  200 1    
   157   80   81 1    
   158   80   82 1    
   159   80  201 1    
   160   81  202 1    
   161   81  203 1    
   162   81  204 1    
   163   82   83 2    
   164   82   84 am   BACKBONE|DICT|INTERRES
   165   84   85 1    
   166   84  205 1    
   167   85   86 1    
   168   85   87 1    
   169   85  206 1    
   170   86  207 1    
   171   86  208 1    
   172   86  209 1    
   173   87   88 2    
   174   87   89 am   BACKBONE|DICT|INTERRES
   175   89   90 1    
   176   89  210 1    
   177   90   91 1    
   178   90   92 1    
   179   90  211 1    
   180   91  212 1    
   181   91  213 1    
   182   91  214 1    
   183   92   93 2    
   184   92   94 am   BACKBONE|DICT|INTERRES
   185   94   95 1    
   186   94  215 1    
   187   95   96 1    
   188   95   97 1    
   189   95  216 1    
   190   96  217 1    
   191   96  218 1    
   192   96  219 1    
   193   97   98 2    
   194   97   99 am   BACKBONE|DICT|INTERRES
   195   99  100 1    
   196   99  220 1    
   197  100  101 1    
   198  100  102 1    
   199  100  221 1    
   200  101  222 1    
   201  101  223 1    
   202  101  224 1    
   203  102  103 2    
   204  102  104 am   BACKBONE|DICT|INTERRES
   205  104  105 1    
   206  104  225 1    
   207  105  106 1    
   208  105  107 1    
   209  105  226 1    
   210  106  227 1    
   211  106  228 1    
   212  106  229 1    
   213  107  108 2    
   214  107  109 am   BACKBONE|DICT|INTERRES
   215  109  110 1    
   216  109  230 1    
   217  110  111 1    
   218  110  112 1    
   219  110  231 1    
   220  111  232 1    
   221  111  233 1    
   222  111  234 1    
   223  112  113 2    
   224  112  114 am   BACKBONE|DICT|INTERRES
   225  114  115 1    
   226  114  235 1    
   227  115  116 1    
   228  115  117 1    
   229  115  236 1    
   230  116  237 1    
   231  116  238 1    
   232  116  239 1    
   233  117  118 2    
   234  117  119 am   BACKBONE|DICT|INTERRES
   235  119  120 1    
   236  119  240 1    
   237  120  121 1    
   238  120  124 1    
   239  120  241 1    
   240  121  122 am   BACKBONE|DICT|INTERRES
   241  121  123 2    
   242  122  242 1    
   243  122  243 1    
   244  124  125 1    
   245  124  244 1    
   246  124  245 1    
   247  125  126 1    
   248  126  246 1    
   249  126  247 1    
@<TRIPOS>SUBSTRUCTURE
     1 UNK         1 GROUP             0       ****    0 ROOT    
