@<TRIPOS>MOLECULE
3R540
247   249    1
SMALL
USER_CHARGES


@<TRIPOS>ATOM
      1 CA          2.7712  -10.6567  -50.5648 C.3       0 UNK        -0.1800 
      2 C           2.5571  -11.5471  -49.3486 C.2       0 UNK         0.5000 
      3 O           3.4708  -11.7080  -48.5389 O.2       0 UNK        -0.5000 
      4 N           1.3595  -12.1312  -49.2233 N.am      1 UNK        -0.5000 
      5 CA          0.9494  -12.9815  -48.1016 C.3       1 UNK         0.1400 
      6 C6         -0.3687  -13.7334  -48.4047 C.3       23 UNK        -0.0398 
      7 S7         -0.1682  -14.9538  -49.7482 S.3       23 UNK        -0.2404 
      8 C8         -0.5148  -16.4926  -48.8464 C.3       23 UNK        -0.0205 
      9 C9         -0.2873  -17.7228  -49.7099 C.ar      23 UNK        -0.0193 
     10 C10        -1.3360  -18.2584  -50.4627 C.ar      23 UNK        -0.1150 
     11 C11        -1.1391  -19.4050  -51.2370 C.ar      23 UNK        -0.0193 
     12 C12         0.1162  -20.0197  -51.2499 C.ar      23 UNK        -0.1150 
     13 C13         1.1754  -19.4884  -50.5100 C.ar      23 UNK        -0.0193 
     14 C14         0.9668  -18.3398  -49.7401 C.ar      23 UNK        -0.1150 
     15 C15         2.5501  -20.1402  -50.5702 C.3       23 UNK        -0.0205 
     16 S16         2.6014  -21.7580  -49.7341 S.3       23 UNK        -0.2404 
     17 C17         2.3858  -21.2730  -47.9890 C.3       23 UNK        -0.0398 
     18 CA          1.3694  -22.1485  -47.2190 C.3       11 UNK         0.1400 
     19 N           1.4443  -21.8943  -45.7784 N.am      11 UNK        -0.5000 
     20 C           0.8286  -22.6100  -44.8278 C.2       10 UNK         0.5000 
     21 O           0.1692  -23.6223  -45.0559 O.2       10 UNK        -0.5000 
     22 CA          0.9176  -22.0700  -43.3868 C.3       10 UNK         0.1400 
     23 CB          2.2431  -22.4715  -42.7240 C.3       10 UNK        -0.1800 
     24 N           0.7539  -20.6158  -43.3318 N.am      10 UNK        -0.5000 
     25 C          -0.3718  -19.9748  -43.6792 C.2       9 UNK         0.5000 
     26 O          -1.4138  -20.5488  -43.9929 O.2       9 UNK        -0.5000 
     27 CA         -0.3069  -18.4399  -43.7451 C.3       9 UNK         0.1400 
     28 CB         -0.5945  -17.8156  -42.3735 C.3       9 UNK        -0.1800 
     29 N           0.9852  -17.9698  -44.2462 N.am      9 UNK        -0.5000 
     30 C           1.3804  -18.0997  -45.5199 C.2       8 UNK         0.5000 
     31 O           0.6832  -18.6063  -46.3965 O.2       8 UNK        -0.5000 
     32 CA          2.8058  -17.6280  -45.8640 C.3       8 UNK         0.1400 
     33 CB          2.8320  -16.1091  -46.0869 C.3       8 UNK        -0.1800 
     34 N           3.7816  -17.9842  -44.8338 N.am      8 UNK        -0.5000 
     35 C           4.1187  -19.2407  -44.5092 C.2       7 UNK         0.5000 
     36 O           3.6921  -20.2311  -45.1003 O.2       7 UNK        -0.5000 
     37 CA          5.0404  -19.4269  -43.2863 C.3       7 UNK         0.1400 
     38 CB          6.5105  -19.4823  -43.7263 C.3       7 UNK        -0.1800 
     39 N           4.8799  -18.3888  -42.2617 N.am      7 UNK        -0.5000 
     40 C           3.7330  -18.1064  -41.6281 C.2       6 UNK         0.5000 
     41 O           2.6829  -18.7228  -41.8300 O.2       6 UNK        -0.5000 
     42 CA          3.7656  -16.9014  -40.6671 C.3       6 UNK         0.1400 
     43 CB          4.2164  -15.6228  -41.3972 C.3       6 UNK        -0.1800 
     44 N           2.4492  -16.6422  -40.0926 N.am      6 UNK        -0.5000 
     45 C           1.9166  -17.2409  -39.0241 C.2       5 UNK         0.5000 
     46 O           2.5230  -18.0624  -38.3335 O.2       5 UNK        -0.5000 
     47 CA          0.4698  -16.8235  -38.6634 C.3       5 UNK         0.1400 
     48 CB         -0.0258  -17.4719  -37.3581 C.3       5 UNK        -0.1800 
     49 N           0.2959  -15.3694  -38.5594 N.am      5 UNK        -0.5000 
     50 C           0.2568  -14.5029  -39.5801 C.2       4 UNK         0.5000 
     51 O           0.3856  -14.8349  -40.7614 O.2       4 UNK        -0.5000 
     52 CA          0.1172  -13.0159  -39.2072 C.3       4 UNK         0.1400 
     53 CB          1.4646  -12.4629  -38.7150 C.3       4 UNK        -0.1800 
     54 N          -0.3187  -12.2157  -40.3499 N.am      4 UNK        -0.5000 
     55 C          -1.5664  -12.1721  -40.8368 C.2       3 UNK         0.5000 
     56 O          -2.5278  -12.7327  -40.3088 O.2       3 UNK        -0.5000 
     57 CA         -1.7734  -11.3592  -42.1309 C.3       3 UNK         0.1400 
     58 CB         -2.2341   -9.9309  -41.8008 C.3       3 UNK        -0.1800 
     59 N          -0.5539  -11.2934  -42.9417 N.am      3 UNK        -0.5000 
     60 C          -0.1458  -12.2697  -43.7618 C.2       2 UNK         0.5000 
     61 O          -0.8038  -13.2832  -44.0092 O.2       2 UNK        -0.5000 
     62 CA          1.2599  -12.1035  -44.3660 C.3       2 UNK         0.1400 
     63 CB          2.3010  -12.7813  -43.4600 C.3       2 UNK        -0.1800 
     64 N           1.3466  -12.6916  -45.7014 N.am      2 UNK        -0.5000 
     65 C           0.8138  -12.1552  -46.8057 C.2       1 UNK         0.5000 
     66 O           0.2259  -11.0706  -46.8286 O.2       1 UNK        -0.5000 
     67 C          -0.0746  -22.0049  -47.7510 C.2       11 UNK         0.5000 
     68 O          -0.5432  -22.8857  -48.4737 O.2       11 UNK        -0.5000 
     69 N          -0.7788  -20.9431  -47.3316 N.am      12 UNK        -0.5000 
     70 CA         -2.1908  -20.7151  -47.6445 C.3       12 UNK         0.1400 
     71 CB         -2.6281  -19.3428  -47.1133 C.3       12 UNK        -0.1800 
     72 C          -3.1073  -21.8237  -47.0956 C.2       12 UNK         0.5000 
     73 O          -3.9868  -22.2935  -47.8165 O.2       12 UNK        -0.5000 
     74 N          -2.8624  -22.2507  -45.8489 N.am      13 UNK        -0.5000 
     75 CA         -3.5685  -23.3535  -45.1952 C.3       13 UNK         0.1400 
     76 CB         -3.1887  -23.3993  -43.7077 C.3       13 UNK        -0.1800 
     77 C          -3.3142  -24.7155  -45.8684 C.2       13 UNK         0.5000 
     78 O          -4.2435  -25.5158  -45.9738 O.2       13 UNK        -0.5000 
     79 N          -2.0765  -24.9458  -46.3296 N.am      14 UNK        -0.5000 
     80 CA         -1.6768  -26.1350  -47.0832 C.3       14 UNK         0.1400 
     81 CB         -0.1447  -26.2010  -47.1769 C.3       14 UNK        -0.1800 
     82 C          -2.3171  -26.1916  -48.4824 C.2       14 UNK         0.5000 
     83 O          -2.7424  -27.2669  -48.9069 O.2       14 UNK        -0.5000 
     84 N          -2.3974  -25.0377  -49.1623 N.am      15 UNK        -0.5000 
     85 CA         -3.1037  -24.8750  -50.4356 C.3       15 UNK         0.1400 
     86 CB         -2.7601  -23.5074  -51.0443 C.3       15 UNK        -0.1800 
     87 C          -4.6282  -25.0355  -50.2826 C.2       15 UNK         0.5000 
     88 O          -5.2669  -25.6316  -51.1508 O.2       15 UNK        -0.5000 
     89 N          -5.1670  -24.5133  -49.1715 N.am      16 UNK        -0.5000 
     90 CA         -6.5421  -24.5869  -48.6689 C.3       16 UNK         0.1400 
     91 CB         -6.9709  -26.0448  -48.4141 C.3       16 UNK        -0.1800 
     92 C          -7.5710  -23.8367  -49.5326 C.2       16 UNK         0.5000 
     93 O          -8.2559  -22.9474  -49.0261 O.2       16 UNK        -0.5000 
     94 N          -7.6640  -24.2046  -50.8148 N.am      17 UNK        -0.5000 
     95 CA         -8.5542  -23.5914  -51.7993 C.3       17 UNK         0.1400 
     96 CB         -8.7321  -24.5579  -52.9803 C.3       17 UNK        -0.1800 
     97 C          -8.0365  -22.2296  -52.2955 C.2       17 UNK         0.5000 
     98 O          -8.8468  -21.3690  -52.6426 O.2       17 UNK        -0.5000 
     99 N          -6.7030  -22.0715  -52.3214 N.am      18 UNK        -0.5000 
    100 CA        -5.9603  -20.9280  -52.8606 C.3       18 UNK         0.1400 
    101 CB        -6.1465  -19.6852  -51.9619 C.3       18 UNK        -0.1800 
    102 C         -6.2865  -20.6948  -54.3532 C.2       18 UNK         0.5000 
    103 O         -6.4045  -21.6736  -55.0954 O.2       18 UNK        -0.5000 
    104 N         -6.4170  -19.4267  -54.7715 N.am      19 UNK        -0.5000 
    105 CA        -6.7662  -18.9771  -56.1236 C.3       19 UNK         0.1400 
    106 CB        -8.2593  -19.2564  -56.4073 C.3       19 UNK        -0.1800 
    107 C         -5.8068  -19.5612  -57.1801 C.2       19 UNK         0.5000 
    108 O         -4.6291  -19.2031  -57.1819 O.2       19 UNK        -0.5000 
    109 N         -6.2942  -20.4872  -58.0161 N.am      20 UNK        -0.5000 
    110 CA        -5.5272  -21.2054  -59.0381 C.3       20 UNK         0.1400 
    111 CB        -6.4870  -22.1025  -59.8346 C.3       20 UNK        -0.1800 
    112 C         -4.3415  -22.0329  -58.4946 C.2       20 UNK         0.5000 
    113 O         -3.4291  -22.3429  -59.2617 O.2       20 UNK        -0.5000 
    114 N         -4.3554  -22.3630  -57.1944 N.am      21 UNK        -0.5000 
    115 CA        -3.2676  -23.0592  -56.5064 C.3       21 UNK         0.1400 
    116 CB        -3.7918  -23.6332  -55.1796 C.3       21 UNK        -0.1800 
    117 C         -2.0252  -22.1801  -56.2506 C.2       21 UNK         0.5000 
    118 O         -0.9685  -22.7370  -55.9485 O.2       21 UNK        -0.5000 
    119 N         -2.1511  -20.8482  -56.3478 N.am      22 UNK        -0.5000 
    120 CA        -1.0659  -19.9039  -56.0263 C.3       22 UNK         0.1400 
    121 C         -1.0576  -18.5735  -56.8300 C.2       22 UNK         0.5000 
    122 N         -2.1091  -18.1966  -57.5431 N.am      22 UNK        -0.7600 
    123 O         -0.0479  -17.8740  -56.8363 O.2       22 UNK        -0.5000 
    124 C124       -0.9130  -19.6749  -54.4995 C.3       23 UNK        -0.0398 
    125 S125       -2.4489  -19.1343  -53.6634 S.3       23 UNK        -0.2404 
    126 C126       -2.2832  -19.9769  -52.0584 C.3       23 UNK        -0.0205 
    127 H127        3.6002  -11.0330  -51.1642 H         1 UNK         0.0600 
    128 H128        1.8848  -10.6156  -51.1984 H         1 UNK         0.0600 
    129 H129        3.0105   -9.6414  -50.2488 H         1 UNK         0.0600 
    130 H130        0.6478  -11.9541  -49.9172 H         1 UNK         0.3000 
    131 H131        1.7374  -13.7220  -47.9506 H         1 UNK         0.0600 
    132 H132       -1.1555  -13.0319  -48.6878 H         1 UNK         0.0800 
    133 H133       -0.7332  -14.2436  -47.5107 H         1 UNK         0.0800 
    134 H134        0.1150  -16.5436  -47.9591 H         1 UNK         0.0800 
    135 H135       -1.5458  -16.4700  -48.4910 H         1 UNK         0.0800 
    136 H136       -2.3059  -17.7816  -50.4476 H         1 UNK         0.1150 
    137 H137        0.2757  -20.9107  -51.8404 H         1 UNK         0.1150 
    138 H138        1.7786  -17.9235  -49.1608 H         1 UNK         0.1150 
    139 H139        2.8298  -20.2780  -51.6156 H         1 UNK         0.0800 
    140 H140        3.3096  -19.4874  -50.1370 H         1 UNK         0.0800 
    141 H141        2.1117  -20.2212  -47.9199 H         1 UNK         0.0800 
    142 H142        3.3669  -21.3538  -47.5197 H         1 UNK         0.0800 
    143 H143        1.6595  -23.1914  -47.3632 H         1 UNK         0.0600 
    144 H144        2.0273  -21.1136  -45.4918 H         1 UNK         0.3000 
    145 H145        0.1043  -22.5178  -42.8121 H         1 UNK         0.0600 
    146 H146        2.3067  -22.0916  -41.7041 H         1 UNK         0.0600 
    147 H147        2.3373  -23.5569  -42.6746 H         1 UNK         0.0600 
    148 H148        3.1035  -22.0958  -43.2764 H         1 UNK         0.0600 
    149 H149        1.5539  -20.0652  -43.0416 H         1 UNK         0.3000 
    150 H150       -1.0833  -18.1028  -44.4352 H         1 UNK         0.0600 
    151 H151       -1.5743  -18.1205  -42.0040 H         1 UNK         0.0600 
    152 H152       -0.5927  -16.7271  -42.4296 H         1 UNK         0.0600 
    153 H153        0.1434  -18.1176  -41.6317 H         1 UNK         0.0600 
    154 H154        1.6385  -17.6261  -43.5569 H         1 UNK         0.3000 
    155 H155        3.1028  -18.1157  -46.7949 H         1 UNK         0.0600 
    156 H156        2.1302  -15.8217  -46.8694 H         1 UNK         0.0600 
    157 H157        3.8207  -15.7730  -46.4000 H         1 UNK         0.0600 
    158 H158        2.5625  -15.5657  -45.1808 H         1 UNK         0.0600 
    159 H159        4.1878  -17.2274  -44.3047 H         1 UNK         0.3000 
    160 H160        4.7856  -20.3837  -42.8270 H         1 UNK         0.0600 
    161 H161        6.6654  -20.2628  -44.4727 H         1 UNK         0.0600 
    162 H162        7.1666  -19.7055  -42.8848 H         1 UNK         0.0600 
    163 H163        6.8355  -18.5384  -44.1659 H         1 UNK         0.0600 
    164 H164        5.7026  -17.8443  -42.0468 H         1 UNK         0.3000 
    165 H165        4.4734  -17.1211  -39.8653 H         1 UNK         0.0600 
    166 H166        3.5896  -15.4143  -42.2646 H         1 UNK         0.0600 
    167 H167        4.1691  -14.7556  -40.7380 H         1 UNK         0.0600 
    168 H168        5.2467  -15.7005  -41.7455 H         1 UNK         0.0600 
    169 H169        1.8513  -15.9930  -40.5968 H         1 UNK         0.3000 
    170 H170       -0.1735  -17.1833  -39.4679 H         1 UNK         0.0600 
    171 H171        0.0275  -18.5599  -37.4153 H         1 UNK         0.0600 
    172 H172        0.5704  -17.1571  -36.5007 H         1 UNK         0.0600 
    173 H173       -1.0654  -17.2118  -37.1582 H         1 UNK         0.0600 
    174 H174        0.2304  -15.0056  -37.6197 H         1 UNK         0.3000 
    175 H175       -0.6201  -12.9224  -38.4070 H         1 UNK         0.0600 
    176 H176        1.8136  -13.0005  -37.8325 H         1 UNK         0.0600 
    177 H177        2.2389  -12.5504  -39.4787 H         1 UNK         0.0600 
    178 H178        1.3825  -11.4113  -38.4394 H         1 UNK         0.0600 
    179 H179        0.4089  -11.7550  -40.8730 H         1 UNK         0.3000 
    180 H180       -2.5633  -11.8454  -42.7077 H         1 UNK         0.0600 
    181 H181       -1.4857   -9.3884  -41.2217 H         1 UNK         0.0600 
    182 H182       -3.1552   -9.9435  -41.2165 H         1 UNK         0.0600 
    183 H183       -2.4345   -9.3617  -42.7087 H         1 UNK         0.0600 
    184 H184        0.0317  -10.4809  -42.8105 H         1 UNK         0.3000 
    185 H185        1.4970  -11.0397  -44.4382 H         1 UNK         0.0600 
    186 H186        2.3162  -12.3251  -42.4694 H         1 UNK         0.0600 
    187 H187        2.0824  -13.8412  -43.3248 H         1 UNK         0.0600 
    188 H188        3.3063  -12.6933  -43.8726 H         1 UNK         0.0600 
    189 H189        1.7917  -13.5940  -45.7584 H         1 UNK         0.3000 
    190 H190       -0.3094  -20.2242  -46.7888 H         1 UNK         0.3000 
    191 H191       -2.2869  -20.7066  -48.7320 H         1 UNK         0.0600 
    192 H192       -2.6332  -19.3108  -46.0242 H         1 UNK         0.0600 
    193 H193       -3.6347  -19.0977  -47.4536 H         1 UNK         0.0600 
    194 H194       -1.9635  -18.5557  -47.4622 H         1 UNK         0.0600 
    195 H195       -2.1561  -21.7711  -45.2977 H         1 UNK         0.3000 
    196 H196       -4.6387  -23.1477  -45.2637 H         1 UNK         0.0600 
    197 H197       -2.1230  -23.5814  -43.5691 H         1 UNK         0.0600 
    198 H198       -3.7279  -24.1943  -43.1913 H         1 UNK         0.0600 
    199 H199       -3.4348  -22.4616  -43.2092 H         1 UNK         0.0600 
    200 H200       -1.3486  -24.2656  -46.1332 H         1 UNK         0.3000 
    201 H201       -2.0167  -27.0118  -46.5281 H         1 UNK         0.0600 
    202 H202        0.3093  -26.2330  -46.1864 H         1 UNK         0.0600 
    203 H203        0.2661  -25.3407  -47.7049 H         1 UNK         0.0600 
    204 H204        0.1750  -27.0968  -47.7106 H         1 UNK         0.0600 
    205 H205       -1.9512  -24.2108  -48.7746 H         1 UNK         0.3000 
    206 H206       -2.7527  -25.6501  -51.1200 H         1 UNK         0.0600 
    207 H207       -3.0753  -22.6870  -50.3988 H         1 UNK         0.0600 
    208 H208       -3.2498  -23.3757  -52.0097 H         1 UNK         0.0600 
    209 H209       -1.6865  -23.4083  -51.2068 H         1 UNK         0.0600 
    210 H210       -4.5534  -23.9455  -48.5928 H         1 UNK         0.3000 
    211 H211       -6.5201  -24.0840  -47.7006 H         1 UNK         0.0600 
    212 H212       -7.0133  -26.6289  -49.3336 H         1 UNK         0.0600 
    213 H213       -7.9602  -26.0843  -47.9569 H         1 UNK         0.0600 
    214 H214       -6.2786  -26.5425  -47.7347 H         1 UNK         0.0600 
    215 H215       -7.0187  -24.9181  -51.1441 H         1 UNK         0.3000 
    216 H216       -9.5310  -23.4315  -51.3378 H         1 UNK         0.0600 
    217 H217       -9.4078  -24.1405  -53.7280 H         1 UNK         0.0600 
    218 H218       -9.1561  -25.5073  -52.6528 H         1 UNK         0.0600 
    219 H219       -7.7829  -24.7665  -53.4760 H         1 UNK         0.0600 
    220 H220       -6.1446  -22.8610  -52.0344 H         1 UNK         0.3000 
    221 H221       -4.9073  -21.2071  -52.8243 H         1 UNK         0.0600 
    222 H222       -7.1674  -19.3033  -51.9986 H         1 UNK         0.0600 
    223 H223       -5.9200  -19.9208  -50.9218 H         1 UNK         0.0600 
    224 H224       -5.4762  -18.8768  -52.2562 H         1 UNK         0.0600 
    225 H225       -6.2645  -18.6905  -54.0972 H         1 UNK         0.3000 
    226 H226       -6.6208  -17.8962  -56.1440 H         1 UNK         0.0600 
    227 H227       -8.8922  -18.7383  -55.6867 H         1 UNK         0.0600 
    228 H228       -8.5465  -18.9008  -57.3978 H         1 UNK         0.0600 
    229 H229       -8.5020  -20.3180  -56.3480 H         1 UNK         0.0600 
    230 H230       -7.2615  -20.7567  -57.9114 H         1 UNK         0.3000 
    231 H231       -5.1114  -20.4598  -59.7187 H         1 UNK         0.0600 
    232 H232       -5.9603  -22.6314  -60.6302 H         1 UNK         0.0600 
    233 H233       -7.2773  -21.5170  -60.3048 H         1 UNK         0.0600 
    234 H234       -6.9567  -22.8524  -59.1969 H         1 UNK         0.0600 
    235 H235       -5.1455  -22.0799  -56.6222 H         1 UNK         0.3000 
    236 H236       -2.9520  -23.8966  -57.1322 H         1 UNK         0.0600 
    237 H237       -3.0427  -24.2700  -54.7074 H         1 UNK         0.0600 
    238 H238       -4.0374  -22.8434  -54.4706 H         1 UNK         0.0600 
    239 H239       -4.6849  -24.2396  -55.3317 H         1 UNK         0.0600 
    240 H240       -3.0439  -20.4428  -56.6004 H         1 UNK         0.3000 
    241 H241       -0.1387  -20.3771  -56.3565 H         1 UNK         0.0600 
    242 H242       -2.0541  -17.3370  -58.0651 H         1 UNK         0.3800 
    243 H243       -3.0060  -18.6753  -57.4792 H         1 UNK         0.3800 
    244 H244       -0.5804  -20.6094  -54.0478 H         1 UNK         0.0800 
    245 H245       -0.1238  -18.9522  -54.2849 H         1 UNK         0.0800 
    246 H246       -2.1394  -21.0441  -52.2257 H         1 UNK         0.0800 
    247 H247       -3.2142  -19.8761  -51.5001 H         1 UNK         0.0800 
@<TRIPOS>BOND
     1    1    2 1    
     2    1  127 1    
     3    1  128 1    
     4    1  129 1    
     5    2    3 2    
     6    2    4 am   BACKBONE|DICT|INTERRES
     7    4    5 1    
     8    4  130 1    
     9    5    6 1    
    10    5   65 1    
    11    5  131 1    
    12    6    7 1    
    13    6  132 1    
    14    6  133 1    
    15    7    8 1    
    16    8    9 1    
    17    8  134 1    
    18    8  135 1    
    19    9   10 ar   
    20    9   14 ar   
    21   10   11 ar   
    22   10  136 1    
    23   11   12 ar   
    24   11  126 1    
    25   12   13 ar   
    26   12  137 1    
    27   13   14 ar   
    28   13   15 1    
    29   14  138 1    
    30   15   16 1    
    31   15  139 1    
    32   15  140 1    
    33   16   17 1    
    34   17   18 1    
    35   17  141 1    
    36   17  142 1    
    37   18   19 1    
    38   18   67 1    
    39   18  143 1    
    40   19   20 am   BACKBONE|DICT|INTERRES
    41   19  144 1    
    42   20   21 2    
    43   20   22 1    
    44   22   23 1    
    45   22   24 1    
    46   22  145 1    
    47   23  146 1    
    48   23  147 1    
    49   23  148 1    
    50   24   25 am   BACKBONE|DICT|INTERRES
    51   24  149 1    
    52   25   26 2    
    53   25   27 1    
    54   27   28 1    
    55   27   29 1    
    56   27  150 1    
    57   28  151 1    
    58   28  152 1    
    59   28  153 1    
    60   29   30 am   BACKBONE|DICT|INTERRES
    61   29  154 1    
    62   30   31 2    
    63   30   32 1    
    64   32   33 1    
    65   32   34 1    
    66   32  155 1    
    67   33  156 1    
    68   33  157 1    
    69   33  158 1    
    70   34   35 am   BACKBONE|DICT|INTERRES
    71   34  159 1    
    72   35   36 2    
    73   35   37 1    
    74   37   38 1    
    75   37   39 1    
    76   37  160 1    
    77   38  161 1    
    78   38  162 1    
    79   38  163 1    
    80   39   40 am   BACKBONE|DICT|INTERRES
    81   39  164 1    
    82   40   41 2    
    83   40   42 1    
    84   42   43 1    
    85   42   44 1    
    86   42  165 1    
    87   43  166 1    
    88   43  167 1    
    89   43  168 1    
    90   44   45 am   BACKBONE|DICT|INTERRES
    91   44  169 1    
    92   45   46 2    
    93   45   47 1    
    94   47   48 1    
    95   47   49 1    
    96   47  170 1    
    97   48  171 1    
    98   48  172 1    
    99   48  173 1    
   100   49   50 am   BACKBONE|DICT|INTERRES
   101   49  174 1    
   102   50   51 2    
   103   50   52 1    
   104   52   53 1    
   105   52   54 1    
   106   52  175 1    
   107   53  176 1    
   108   53  177 1    
   109   53  178 1    
   110   54   55 am   BACKBONE|DICT|INTERRES
   111   54  179 1    
   112   55   56 2    
   113   55   57 1    
   114   57   58 1    
   115   57   59 1    
   116   57  180 1    
   117   58  181 1    
   118   58  182 1    
   119   58  183 1    
   120   59   60 am   BACKBONE|DICT|INTERRES
   121   59  184 1    
   122   60   61 2    
   123   60   62 1    
   124   62   63 1    
   125   62   64 1    
   126   62  185 1    
   127   63  186 1    
   128   63  187 1    
   129   63  188 1    
   130   64   65 am   BACKBONE|DICT|INTERRES
   131   64  189 1    
   132   65   66 2    
   133   67   68 2    
   134   67   69 am   BACKBONE|DICT|INTERRES
   135   69   70 1    
   136   69  190 1    
   137   70   71 1    
   138   70   72 1    
   139   70  191 1    
   140   71  192 1    
   141   71  193 1    
   142   71  194 1    
   143   72   73 2    
   144   72   74 am   BACKBONE|DICT|INTERRES
   145   74   75 1    
   146   74  195 1    
   147   75   76 1    
   148   75   77 1    
   149   75  196 1    
   150   76  197 1    
   151   76  198 1    
   152   76  199 1    
   153   77   78 2    
   154   77   79 am   BACKBONE|DICT|INTERRES
   155   79   80 1    
   156   79  200 1    
   157   80   81 1    
   158   80   82 1    
   159   80  201 1    
   160   81  202 1    
   161   81  203 1    
   162   81  204 1    
   163   82   83 2    
   164   82   84 am   BACKBONE|DICT|INTERRES
   165   84   85 1    
   166   84  205 1    
   167   85   86 1    
   168   85   87 1    
   169   85  206 1    
   170   86  207 1    
   171   86  208 1    
   172   86  209 1    
   173   87   88 2    
   174   87   89 am   BACKBONE|DICT|INTERRES
   175   89   90 1    
   176   89  210 1    
   177   90   91 1    
   178   90   92 1    
   179   90  211 1    
   180   91  212 1    
   181   91  213 1    
   182   91  214 1    
   183   92   93 2    
   184   92   94 am   BACKBONE|DICT|INTERRES
   185   94   95 1    
   186   94  215 1    
   187   95   96 1    
   188   95   97 1    
   189   95  216 1    
   190   96  217 1    
   191   96  218 1    
   192   96  219 1    
   193   97   98 2    
   194   97   99 am   BACKBONE|DICT|INTERRES
   195   99  100 1    
   196   99  220 1    
   197  100  101 1    
   198  100  102 1    
   199  100  221 1    
   200  101  222 1    
   201  101  223 1    
   202  101  224 1    
   203  102  103 2    
   204  102  104 am   BACKBONE|DICT|INTERRES
   205  104  105 1    
   206  104  225 1    
   207  105  106 1    
   208  105  107 1    
   209  105  226 1    
   210  106  227 1    
   211  106  228 1    
   212  106  229 1    
   213  107  108 2    
   214  107  109 am   BACKBONE|DICT|INTERRES
   215  109  110 1    
   216  109  230 1    
   217  110  111 1    
   218  110  112 1    
   219  110  231 1    
   220  111  232 1    
   221  111  233 1    
   222  111  234 1    
   223  112  113 2    
   224  112  114 am   BACKBONE|DICT|INTERRES
   225  114  115 1    
   226  114  235 1    
   227  115  116 1    
   228  115  117 1    
   229  115  236 1    
   230  116  237 1    
   231  116  238 1    
   232  116  239 1    
   233  117  118 2    
   234  117  119 am   BACKBONE|DICT|INTERRES
   235  119  120 1    
   236  119  240 1    
   237  120  121 1    
   238  120  124 1    
   239  120  241 1    
   240  121  122 am   BACKBONE|DICT|INTERRES
   241  121  123 2    
   242  122  242 1    
   243  122  243 1    
   244  124  125 1    
   245  124  244 1    
   246  124  245 1    
   247  125  126 1    
   248  126  246 1    
   249  126  247 1    
@<TRIPOS>SUBSTRUCTURE
     1 UNK         1 GROUP             0       ****    0 ROOT    
