@<TRIPOS>MOLECULE
3R540
247   249    1
SMALL
USER_CHARGES


@<TRIPOS>ATOM
      1 CA         -3.6722  -13.2400  -51.2267 C.3       0 UNK        -0.1800 
      2 C          -4.2023  -12.8535  -49.8489 C.2       0 UNK         0.5000 
      3 O          -4.9895  -11.9141  -49.7518 O.2       0 UNK        -0.5000 
      4 N          -3.8280  -13.5401  -48.7609 N.am      1 UNK        -0.5000 
      5 CA         -2.8462  -14.6275  -48.6573 C.3       1 UNK         0.1400 
      6 C6         -2.7840  -15.1627  -47.2058 C.3       23 UNK        -0.0398 
      7 S7         -4.2911  -16.0928  -46.7666 S.3       23 UNK        -0.2404 
      8 C8         -3.6206  -17.7117  -46.2721 C.3       23 UNK        -0.0205 
      9 C9         -3.0705  -18.5076  -47.4458 C.ar      23 UNK        -0.0193 
     10 C10        -3.9141  -19.3317  -48.1959 C.ar      23 UNK        -0.1150 
     11 C11        -3.4037  -20.0978  -49.2483 C.ar      23 UNK        -0.0193 
     12 C12        -2.0442  -20.0188  -49.5573 C.ar      23 UNK        -0.1150 
     13 C13        -1.1897  -19.2024  -48.8144 C.ar      23 UNK        -0.0193 
     14 C14        -1.7087  -18.4546  -47.7554 C.ar      23 UNK        -0.1150 
     15 C15         0.2913  -19.1246  -49.1551 C.3       23 UNK        -0.0205 
     16 S16         1.2186  -20.6081  -48.6585 S.3       23 UNK        -0.2404 
     17 C17         0.9707  -20.6460  -46.8498 C.3       23 UNK        -0.0398 
     18 CA          0.5652  -22.0466  -46.3372 C.3       11 UNK         0.1400 
     19 N           0.7542  -22.1534  -44.8908 N.am      11 UNK        -0.5000 
     20 C           0.7385  -23.2991  -44.1989 C.2       10 UNK         0.5000 
     21 O           0.5760  -24.4055  -44.7104 O.2       10 UNK        -0.5000 
     22 CA          0.8834  -23.1812  -42.6730 C.3       10 UNK         0.1400 
     23 CB          2.3514  -22.9700  -42.2715 C.3       10 UNK        -0.1800 
     24 N           0.0637  -22.0984  -42.1311 N.am      10 UNK        -0.5000 
     25 C          -1.2759  -22.1106  -42.0981 C.2       9 UNK         0.5000 
     26 O          -1.9620  -23.0514  -42.4962 O.2       9 UNK        -0.5000 
     27 CA         -1.9629  -20.8441  -41.5581 C.3       9 UNK         0.1400 
     28 CB         -2.0255  -20.8722  -40.0238 C.3       9 UNK        -0.1800 
     29 N          -1.3045  -19.6118  -41.9926 N.am      9 UNK        -0.5000 
     30 C          -1.2640  -19.1847  -43.2623 C.2       8 UNK         0.5000 
     31 O          -1.7552  -19.7954  -44.2098 O.2       8 UNK        -0.5000 
     32 CA         -0.5065  -17.8708  -43.5179 C.3       8 UNK         0.1400 
     33 CB         -1.3612  -16.6815  -43.0466 C.3       8 UNK        -0.1800 
     34 N           0.8087  -17.8167  -42.8711 N.am      8 UNK        -0.5000 
     35 C           1.7714  -18.7496  -42.9642 C.2       7 UNK         0.5000 
     36 O           1.6680  -19.7592  -43.6606 O.2       7 UNK        -0.5000 
     37 CA          3.0644  -18.5576  -42.1423 C.3       7 UNK         0.1400 
     38 CB          4.2577  -18.2867  -43.0716 C.3       7 UNK        -0.1800 
     39 N           2.9995  -17.4882  -41.1471 N.am      7 UNK        -0.5000 
     40 C           2.2182  -17.4601  -40.0582 C.2       6 UNK         0.5000 
     41 O           1.5042  -18.3995  -39.7052 O.2       6 UNK        -0.5000 
     42 CA          2.1961  -16.1349  -39.2624 C.3       6 UNK         0.1400 
     43 CB          3.0831  -16.2443  -38.0131 C.3       6 UNK        -0.1800 
     44 N           2.6136  -14.9604  -40.0443 N.am      6 UNK        -0.5000 
     45 C           2.0058  -14.5239  -41.1571 C.2       5 UNK         0.5000 
     46 O           0.9893  -15.0512  -41.6144 O.2       5 UNK        -0.5000 
     47 CA          2.6683  -13.3572  -41.9116 C.3       5 UNK         0.1400 
     48 CB          4.1789  -13.5932  -42.1273 C.3       5 UNK        -0.1800 
     49 N           2.0024  -13.2123  -43.2020 N.am      5 UNK        -0.5000 
     50 C           2.0440  -12.1589  -44.0208 C.2       4 UNK         0.5000 
     51 O           2.6724  -11.1279  -43.7725 O.2       4 UNK        -0.5000 
     52 CA          1.2716  -12.3063  -45.3506 C.3       4 UNK         0.1400 
     53 CB          1.2572  -11.0097  -46.1798 C.3       4 UNK        -0.1800 
     54 N           1.8144  -13.3839  -46.1814 N.am      4 UNK        -0.5000 
     55 C           1.6035  -14.6916  -45.9936 C.2       3 UNK         0.5000 
     56 O           0.8998  -15.1431  -45.0910 O.2       3 UNK        -0.5000 
     57 CA          2.2394  -15.6408  -47.0214 C.3       3 UNK         0.1400 
     58 CB          2.2950  -17.0973  -46.5239 C.3       3 UNK        -0.1800 
     59 N           1.4534  -15.5873  -48.2491 N.am      3 UNK        -0.5000 
     60 C           1.6565  -14.7365  -49.2623 C.2       2 UNK         0.5000 
     61 O           2.5996  -13.9468  -49.3177 O.2       2 UNK        -0.5000 
     62 CA          0.6019  -14.7569  -50.3857 C.3       2 UNK         0.1400 
     63 CB          0.9692  -15.8127  -51.4399 C.3       2 UNK        -0.1800 
     64 N          -0.7558  -15.0141  -49.8899 N.am      2 UNK        -0.5000 
     65 C          -1.4425  -14.1701  -49.1046 C.2       1 UNK         0.5000 
     66 O          -1.0091  -13.0815  -48.7224 O.2       1 UNK        -0.5000 
     67 C          -0.8596  -22.4634  -46.7682 C.2       11 UNK         0.5000 
     68 O          -1.0034  -23.1554  -47.7750 O.2       11 UNK        -0.5000 
     69 N          -1.8763  -22.0972  -45.9734 N.am      12 UNK        -0.5000 
     70 CA         -3.2650  -22.5148  -46.1728 C.3       12 UNK         0.1400 
     71 CB         -4.1824  -21.7053  -45.2448 C.3       12 UNK        -0.1800 
     72 C          -3.4837  -24.0254  -45.9589 C.2       12 UNK         0.5000 
     73 O          -4.3070  -24.6188  -46.6568 O.2       12 UNK        -0.5000 
     74 N          -2.7579  -24.6184  -44.9997 N.am      13 UNK        -0.5000 
     75 CA         -2.7820  -26.0544  -44.7151 C.3       13 UNK         0.1400 
     76 CB         -2.1871  -26.3093  -43.3216 C.3       13 UNK        -0.1800 
     77 C          -2.0451  -26.8864  -45.7823 C.2       13 UNK         0.5000 
     78 O          -2.4674  -28.0062  -46.0762 O.2       13 UNK        -0.5000 
     79 N          -0.9598  -26.3314  -46.3365 N.am      14 UNK        -0.5000 
     80 CA         -0.1739  -26.9096  -47.4252 C.3       14 UNK         0.1400 
     81 CB          1.1420  -26.1239  -47.5523 C.3       14 UNK        -0.1800 
     82 C          -0.9303  -26.9115  -48.7683 C.2       14 UNK         0.5000 
     83 O          -1.9128  -26.1869  -48.9439 O.2       14 UNK        -0.5000 
     84 N          -0.4233  -27.6967  -49.7266 N.am      15 UNK        -0.5000 
     85 CA         -0.9459  -27.8264  -51.0907 C.3       15 UNK         0.1400 
     86 CB         -0.4842  -29.1774  -51.6671 C.3       15 UNK        -0.1800 
     87 C          -0.5687  -26.6310  -51.9979 C.2       15 UNK         0.5000 
     88 O          -0.1014  -26.8274  -53.1212 O.2       15 UNK        -0.5000 
     89 N          -0.7718  -25.4072  -51.4938 N.am      16 UNK        -0.5000 
     90 CA         -0.5278  -24.1483  -52.2015 C.3       16 UNK         0.1400 
     91 CB         -0.4693  -23.0119  -51.1740 C.3       16 UNK        -0.1800 
     92 C          -1.5878  -23.8563  -53.2823 C.2       16 UNK         0.5000 
     93 O          -1.2851  -23.1671  -54.2572 O.2       16 UNK        -0.5000 
     94 N          -2.7956  -24.4083  -53.0923 N.am      17 UNK        -0.5000 
     95 CA         -3.9532  -24.4623  -53.9927 C.3       17 UNK         0.1400 
     96 CB         -3.6157  -25.2448  -55.2765 C.3       17 UNK        -0.1800 
     97 C          -4.6096  -23.1088  -54.3262 C.2       17 UNK         0.5000 
     98 O          -5.8185  -22.9696  -54.1361 O.2       17 UNK        -0.5000 
     99 N          -3.8275  -22.1544  -54.8400 N.am      18 UNK        -0.5000 
    100 CA        -4.2967  -20.8613  -55.3360 C.3       18 UNK         0.1400 
    101 CB        -4.9762  -21.0326  -56.7113 C.3       18 UNK        -0.1800 
    102 C         -3.1601  -19.8248  -55.3634 C.2       18 UNK         0.5000 
    103 O         -3.1258  -18.9809  -56.2617 O.2       18 UNK        -0.5000 
    104 N         -2.2475  -19.8853  -54.3835 N.am      19 UNK        -0.5000 
    105 CA        -1.1485  -18.9317  -54.2079 C.3       19 UNK         0.1400 
    106 CB        -0.2156  -19.4320  -53.0985 C.3       19 UNK        -0.1800 
    107 C         -1.6924  -17.5249  -53.8964 C.2       19 UNK         0.5000 
    108 O         -2.2465  -17.3100  -52.8162 O.2       19 UNK        -0.5000 
    109 N         -1.6064  -16.6267  -54.8897 N.am      20 UNK        -0.5000 
    110 CA        -2.2564  -15.3082  -54.9422 C.3       20 UNK         0.1400 
    111 CB        -1.6101  -14.3373  -53.9333 C.3       20 UNK        -0.1800 
    112 C         -3.7942  -15.4009  -54.7994 C.2       20 UNK         0.5000 
    113 O         -4.4197  -14.5285  -54.1963 O.2       20 UNK        -0.5000 
    114 N         -4.3631  -16.5013  -55.3170 N.am      21 UNK        -0.5000 
    115 CA        -5.7580  -16.9400  -55.2006 C.3       21 UNK         0.1400 
    116 CB        -6.7105  -15.9376  -55.8847 C.3       21 UNK        -0.1800 
    117 C         -6.2006  -17.2802  -53.7585 C.2       21 UNK         0.5000 
    118 O         -7.3967  -17.4701  -53.5345 O.2       21 UNK        -0.5000 
    119 N         -5.2504  -17.3614  -52.8126 N.am      22 UNK        -0.5000 
    120 CA        -5.4665  -17.6076  -51.3743 C.3       22 UNK         0.1400 
    121 C         -6.2852  -16.4954  -50.6455 C.2       22 UNK         0.5000 
    122 N         -6.3982  -15.2927  -51.1973 N.am      22 UNK        -0.7600 
    123 O         -6.8111  -16.7112  -49.5576 O.2       22 UNK        -0.5000 
    124 C124       -5.9986  -19.0391  -51.0845 C.3       23 UNK        -0.0398 
    125 S125       -4.8267  -20.3324  -51.6223 S.3       23 UNK        -0.2404 
    126 C126       -4.3042  -21.0416  -50.0305 C.3       23 UNK        -0.0205 
    127 H127       -4.3462  -12.8791  -52.0036 H         1 UNK         0.0600 
    128 H128       -3.5918  -14.3203  -51.3424 H         1 UNK         0.0600 
    129 H129       -2.6947  -12.7904  -51.3996 H         1 UNK         0.0600 
    130 H130       -4.2212  -13.2559  -47.8759 H         1 UNK         0.3000 
    131 H131       -3.1706  -15.4386  -49.3129 H         1 UNK         0.0600 
    132 H132       -1.9108  -15.7943  -47.0515 H         1 UNK         0.0800 
    133 H133       -2.6672  -14.3402  -46.4975 H         1 UNK         0.0800 
    134 H134       -2.8453  -17.5701  -45.5214 H         1 UNK         0.0800 
    135 H135       -4.4122  -18.2799  -45.7826 H         1 UNK         0.0800 
    136 H136       -4.9637  -19.3889  -47.9453 H         1 UNK         0.1150 
    137 H137       -1.6483  -20.6089  -50.3676 H         1 UNK         0.1150 
    138 H138       -1.0468  -17.8450  -47.1593 H         1 UNK         0.1150 
    139 H139        0.4074  -18.9916  -50.2295 H         1 UNK         0.0800 
    140 H140        0.7502  -18.2530  -48.6932 H         1 UNK         0.0800 
    141 H141        0.2484  -19.8972  -46.5270 H         1 UNK         0.0800 
    142 H142        1.9190  -20.3500  -46.3989 H         1 UNK         0.0800 
    143 H143        1.2523  -22.7674  -46.7862 H         1 UNK         0.0600 
    144 H144        0.9278  -21.2839  -44.3910 H         1 UNK         0.3000 
    145 H145        0.5428  -24.1202  -42.2312 H         1 UNK         0.0600 
    146 H146        2.4629  -22.9390  -41.1875 H         1 UNK         0.0600 
    147 H147        2.9751  -23.7859  -42.6389 H         1 UNK         0.0600 
    148 H148        2.7554  -22.0420  -42.6768 H         1 UNK         0.0600 
    149 H149        0.5466  -21.2652  -41.8302 H         1 UNK         0.3000 
    150 H150       -2.9855  -20.8336  -41.9414 H         1 UNK         0.0600 
    151 H151       -2.5887  -20.0228  -39.6370 H         1 UNK         0.0600 
    152 H152       -1.0299  -20.8452  -39.5787 H         1 UNK         0.0600 
    153 H153       -2.5201  -21.7777  -39.6697 H         1 UNK         0.0600 
    154 H154       -0.8442  -19.0612  -41.2815 H         1 UNK         0.3000 
    155 H155       -0.3520  -17.7811  -44.5941 H         1 UNK         0.0600 
    156 H156       -0.9472  -15.7337  -43.3869 H         1 UNK         0.0600 
    157 H157       -1.4265  -16.6407  -41.9588 H         1 UNK         0.0600 
    158 H158       -2.3801  -16.7396  -43.4293 H         1 UNK         0.0600 
    159 H159        0.9857  -16.9883  -42.3136 H         1 UNK         0.3000 
    160 H160        3.2470  -19.4961  -41.6153 H         1 UNK         0.0600 
    161 H161        4.1642  -17.3243  -43.5757 H         1 UNK         0.0600 
    162 H162        4.3422  -19.0555  -43.8412 H         1 UNK         0.0600 
    163 H163        5.1956  -18.2832  -42.5160 H         1 UNK         0.0600 
    164 H164        3.5497  -16.6660  -41.3435 H         1 UNK         0.3000 
    165 H165        1.1663  -15.9697  -38.9393 H         1 UNK         0.0600 
    166 H166        3.0077  -15.3493  -37.3953 H         1 UNK         0.0600 
    167 H167        2.7833  -17.0907  -37.3935 H         1 UNK         0.0600 
    168 H168        4.1323  -16.3852  -38.2759 H         1 UNK         0.0600 
    169 H169        3.4422  -14.4816  -39.7217 H         1 UNK         0.3000 
    170 H170        2.5154  -12.4486  -41.3263 H         1 UNK         0.0600 
    171 H171        4.7166  -13.6520  -41.1808 H         1 UNK         0.0600 
    172 H172        4.3650  -14.5187  -42.6738 H         1 UNK         0.0600 
    173 H173        4.6326  -12.7795  -42.6930 H         1 UNK         0.0600 
    174 H174        1.4399  -14.0159  -43.4739 H         1 UNK         0.3000 
    175 H175        0.2363  -12.5462  -45.0985 H         1 UNK         0.0600 
    176 H176        2.2615  -10.7154  -46.4871 H         1 UNK         0.0600 
    177 H177        0.6522  -11.1268  -47.0795 H         1 UNK         0.0600 
    178 H178        0.8309  -10.1841  -45.6086 H         1 UNK         0.0600 
    179 H179        2.3862  -13.0991  -46.9648 H         1 UNK         0.3000 
    180 H180        3.2632  -15.3099  -47.2089 H         1 UNK         0.0600 
    181 H181        2.7885  -17.7435  -47.2500 H         1 UNK         0.0600 
    182 H182        1.3019  -17.5038  -46.3349 H         1 UNK         0.0600 
    183 H183        2.8574  -17.1684  -45.5935 H         1 UNK         0.0600 
    184 H184        0.6193  -16.1511  -48.2709 H         1 UNK         0.3000 
    185 H185        0.6066  -13.7765  -50.8670 H         1 UNK         0.0600 
    186 H186        0.2634  -15.8121  -52.2685 H         1 UNK         0.0600 
    187 H187        1.9574  -15.6178  -51.8584 H         1 UNK         0.0600 
    188 H188        0.9859  -16.8170  -51.0182 H         1 UNK         0.0600 
    189 H189       -1.1858  -15.8774  -50.1922 H         1 UNK         0.3000 
    190 H190       -1.6999  -21.4658  -45.1973 H         1 UNK         0.3000 
    191 H191       -3.5372  -22.2847  -47.2047 H         1 UNK         0.0600 
    192 H192       -5.2280  -21.9775  -45.3924 H         1 UNK         0.0600 
    193 H193       -4.0942  -20.6378  -45.4396 H         1 UNK         0.0600 
    194 H194       -3.9414  -21.8739  -44.1948 H         1 UNK         0.0600 
    195 H195       -2.1499  -24.0490  -44.4233 H         1 UNK         0.3000 
    196 H196       -3.8232  -26.3834  -44.7001 H         1 UNK         0.0600 
    197 H197       -1.1504  -25.9776  -43.2584 H         1 UNK         0.0600 
    198 H198       -2.7527  -25.7860  -42.5505 H         1 UNK         0.0600 
    199 H199       -2.2081  -27.3717  -43.0760 H         1 UNK         0.0600 
    200 H200       -0.6625  -25.4215  -46.0032 H         1 UNK         0.3000 
    201 H201        0.0595  -27.9435  -47.1630 H         1 UNK         0.0600 
    202 H202        0.9623  -25.0832  -47.8236 H         1 UNK         0.0600 
    203 H203        1.7898  -26.5539  -48.3168 H         1 UNK         0.0600 
    204 H204        1.6996  -26.1336  -46.6155 H         1 UNK         0.0600 
    205 H205        0.4096  -28.2305  -49.5235 H         1 UNK         0.3000 
    206 H206       -2.0366  -27.8490  -51.0414 H         1 UNK         0.0600 
    207 H207       -0.8041  -30.0060  -51.0351 H         1 UNK         0.0600 
    208 H208       -0.9078  -29.3478  -52.6578 H         1 UNK         0.0600 
    209 H209        0.6015  -29.2252  -51.7600 H         1 UNK         0.0600 
    210 H210       -1.1625  -25.3438  -50.5580 H         1 UNK         0.3000 
    211 H211        0.4428  -24.2110  -52.6978 H         1 UNK         0.0600 
    212 H212       -0.2654  -22.0566  -51.6563 H         1 UNK         0.0600 
    213 H213        0.3226  -23.1801  -50.4436 H         1 UNK         0.0600 
    214 H214       -1.4080  -22.9198  -50.6268 H         1 UNK         0.0600 
    215 H215       -2.9182  -24.9139  -52.2267 H         1 UNK         0.3000 
    216 H216       -4.7057  -25.0423  -53.4558 H         1 UNK         0.0600 
    217 H217       -4.4985  -25.3585  -55.9069 H         1 UNK         0.0600 
    218 H218       -2.8529  -24.7434  -55.8728 H         1 UNK         0.0600 
    219 H219       -3.2521  -26.2455  -55.0428 H         1 UNK         0.0600 
    220 H220       -2.8311  -22.3485  -54.9199 H         1 UNK         0.3000 
    221 H221       -5.0400  -20.4697  -54.6389 H         1 UNK         0.0600 
    222 H222       -5.8199  -21.7205  -56.6586 H         1 UNK         0.0600 
    223 H223       -4.2772  -21.4173  -57.4546 H         1 UNK         0.0600 
    224 H224       -5.3649  -20.0839  -57.0831 H         1 UNK         0.0600 
    225 H225       -2.3652  -20.5770  -53.6579 H         1 UNK         0.3000 
    226 H226       -0.5755  -18.8948  -55.1367 H         1 UNK         0.0600 
    227 H227       -0.7533  -19.5544  -52.1608 H         1 UNK         0.0600 
    228 H228        0.2298  -20.3913  -53.3622 H         1 UNK         0.0600 
    229 H229        0.6002  -18.7294  -52.9241 H         1 UNK         0.0600 
    230 H230       -1.1649  -16.9190  -55.7509 H         1 UNK         0.3000 
    231 H231       -2.0731  -14.9124  -55.9420 H         1 UNK         0.0600 
    232 H232       -1.7634  -14.6623  -52.9051 H         1 UNK         0.0600 
    233 H233       -2.0300  -13.3352  -54.0266 H         1 UNK         0.0600 
    234 H234       -0.5366  -14.2536  -54.1013 H         1 UNK         0.0600 
    235 H235       -3.7516  -17.1748  -55.7700 H         1 UNK         0.3000 
    236 H236       -5.8197  -17.8764  -55.7562 H         1 UNK         0.0600 
    237 H237       -7.7212  -16.3417  -55.9527 H         1 UNK         0.0600 
    238 H238       -6.7740  -14.9974  -55.3365 H         1 UNK         0.0600 
    239 H239       -6.3845  -15.7136  -56.9003 H         1 UNK         0.0600 
    240 H240       -4.2828  -17.2040  -53.0705 H         1 UNK         0.3000 
    241 H241       -4.4764  -17.5409  -50.9213 H         1 UNK         0.0600 
    242 H242       -6.9300  -14.5809  -50.7229 H         1 UNK         0.3800 
    243 H243       -5.9783  -15.0982  -52.0938 H         1 UNK         0.3800 
    244 H244       -6.9532  -19.2057  -51.5841 H         1 UNK         0.0800 
    245 H245       -6.2000  -19.1709  -50.0214 H         1 UNK         0.0800 
    246 H246       -5.1815  -21.3155  -49.4426 H         1 UNK         0.0800 
    247 H247       -3.7692  -21.9729  -50.2218 H         1 UNK         0.0800 
@<TRIPOS>BOND
     1    1    2 1    
     2    1  127 1    
     3    1  128 1    
     4    1  129 1    
     5    2    3 2    
     6    2    4 am   BACKBONE|DICT|INTERRES
     7    4    5 1    
     8    4  130 1    
     9    5    6 1    
    10    5   65 1    
    11    5  131 1    
    12    6    7 1    
    13    6  132 1    
    14    6  133 1    
    15    7    8 1    
    16    8    9 1    
    17    8  134 1    
    18    8  135 1    
    19    9   10 ar   
    20    9   14 ar   
    21   10   11 ar   
    22   10  136 1    
    23   11   12 ar   
    24   11  126 1    
    25   12   13 ar   
    26   12  137 1    
    27   13   14 ar   
    28   13   15 1    
    29   14  138 1    
    30   15   16 1    
    31   15  139 1    
    32   15  140 1    
    33   16   17 1    
    34   17   18 1    
    35   17  141 1    
    36   17  142 1    
    37   18   19 1    
    38   18   67 1    
    39   18  143 1    
    40   19   20 am   BACKBONE|DICT|INTERRES
    41   19  144 1    
    42   20   21 2    
    43   20   22 1    
    44   22   23 1    
    45   22   24 1    
    46   22  145 1    
    47   23  146 1    
    48   23  147 1    
    49   23  148 1    
    50   24   25 am   BACKBONE|DICT|INTERRES
    51   24  149 1    
    52   25   26 2    
    53   25   27 1    
    54   27   28 1    
    55   27   29 1    
    56   27  150 1    
    57   28  151 1    
    58   28  152 1    
    59   28  153 1    
    60   29   30 am   BACKBONE|DICT|INTERRES
    61   29  154 1    
    62   30   31 2    
    63   30   32 1    
    64   32   33 1    
    65   32   34 1    
    66   32  155 1    
    67   33  156 1    
    68   33  157 1    
    69   33  158 1    
    70   34   35 am   BACKBONE|DICT|INTERRES
    71   34  159 1    
    72   35   36 2    
    73   35   37 1    
    74   37   38 1    
    75   37   39 1    
    76   37  160 1    
    77   38  161 1    
    78   38  162 1    
    79   38  163 1    
    80   39   40 am   BACKBONE|DICT|INTERRES
    81   39  164 1    
    82   40   41 2    
    83   40   42 1    
    84   42   43 1    
    85   42   44 1    
    86   42  165 1    
    87   43  166 1    
    88   43  167 1    
    89   43  168 1    
    90   44   45 am   BACKBONE|DICT|INTERRES
    91   44  169 1    
    92   45   46 2    
    93   45   47 1    
    94   47   48 1    
    95   47   49 1    
    96   47  170 1    
    97   48  171 1    
    98   48  172 1    
    99   48  173 1    
   100   49   50 am   BACKBONE|DICT|INTERRES
   101   49  174 1    
   102   50   51 2    
   103   50   52 1    
   104   52   53 1    
   105   52   54 1    
   106   52  175 1    
   107   53  176 1    
   108   53  177 1    
   109   53  178 1    
   110   54   55 am   BACKBONE|DICT|INTERRES
   111   54  179 1    
   112   55   56 2    
   113   55   57 1    
   114   57   58 1    
   115   57   59 1    
   116   57  180 1    
   117   58  181 1    
   118   58  182 1    
   119   58  183 1    
   120   59   60 am   BACKBONE|DICT|INTERRES
   121   59  184 1    
   122   60   61 2    
   123   60   62 1    
   124   62   63 1    
   125   62   64 1    
   126   62  185 1    
   127   63  186 1    
   128   63  187 1    
   129   63  188 1    
   130   64   65 am   BACKBONE|DICT|INTERRES
   131   64  189 1    
   132   65   66 2    
   133   67   68 2    
   134   67   69 am   BACKBONE|DICT|INTERRES
   135   69   70 1    
   136   69  190 1    
   137   70   71 1    
   138   70   72 1    
   139   70  191 1    
   140   71  192 1    
   141   71  193 1    
   142   71  194 1    
   143   72   73 2    
   144   72   74 am   BACKBONE|DICT|INTERRES
   145   74   75 1    
   146   74  195 1    
   147   75   76 1    
   148   75   77 1    
   149   75  196 1    
   150   76  197 1    
   151   76  198 1    
   152   76  199 1    
   153   77   78 2    
   154   77   79 am   BACKBONE|DICT|INTERRES
   155   79   80 1    
   156   79  200 1    
   157   80   81 1    
   158   80   82 1    
   159   80  201 1    
   160   81  202 1    
   161   81  203 1    
   162   81  204 1    
   163   82   83 2    
   164   82   84 am   BACKBONE|DICT|INTERRES
   165   84   85 1    
   166   84  205 1    
   167   85   86 1    
   168   85   87 1    
   169   85  206 1    
   170   86  207 1    
   171   86  208 1    
   172   86  209 1    
   173   87   88 2    
   174   87   89 am   BACKBONE|DICT|INTERRES
   175   89   90 1    
   176   89  210 1    
   177   90   91 1    
   178   90   92 1    
   179   90  211 1    
   180   91  212 1    
   181   91  213 1    
   182   91  214 1    
   183   92   93 2    
   184   92   94 am   BACKBONE|DICT|INTERRES
   185   94   95 1    
   186   94  215 1    
   187   95   96 1    
   188   95   97 1    
   189   95  216 1    
   190   96  217 1    
   191   96  218 1    
   192   96  219 1    
   193   97   98 2    
   194   97   99 am   BACKBONE|DICT|INTERRES
   195   99  100 1    
   196   99  220 1    
   197  100  101 1    
   198  100  102 1    
   199  100  221 1    
   200  101  222 1    
   201  101  223 1    
   202  101  224 1    
   203  102  103 2    
   204  102  104 am   BACKBONE|DICT|INTERRES
   205  104  105 1    
   206  104  225 1    
   207  105  106 1    
   208  105  107 1    
   209  105  226 1    
   210  106  227 1    
   211  106  228 1    
   212  106  229 1    
   213  107  108 2    
   214  107  109 am   BACKBONE|DICT|INTERRES
   215  109  110 1    
   216  109  230 1    
   217  110  111 1    
   218  110  112 1    
   219  110  231 1    
   220  111  232 1    
   221  111  233 1    
   222  111  234 1    
   223  112  113 2    
   224  112  114 am   BACKBONE|DICT|INTERRES
   225  114  115 1    
   226  114  235 1    
   227  115  116 1    
   228  115  117 1    
   229  115  236 1    
   230  116  237 1    
   231  116  238 1    
   232  116  239 1    
   233  117  118 2    
   234  117  119 am   BACKBONE|DICT|INTERRES
   235  119  120 1    
   236  119  240 1    
   237  120  121 1    
   238  120  124 1    
   239  120  241 1    
   240  121  122 am   BACKBONE|DICT|INTERRES
   241  121  123 2    
   242  122  242 1    
   243  122  243 1    
   244  124  125 1    
   245  124  244 1    
   246  124  245 1    
   247  125  126 1    
   248  126  246 1    
   249  126  247 1    
@<TRIPOS>SUBSTRUCTURE
     1 UNK         1 GROUP             0       ****    0 ROOT    
