@<TRIPOS>MOLECULE
3R540
247   249    1
SMALL
USER_CHARGES


@<TRIPOS>ATOM
      1 CA         -3.6991  -13.3982  -52.8138 C.3       0 UNK        -0.1800 
      2 C          -2.7566  -13.2184  -51.6315 C.2       0 UNK         0.5000 
      3 O          -1.9164  -12.3184  -51.6604 O.2       0 UNK        -0.5000 
      4 N          -2.8919  -14.0484  -50.5918 N.am      1 UNK        -0.5000 
      5 CA         -2.1167  -13.9548  -49.3533 C.3       1 UNK         0.1400 
      6 C6         -0.6796  -14.5306  -49.4754 C.3       23 UNK        -0.0398 
      7 S7         -0.5656  -16.3146  -49.8577 S.3       23 UNK        -0.2404 
      8 C8          1.1120  -16.3609  -50.5543 C.3       23 UNK        -0.0205 
      9 C9          1.6500  -17.7757  -50.7174 C.ar      23 UNK        -0.0193 
     10 C10         1.2920  -18.5415  -51.8316 C.ar      23 UNK        -0.1150 
     11 C11         1.8676  -19.7970  -52.0548 C.ar      23 UNK        -0.0193 
     12 C12         2.8197  -20.2740  -51.1458 C.ar      23 UNK        -0.1150 
     13 C13         3.1737  -19.5308  -50.0176 C.ar      23 UNK        -0.0193 
     14 C14         2.5746  -18.2866  -49.8001 C.ar      23 UNK        -0.1150 
     15 C15         4.2673  -20.0438  -49.0907 C.3       23 UNK        -0.0205 
     16 S16         3.8422  -21.6324  -48.3073 S.3       23 UNK        -0.2404 
     17 C17         2.8195  -21.0861  -46.9048 C.3       23 UNK        -0.0398 
     18 CA          1.4775  -21.8525  -46.7998 C.3       11 UNK         0.1400 
     19 N           1.0365  -21.9641  -45.4057 N.am      11 UNK        -0.5000 
     20 C          -0.0091  -22.6840  -44.9751 C.2       10 UNK         0.5000 
     21 O          -0.7009  -23.3951  -45.7040 O.2       10 UNK        -0.5000 
     22 CA         -0.3737  -22.5400  -43.4846 C.3       10 UNK         0.1400 
     23 CB          0.5061  -23.4460  -42.6109 C.3       10 UNK        -0.1800 
     24 N          -0.2734  -21.1545  -43.0204 N.am      10 UNK        -0.5000 
     25 C          -1.0422  -20.1549  -43.4754 C.2       9 UNK         0.5000 
     26 O          -1.9698  -20.3195  -44.2650 O.2       9 UNK        -0.5000 
     27 CA         -0.6870  -18.7280  -43.0299 C.3       9 UNK         0.1400 
     28 CB         -1.3149  -18.3971  -41.6688 C.3       9 UNK        -0.1800 
     29 N           0.7539  -18.4887  -42.9878 N.am      9 UNK        -0.5000 
     30 C           1.5587  -18.5062  -44.0587 C.2       8 UNK         0.5000 
     31 O           1.1613  -18.6828  -45.2087 O.2       8 UNK        -0.5000 
     32 CA          3.0678  -18.3640  -43.7979 C.3       8 UNK         0.1400 
     33 CB          3.4797  -16.8910  -43.6844 C.3       8 UNK        -0.1800 
     34 N           3.4834  -19.0816  -42.5944 N.am      8 UNK        -0.5000 
     35 C           3.5098  -20.4166  -42.4860 C.2       7 UNK         0.5000 
     36 O           3.2205  -21.1831  -43.4049 O.2       7 UNK        -0.5000 
     37 CA          3.8775  -20.9821  -41.1030 C.3       7 UNK         0.1400 
     38 CB          5.4005  -20.9883  -40.9043 C.3       7 UNK        -0.1800 
     39 N           3.2456  -20.2363  -40.0124 N.am      7 UNK        -0.5000 
     40 C           1.9260  -20.2240  -39.7778 C.2       6 UNK         0.5000 
     41 O           1.1087  -20.8579  -40.4448 O.2       6 UNK        -0.5000 
     42 CA          1.4334  -19.3242  -38.6293 C.3       6 UNK         0.1400 
     43 CB          1.5325  -20.0624  -37.2860 C.3       6 UNK        -0.1800 
     44 N           2.1400  -18.0426  -38.5337 N.am      6 UNK        -0.5000 
     45 C           2.1441  -17.1018  -39.4869 C.2       5 UNK         0.5000 
     46 O           1.6268  -17.2471  -40.5952 O.2       5 UNK        -0.5000 
     47 CA          2.8867  -15.7952  -39.1698 C.3       5 UNK         0.1400 
     48 CB          4.3018  -15.8246  -39.7679 C.3       5 UNK        -0.1800 
     49 N           2.1619  -14.6434  -39.7074 N.am      5 UNK        -0.5000 
     50 C           1.0942  -14.0815  -39.1223 C.2       4 UNK         0.5000 
     51 O           0.6288  -14.4637  -38.0477 O.2       4 UNK        -0.5000 
     52 CA          0.4428  -12.8847  -39.8396 C.3       4 UNK         0.1400 
     53 CB          1.1106  -11.5735  -39.3950 C.3       4 UNK        -0.1800 
     54 N           0.5339  -12.9946  -41.2979 N.am      4 UNK        -0.5000 
     55 C          -0.4657  -13.3934  -42.0957 C.2       3 UNK         0.5000 
     56 O          -1.5987  -13.6566  -41.6868 O.2       3 UNK        -0.5000 
     57 CA         -0.1207  -13.4693  -43.6004 C.3       3 UNK         0.1400 
     58 CB          0.9521  -14.5428  -43.8727 C.3       3 UNK        -0.1800 
     59 N          -1.2720  -13.6591  -44.4951 N.am      3 UNK        -0.5000 
     60 C          -2.0793  -14.7296  -44.5888 C.2       2 UNK         0.5000 
     61 O          -2.0004  -15.7287  -43.8786 O.2       2 UNK        -0.5000 
     62 CA         -3.1212  -14.7025  -45.7153 C.3       2 UNK         0.1400 
     63 CB         -4.3462  -13.8528  -45.3343 C.3       2 UNK        -0.1800 
     64 N          -2.5183  -14.2115  -46.9550 N.am      2 UNK        -0.5000 
     65 C          -2.9154  -14.5577  -48.1843 C.2       1 UNK         0.5000 
     66 O          -3.8643  -15.3105  -48.4087 O.2       1 UNK        -0.5000 
     67 C           0.3860  -21.2329  -47.7000 C.2       11 UNK         0.5000 
     68 O           0.0864  -21.7773  -48.7628 O.2       11 UNK        -0.5000 
     69 N          -0.2274  -20.1406  -47.2217 N.am      12 UNK        -0.5000 
     70 CA         -1.3606  -19.4710  -47.8542 C.3       12 UNK         0.1400 
     71 CB         -1.6818  -18.1727  -47.0967 C.3       12 UNK        -0.1800 
     72 C          -2.6018  -20.3750  -47.9350 C.2       12 UNK         0.5000 
     73 O          -3.1955  -20.4919  -49.0064 O.2       12 UNK        -0.5000 
     74 N          -2.9610  -21.0224  -46.8169 N.am      13 UNK        -0.5000 
     75 CA         -4.1015  -21.9347  -46.6994 C.3       13 UNK         0.1400 
     76 CB         -4.2610  -22.3868  -45.2410 C.3       13 UNK        -0.1800 
     77 C          -4.0119  -23.1522  -47.6351 C.2       13 UNK         0.5000 
     78 O          -5.0282  -23.5451  -48.2080 O.2       13 UNK        -0.5000 
     79 N          -2.7974  -23.6853  -47.8302 N.am      14 UNK        -0.5000 
     80 CA         -2.5020  -24.7654  -48.7768 C.3       14 UNK         0.1400 
     81 CB         -1.0483  -25.2236  -48.5853 C.3       14 UNK        -0.1800 
     82 C          -2.7646  -24.3909  -50.2515 C.2       14 UNK         0.5000 
     83 O          -3.0235  -25.2814  -51.0606 O.2       14 UNK        -0.5000 
     84 N          -2.7236  -23.0895  -50.5641 N.am      15 UNK        -0.5000 
     85 CA         -3.0395  -22.5152  -51.8713 C.3       15 UNK         0.1400 
     86 CB         -1.9644  -21.4668  -52.1989 C.3       15 UNK        -0.1800 
     87 C          -4.4515  -21.8911  -51.9031 C.2       15 UNK         0.5000 
     88 O          -4.7722  -21.1787  -52.8551 O.2       15 UNK        -0.5000 
     89 N          -5.2600  -22.1232  -50.8558 N.am      16 UNK        -0.5000 
     90 CA         -6.6013  -21.5731  -50.6278 C.3       16 UNK         0.1400 
     91 CB         -7.6050  -22.1448  -51.6502 C.3       16 UNK        -0.1800 
     92 C          -6.6011  -20.0309  -50.5874 C.2       16 UNK         0.5000 
     93 O          -7.3727  -19.3922  -51.3016 O.2       16 UNK        -0.5000 
     94 N          -5.6818  -19.4615  -49.7943 N.am      17 UNK        -0.5000 
     95 CA         -5.3750  -18.0280  -49.6792 C.3       17 UNK         0.1400 
     96 CB         -6.5937  -17.2349  -49.1597 C.3       17 UNK        -0.1800 
     97 C          -4.7807  -17.4485  -50.9820 C.2       17 UNK         0.5000 
     98 O          -4.9506  -16.2639  -51.2700 O.2       17 UNK        -0.5000 
     99 N          -4.1159  -18.3201  -51.7551 N.am      18 UNK        -0.5000 
    100 CA        -3.5770  -18.1128  -53.1022 C.3       18 UNK         0.1400 
    101 CB        -2.4457  -17.0675  -53.1001 C.3       18 UNK        -0.1800 
    102 C         -4.6541  -17.8538  -54.1784 C.2       18 UNK         0.5000 
    103 O         -4.3289  -17.3383  -55.2494 O.2       18 UNK        -0.5000 
    104 N         -5.9098  -18.2384  -53.9029 N.am      19 UNK        -0.5000 
    105 CA        -7.0063  -18.2100  -54.8724 C.3       19 UNK         0.1400 
    106 CB        -8.3454  -18.0922  -54.1292 C.3       19 UNK        -0.1800 
    107 C         -7.0066  -19.4512  -55.7855 C.2       19 UNK         0.5000 
    108 O         -7.5763  -19.3914  -56.8763 O.2       19 UNK        -0.5000 
    109 N         -6.3769  -20.5433  -55.3343 N.am      20 UNK        -0.5000 
    110 CA        -6.1791  -21.7805  -56.0832 C.3       20 UNK         0.1400 
    111 CB        -6.7173  -22.9520  -55.2414 C.3       20 UNK        -0.1800 
    112 C         -4.6838  -21.9615  -56.3993 C.2       20 UNK         0.5000 
    113 O         -3.8583  -21.1165  -56.0402 O.2       20 UNK        -0.5000 
    114 N         -4.3571  -23.0704  -57.0750 N.am      21 UNK        -0.5000 
    115 CA        -2.9845  -23.5028  -57.3357 C.3       21 UNK         0.1400 
    116 CB        -3.0083  -24.7020  -58.2958 C.3       21 UNK        -0.1800 
    117 C         -2.2537  -23.8668  -56.0289 C.2       21 UNK         0.5000 
    118 O         -2.8613  -24.4552  -55.1309 O.2       21 UNK        -0.5000 
    119 N         -0.9688  -23.5076  -55.9540 N.am      22 UNK        -0.5000 
    120 CA        -0.0955  -23.7690  -54.8022 C.3       22 UNK         0.1400 
    121 C          0.2376  -25.2774  -54.6101 C.2       22 UNK         0.5000 
    122 N          0.5158  -25.7056  -53.3867 N.am      22 UNK        -0.7600 
    123 O          0.2848  -26.0535  -55.5625 O.2       22 UNK        -0.5000 
    124 C124        1.1890  -22.9017  -54.8792 C.3       23 UNK        -0.0398 
    125 S125        1.7631  -22.3758  -53.2306 S.3       23 UNK        -0.2404 
    126 C126        1.4929  -20.5697  -53.3200 C.3       23 UNK        -0.0205 
    127 H127       -3.1504  -13.7673  -53.6801 H         1 UNK         0.0600 
    128 H128       -4.1528  -12.4436  -53.0799 H         1 UNK         0.0600 
    129 H129       -4.5030  -14.0987  -52.5929 H         1 UNK         0.0600 
    130 H130       -3.6072  -14.7720  -50.5928 H         1 UNK         0.3000 
    131 H131       -2.0220  -12.8926  -49.1159 H         1 UNK         0.0600 
    132 H132       -0.1207  -14.3493  -48.5561 H         1 UNK         0.0800 
    133 H133       -0.1451  -13.9783  -50.2493 H         1 UNK         0.0800 
    134 H134        1.1086  -15.8581  -51.5225 H         1 UNK         0.0800 
    135 H135        1.7809  -15.7835  -49.9143 H         1 UNK         0.0800 
    136 H136        0.5864  -18.1418  -52.5459 H         1 UNK         0.1150 
    137 H137        3.3101  -21.2214  -51.3145 H         1 UNK         0.1150 
    138 H138        2.8635  -17.6936  -48.9437 H         1 UNK         0.1150 
    139 H139        5.1761  -20.1829  -49.6778 H         1 UNK         0.0800 
    140 H140        4.5152  -19.3079  -48.3240 H         1 UNK         0.0800 
    141 H141        2.6632  -20.0069  -46.9424 H         1 UNK         0.0800 
    142 H142        3.4238  -21.2627  -46.0150 H         1 UNK         0.0800 
    143 H143        1.6369  -22.8769  -47.1439 H         1 UNK         0.0600 
    144 H144        1.5691  -21.4395  -44.7215 H         1 UNK         0.3000 
    145 H145       -1.4106  -22.8591  -43.3631 H         1 UNK         0.0600 
    146 H146        0.2045  -23.3960  -41.5645 H         1 UNK         0.0600 
    147 H147        0.4250  -24.4875  -42.9242 H         1 UNK         0.0600 
    148 H148        1.5581  -23.1668  -42.6679 H         1 UNK         0.0600 
    149 H149        0.4269  -20.9545  -42.3131 H         1 UNK         0.3000 
    150 H150       -1.1064  -18.0532  -43.7748 H         1 UNK         0.0600 
    151 H151       -2.3970  -18.5295  -41.6976 H         1 UNK         0.0600 
    152 H152       -1.1222  -17.3603  -41.3909 H         1 UNK         0.0600 
    153 H153       -0.9248  -19.0369  -40.8781 H         1 UNK         0.0600 
    154 H154        1.1489  -18.2571  -42.0798 H         1 UNK         0.3000 
    155 H155        3.5946  -18.7959  -44.6516 H         1 UNK         0.0600 
    156 H156        3.2098  -16.3419  -44.5871 H         1 UNK         0.0600 
    157 H157        2.9925  -16.4036  -42.8404 H         1 UNK         0.0600 
    158 H158        4.5572  -16.7909  -43.5537 H         1 UNK         0.0600 
    159 H159        3.6851  -18.5248  -41.7779 H         1 UNK         0.3000 
    160 H160        3.5236  -22.0146  -41.0610 H         1 UNK         0.0600 
    161 H161        5.8140  -19.9790  -40.9090 H         1 UNK         0.0600 
    162 H162        5.8947  -21.5494  -41.6987 H         1 UNK         0.0600 
    163 H163        5.6723  -21.4581  -39.9589 H         1 UNK         0.0600 
    164 H164        3.8488  -19.6883  -39.4171 H         1 UNK         0.3000 
    165 H165        0.3803  -19.1046  -38.8153 H         1 UNK         0.0600 
    166 H166        1.0925  -19.4753  -36.4796 H         1 UNK         0.0600 
    167 H167        0.9979  -21.0127  -37.3224 H         1 UNK         0.0600 
    168 H168        2.5678  -20.2781  -37.0190 H         1 UNK         0.0600 
    169 H169        2.6029  -17.8517  -37.6567 H         1 UNK         0.3000 
    170 H170        2.9734  -15.6873  -38.0863 H         1 UNK         0.0600 
    171 H171        4.2828  -15.9142  -40.8541 H         1 UNK         0.0600 
    172 H172        4.8525  -14.9176  -39.5178 H         1 UNK         0.0600 
    173 H173        4.8741  -16.6678  -39.3790 H         1 UNK         0.0600 
    174 H174        2.4566  -14.3118  -40.6117 H         1 UNK         0.3000 
    175 H175       -0.6030  -12.8454  -39.5273 H         1 UNK         0.0600 
    176 H176        0.6211  -10.7104  -39.8465 H         1 UNK         0.0600 
    177 H177        2.1658  -11.5425  -39.6694 H         1 UNK         0.0600 
    178 H178        1.0490  -11.4512  -38.3127 H         1 UNK         0.0600 
    179 H179        1.4204  -12.7489  -41.7136 H         1 UNK         0.3000 
    180 H180        0.3013  -12.5005  -43.8721 H         1 UNK         0.0600 
    181 H181        1.1596  -14.6366  -44.9387 H         1 UNK         0.0600 
    182 H182        0.6451  -15.5222  -43.5041 H         1 UNK         0.0600 
    183 H183        1.8930  -14.2904  -43.3841 H         1 UNK         0.0600 
    184 H184       -1.4927  -12.8561  -45.0650 H         1 UNK         0.3000 
    185 H185       -3.4509  -15.7333  -45.8658 H         1 UNK         0.0600 
    186 H186       -5.1239  -13.9196  -46.0953 H         1 UNK         0.0600 
    187 H187       -4.7812  -14.1959  -44.3947 H         1 UNK         0.0600 
    188 H188       -4.0859  -12.8009  -45.2128 H         1 UNK         0.0600 
    189 H189       -1.6970  -13.6345  -46.8476 H         1 UNK         0.3000 
    190 H190        0.1225  -19.7239  -46.3624 H         1 UNK         0.3000 
    191 H191       -1.0657  -19.2122  -48.8733 H         1 UNK         0.0600 
    192 H192       -0.8120  -17.5174  -47.0467 H         1 UNK         0.0600 
    193 H193       -2.4768  -17.6199  -47.5972 H         1 UNK         0.0600 
    194 H194       -2.0103  -18.3629  -46.0756 H         1 UNK         0.0600 
    195 H195       -2.4447  -20.8391  -45.9585 H         1 UNK         0.3000 
    196 H196       -4.9959  -21.3739  -46.9782 H         1 UNK         0.0600 
    197 H197       -5.1137  -23.0578  -45.1295 H         1 UNK         0.0600 
    198 H198       -4.4299  -21.5362  -44.5806 H         1 UNK         0.0600 
    199 H199       -3.3768  -22.9168  -44.8865 H         1 UNK         0.0600 
    200 H200       -2.0167  -23.3320  -47.2856 H         1 UNK         0.3000 
    201 H201       -3.1567  -25.6047  -48.5337 H         1 UNK         0.0600 
    202 H202       -0.8731  -25.5645  -47.5648 H         1 UNK         0.0600 
    203 H203       -0.3422  -24.4202  -48.7954 H         1 UNK         0.0600 
    204 H204       -0.8085  -26.0536  -49.2510 H         1 UNK         0.0600 
    205 H205       -2.5163  -22.4211  -49.8311 H         1 UNK         0.3000 
    206 H206       -3.0075  -23.2886  -52.6405 H         1 UNK         0.0600 
    207 H207       -0.9645  -21.8742  -52.0550 H         1 UNK         0.0600 
    208 H208       -2.0384  -21.1461  -53.2384 H         1 UNK         0.0600 
    209 H209       -2.0494  -20.5835  -51.5648 H         1 UNK         0.0600 
    210 H210       -4.9094  -22.7114  -50.1083 H         1 UNK         0.3000 
    211 H211       -6.9095  -21.9099  -49.6371 H         1 UNK         0.0600 
    212 H212       -7.4135  -21.7719  -52.6561 H         1 UNK         0.0600 
    213 H213       -8.6260  -21.8634  -51.3905 H         1 UNK         0.0600 
    214 H214       -7.5643  -23.2335  -51.6806 H         1 UNK         0.0600 
    215 H215       -5.0072  -20.0692  -49.3372 H         1 UNK         0.3000 
    216 H216       -4.5882  -17.9465  -48.9288 H         1 UNK         0.0600 
    217 H217       -6.3198  -16.2060  -48.9260 H         1 UNK         0.0600 
    218 H218       -6.9925  -17.6777  -48.2474 H         1 UNK         0.0600 
    219 H219       -7.3977  -17.1922  -49.8944 H         1 UNK         0.0600 
    220 H220       -4.0678  -19.2729  -51.4228 H         1 UNK         0.3000 
    221 H221       -3.1246  -19.0611  -53.3890 H         1 UNK         0.0600 
    222 H222       -2.8103  -16.0763  -52.8406 H         1 UNK         0.0600 
    223 H223       -1.6717  -17.3375  -52.3841 H         1 UNK         0.0600 
    224 H224       -1.9686  -16.9967  -54.0779 H         1 UNK         0.0600 
    225 H225       -6.1142  -18.6523  -53.0012 H         1 UNK         0.3000 
    226 H226       -6.8982  -17.3272  -55.5061 H         1 UNK         0.0600 
    227 H227       -8.3386  -17.2596  -53.4254 H         1 UNK         0.0600 
    228 H228       -9.1630  -17.9212  -54.8304 H         1 UNK         0.0600 
    229 H229       -8.5801  -19.0012  -53.5750 H         1 UNK         0.0600 
    230 H230       -5.8642  -20.4913  -54.4593 H         1 UNK         0.3000 
    231 H231       -6.7202  -21.7516  -57.0308 H         1 UNK         0.0600 
    232 H232       -6.1316  -23.0980  -54.3331 H         1 UNK         0.0600 
    233 H233       -6.6922  -23.8882  -55.7994 H         1 UNK         0.0600 
    234 H234       -7.7536  -22.7829  -54.9488 H         1 UNK         0.0600 
    235 H235       -5.0843  -23.7270  -57.3169 H         1 UNK         0.3000 
    236 H236       -2.4567  -22.6792  -57.8215 H         1 UNK         0.0600 
    237 H237       -3.4889  -24.4439  -59.2397 H         1 UNK         0.0600 
    238 H238       -1.9961  -25.0361  -58.5273 H         1 UNK         0.0600 
    239 H239       -3.5427  -25.5505  -57.8663 H         1 UNK         0.0600 
    240 H240       -0.5361  -23.0658  -56.7515 H         1 UNK         0.3000 
    241 H241       -0.6692  -23.4586  -53.9271 H         1 UNK         0.0600 
    242 H242        0.5193  -25.0759  -52.5996 H         1 UNK         0.3800 
    243 H243        0.7466  -26.6769  -53.2471 H         1 UNK         0.3800 
    244 H244        1.0089  -22.0050  -55.4737 H         1 UNK         0.0800 
    245 H245        1.9990  -23.4259  -55.3900 H         1 UNK         0.0800 
    246 H246        0.4444  -20.3878  -53.5600 H         1 UNK         0.0800 
    247 H247        2.0775  -20.1676  -54.1484 H         1 UNK         0.0800 
@<TRIPOS>BOND
     1    1    2 1    
     2    1  127 1    
     3    1  128 1    
     4    1  129 1    
     5    2    3 2    
     6    2    4 am   BACKBONE|DICT|INTERRES
     7    4    5 1    
     8    4  130 1    
     9    5    6 1    
    10    5   65 1    
    11    5  131 1    
    12    6    7 1    
    13    6  132 1    
    14    6  133 1    
    15    7    8 1    
    16    8    9 1    
    17    8  134 1    
    18    8  135 1    
    19    9   10 ar   
    20    9   14 ar   
    21   10   11 ar   
    22   10  136 1    
    23   11   12 ar   
    24   11  126 1    
    25   12   13 ar   
    26   12  137 1    
    27   13   14 ar   
    28   13   15 1    
    29   14  138 1    
    30   15   16 1    
    31   15  139 1    
    32   15  140 1    
    33   16   17 1    
    34   17   18 1    
    35   17  141 1    
    36   17  142 1    
    37   18   19 1    
    38   18   67 1    
    39   18  143 1    
    40   19   20 am   BACKBONE|DICT|INTERRES
    41   19  144 1    
    42   20   21 2    
    43   20   22 1    
    44   22   23 1    
    45   22   24 1    
    46   22  145 1    
    47   23  146 1    
    48   23  147 1    
    49   23  148 1    
    50   24   25 am   BACKBONE|DICT|INTERRES
    51   24  149 1    
    52   25   26 2    
    53   25   27 1    
    54   27   28 1    
    55   27   29 1    
    56   27  150 1    
    57   28  151 1    
    58   28  152 1    
    59   28  153 1    
    60   29   30 am   BACKBONE|DICT|INTERRES
    61   29  154 1    
    62   30   31 2    
    63   30   32 1    
    64   32   33 1    
    65   32   34 1    
    66   32  155 1    
    67   33  156 1    
    68   33  157 1    
    69   33  158 1    
    70   34   35 am   BACKBONE|DICT|INTERRES
    71   34  159 1    
    72   35   36 2    
    73   35   37 1    
    74   37   38 1    
    75   37   39 1    
    76   37  160 1    
    77   38  161 1    
    78   38  162 1    
    79   38  163 1    
    80   39   40 am   BACKBONE|DICT|INTERRES
    81   39  164 1    
    82   40   41 2    
    83   40   42 1    
    84   42   43 1    
    85   42   44 1    
    86   42  165 1    
    87   43  166 1    
    88   43  167 1    
    89   43  168 1    
    90   44   45 am   BACKBONE|DICT|INTERRES
    91   44  169 1    
    92   45   46 2    
    93   45   47 1    
    94   47   48 1    
    95   47   49 1    
    96   47  170 1    
    97   48  171 1    
    98   48  172 1    
    99   48  173 1    
   100   49   50 am   BACKBONE|DICT|INTERRES
   101   49  174 1    
   102   50   51 2    
   103   50   52 1    
   104   52   53 1    
   105   52   54 1    
   106   52  175 1    
   107   53  176 1    
   108   53  177 1    
   109   53  178 1    
   110   54   55 am   BACKBONE|DICT|INTERRES
   111   54  179 1    
   112   55   56 2    
   113   55   57 1    
   114   57   58 1    
   115   57   59 1    
   116   57  180 1    
   117   58  181 1    
   118   58  182 1    
   119   58  183 1    
   120   59   60 am   BACKBONE|DICT|INTERRES
   121   59  184 1    
   122   60   61 2    
   123   60   62 1    
   124   62   63 1    
   125   62   64 1    
   126   62  185 1    
   127   63  186 1    
   128   63  187 1    
   129   63  188 1    
   130   64   65 am   BACKBONE|DICT|INTERRES
   131   64  189 1    
   132   65   66 2    
   133   67   68 2    
   134   67   69 am   BACKBONE|DICT|INTERRES
   135   69   70 1    
   136   69  190 1    
   137   70   71 1    
   138   70   72 1    
   139   70  191 1    
   140   71  192 1    
   141   71  193 1    
   142   71  194 1    
   143   72   73 2    
   144   72   74 am   BACKBONE|DICT|INTERRES
   145   74   75 1    
   146   74  195 1    
   147   75   76 1    
   148   75   77 1    
   149   75  196 1    
   150   76  197 1    
   151   76  198 1    
   152   76  199 1    
   153   77   78 2    
   154   77   79 am   BACKBONE|DICT|INTERRES
   155   79   80 1    
   156   79  200 1    
   157   80   81 1    
   158   80   82 1    
   159   80  201 1    
   160   81  202 1    
   161   81  203 1    
   162   81  204 1    
   163   82   83 2    
   164   82   84 am   BACKBONE|DICT|INTERRES
   165   84   85 1    
   166   84  205 1    
   167   85   86 1    
   168   85   87 1    
   169   85  206 1    
   170   86  207 1    
   171   86  208 1    
   172   86  209 1    
   173   87   88 2    
   174   87   89 am   BACKBONE|DICT|INTERRES
   175   89   90 1    
   176   89  210 1    
   177   90   91 1    
   178   90   92 1    
   179   90  211 1    
   180   91  212 1    
   181   91  213 1    
   182   91  214 1    
   183   92   93 2    
   184   92   94 am   BACKBONE|DICT|INTERRES
   185   94   95 1    
   186   94  215 1    
   187   95   96 1    
   188   95   97 1    
   189   95  216 1    
   190   96  217 1    
   191   96  218 1    
   192   96  219 1    
   193   97   98 2    
   194   97   99 am   BACKBONE|DICT|INTERRES
   195   99  100 1    
   196   99  220 1    
   197  100  101 1    
   198  100  102 1    
   199  100  221 1    
   200  101  222 1    
   201  101  223 1    
   202  101  224 1    
   203  102  103 2    
   204  102  104 am   BACKBONE|DICT|INTERRES
   205  104  105 1    
   206  104  225 1    
   207  105  106 1    
   208  105  107 1    
   209  105  226 1    
   210  106  227 1    
   211  106  228 1    
   212  106  229 1    
   213  107  108 2    
   214  107  109 am   BACKBONE|DICT|INTERRES
   215  109  110 1    
   216  109  230 1    
   217  110  111 1    
   218  110  112 1    
   219  110  231 1    
   220  111  232 1    
   221  111  233 1    
   222  111  234 1    
   223  112  113 2    
   224  112  114 am   BACKBONE|DICT|INTERRES
   225  114  115 1    
   226  114  235 1    
   227  115  116 1    
   228  115  117 1    
   229  115  236 1    
   230  116  237 1    
   231  116  238 1    
   232  116  239 1    
   233  117  118 2    
   234  117  119 am   BACKBONE|DICT|INTERRES
   235  119  120 1    
   236  119  240 1    
   237  120  121 1    
   238  120  124 1    
   239  120  241 1    
   240  121  122 am   BACKBONE|DICT|INTERRES
   241  121  123 2    
   242  122  242 1    
   243  122  243 1    
   244  124  125 1    
   245  124  244 1    
   246  124  245 1    
   247  125  126 1    
   248  126  246 1    
   249  126  247 1    
@<TRIPOS>SUBSTRUCTURE
     1 UNK         1 GROUP             0       ****    0 ROOT    
