@<TRIPOS>MOLECULE
3R540
247   249    1
SMALL
USER_CHARGES


@<TRIPOS>ATOM
      1 CA          8.1674  -13.3884  -48.9549 C.3       0 UNK        -0.1800 
      2 C           7.2617  -14.5750  -48.6558 C.2       0 UNK         0.5000 
      3 O           7.6655  -15.7190  -48.8637 O.2       0 UNK        -0.5000 
      4 N           6.0427  -14.3030  -48.1712 N.am      1 UNK        -0.5000 
      5 CA          5.0438  -15.3133  -47.8135 C.3       1 UNK         0.1400 
      6 C6          3.6044  -14.7416  -47.8020 C.3       23 UNK        -0.0398 
      7 S7          2.3425  -15.9872  -48.2346 S.3       23 UNK        -0.2404 
      8 C8          2.0356  -15.5934  -49.9876 C.3       23 UNK        -0.0205 
      9 C9          0.7813  -16.2839  -50.5019 C.ar      23 UNK        -0.0193 
     10 C10         0.8565  -17.3288  -51.4293 C.ar      23 UNK        -0.1150 
     11 C11        -0.3082  -17.9524  -51.8944 C.ar      23 UNK        -0.0193 
     12 C12        -1.5513  -17.5266  -51.4177 C.ar      23 UNK        -0.1150 
     13 C13        -1.6358  -16.4870  -50.4881 C.ar      23 UNK        -0.0193 
     14 C14        -0.4686  -15.8625  -50.0450 C.ar      23 UNK        -0.1150 
     15 C15        -2.9827  -16.0588  -49.9292 C.3       23 UNK        -0.0205 
     16 S16        -3.7024  -17.3270  -48.8390 S.3       23 UNK        -0.2404 
     17 C17        -2.3497  -17.6470  -47.6458 C.3       23 UNK        -0.0398 
     18 CA         -1.5566  -18.9517  -47.9286 C.3       11 UNK         0.1400 
     19 N          -0.4222  -19.1217  -47.0190 N.am      11 UNK        -0.5000 
     20 C           0.4740  -20.1190  -47.0628 C.2       10 UNK         0.5000 
     21 O           0.4925  -20.9921  -47.9280 O.2       10 UNK        -0.5000 
     22 CA          1.4844  -20.2021  -45.9073 C.3       10 UNK         0.1400 
     23 CB          2.6505  -19.2301  -46.1286 C.3       10 UNK        -0.1800 
     24 N           0.8676  -19.9611  -44.6025 N.am      10 UNK        -0.5000 
     25 C          -0.0928  -20.7266  -44.0624 C.2       9 UNK         0.5000 
     26 O          -0.5276  -21.7524  -44.5879 O.2       9 UNK        -0.5000 
     27 CA         -0.7034  -20.2392  -42.7352 C.3       9 UNK         0.1400 
     28 CB          0.2261  -20.5528  -41.5536 C.3       9 UNK        -0.1800 
     29 N          -1.0132  -18.8087  -42.7550 N.am      9 UNK        -0.5000 
     30 C          -1.9196  -18.2437  -43.5661 C.2       8 UNK         0.5000 
     31 O          -2.6359  -18.8802  -44.3400 O.2       8 UNK        -0.5000 
     32 CA         -2.0005  -16.7055  -43.5508 C.3       8 UNK         0.1400 
     33 CB         -2.8300  -16.2055  -42.3592 C.3       8 UNK        -0.1800 
     34 N          -0.6788  -16.0775  -43.5304 N.am      8 UNK        -0.5000 
     35 C           0.2310  -16.1911  -44.5078 C.2       7 UNK         0.5000 
     36 O           0.0241  -16.7885  -45.5600 O.2       7 UNK        -0.5000 
     37 CA          1.6168  -15.5791  -44.2485 C.3       7 UNK         0.1400 
     38 CB          1.6125  -14.0760  -44.5711 C.3       7 UNK        -0.1800 
     39 N           2.0619  -15.8208  -42.8738 N.am      7 UNK        -0.5000 
     40 C           2.4010  -17.0311  -42.4008 C.2       6 UNK         0.5000 
     41 O           2.4439  -18.0426  -43.0991 O.2       6 UNK        -0.5000 
     42 CA          2.6576  -17.1643  -40.8877 C.3       6 UNK         0.1400 
     43 CB          4.1445  -17.0274  -40.5327 C.3       6 UNK        -0.1800 
     44 N           1.8704  -16.2109  -40.1100 N.am      6 UNK        -0.5000 
     45 C           0.5567  -16.3484  -39.8848 C.2       5 UNK         0.5000 
     46 O          -0.1000  -17.3192  -40.2630 O.2       5 UNK        -0.5000 
     47 CA         -0.1519  -15.1853  -39.1653 C.3       5 UNK         0.1400 
     48 CB         -0.0787  -15.3665  -37.6422 C.3       5 UNK        -0.1800 
     49 N           0.3899  -13.8724  -39.5237 N.am      5 UNK        -0.5000 
     50 C           0.3672  -13.3502  -40.7575 C.2       4 UNK         0.5000 
     51 O          -0.1473  -13.9211  -41.7173 O.2       4 UNK        -0.5000 
     52 CA          1.0321  -11.9742  -40.9676 C.3       4 UNK         0.1400 
     53 CB          1.0881  -11.1272  -39.6771 C.3       4 UNK        -0.1800 
     54 N           2.3699  -12.0362  -41.5766 N.am      4 UNK        -0.5000 
     55 C           3.4304  -12.7364  -41.1463 C.2       3 UNK         0.5000 
     56 O           3.3669  -13.6303  -40.3003 O.2       3 UNK        -0.5000 
     57 CA          4.7946  -12.2994  -41.7208 C.3       3 UNK         0.1400 
     58 CB          5.9745  -12.6899  -40.8036 C.3       3 UNK        -0.1800 
     59 N           5.0410  -12.7192  -43.1067 N.am      3 UNK        -0.5000 
     60 C           5.2687  -13.9626  -43.5533 C.2       2 UNK         0.5000 
     61 O           5.1706  -14.9771  -42.8629 O.2       2 UNK        -0.5000 
     62 CA          5.7674  -14.0844  -45.0062 C.3       2 UNK         0.1400 
     63 CB          7.2189  -13.5704  -45.0756 C.3       2 UNK        -0.1800 
     64 N           5.7395  -15.4979  -45.3828 N.am      2 UNK        -0.5000 
     65 C           5.3956  -16.1088  -46.5286 C.2       1 UNK         0.5000 
     66 O           5.3784  -17.3367  -46.5883 O.2       1 UNK        -0.5000 
     67 C          -2.4653  -20.1942  -47.9145 C.2       11 UNK         0.5000 
     68 O          -2.6814  -20.7877  -48.9690 O.2       11 UNK        -0.5000 
     69 N          -2.9365  -20.5927  -46.7233 N.am      12 UNK        -0.5000 
     70 CA         -3.8043  -21.7551  -46.5249 C.3       12 UNK         0.1400 
     71 CB         -4.1816  -21.8681  -45.0408 C.3       12 UNK        -0.1800 
     72 C          -3.1913  -23.0714  -47.0370 C.2       12 UNK         0.5000 
     73 O          -3.8993  -23.8646  -47.6591 O.2       12 UNK        -0.5000 
     74 N          -1.8861  -23.2575  -46.8019 N.am      13 UNK        -0.5000 
     75 CA         -1.1113  -24.3898  -47.2997 C.3       13 UNK         0.1400 
     76 CB          0.2512  -24.4305  -46.5896 C.3       13 UNK        -0.1800 
     77 C          -0.9413  -24.3632  -48.8301 C.2       13 UNK         0.5000 
     78 O          -1.3045  -25.3329  -49.4965 O.2       13 UNK        -0.5000 
     79 N          -0.3958  -23.2611  -49.3625 N.am      14 UNK        -0.5000 
     80 CA         -0.0309  -23.1169  -50.7733 C.3       14 UNK         0.1400 
     81 CB          0.8909  -21.9021  -50.9424 C.3       14 UNK        -0.1800 
     82 C          -1.2391  -23.0184  -51.7198 C.2       14 UNK         0.5000 
     83 O          -1.1744  -23.5371  -52.8346 O.2       14 UNK        -0.5000 
     84 N          -2.3256  -22.3824  -51.2623 N.am      15 UNK        -0.5000 
     85 CA         -3.5914  -22.2917  -51.9894 C.3       15 UNK         0.1400 
     86 CB         -4.3337  -21.0122  -51.5740 C.3       15 UNK        -0.1800 
     87 C          -4.4877  -23.5275  -51.7900 C.2       15 UNK         0.5000 
     88 O          -5.5614  -23.5732  -52.3931 O.2       15 UNK        -0.5000 
     89 N          -4.0531  -24.4876  -50.9583 N.am      16 UNK        -0.5000 
     90 CA         -4.7086  -25.7596  -50.6390 C.3       16 UNK         0.1400 
     91 CB         -4.6877  -26.6915  -51.8689 C.3       16 UNK        -0.1800 
     92 C          -6.1243  -25.5519  -50.0693 C.2       16 UNK         0.5000 
     93 O          -7.0985  -26.0526  -50.6302 O.2       16 UNK        -0.5000 
     94 N          -6.2173  -24.7422  -49.0046 N.am      17 UNK        -0.5000 
     95 CA         -7.4557  -24.2770  -48.3636 C.3       17 UNK         0.1400 
     96 CB         -8.1688  -25.4409  -47.6450 C.3       17 UNK        -0.1800 
     97 C          -8.3814  -23.5090  -49.3363 C.2       17 UNK         0.5000 
     98 O          -9.6056  -23.6012  -49.2372 O.2       17 UNK        -0.5000 
     99 N          -7.7538  -22.7812  -50.2716 N.am      18 UNK        -0.5000 
    100 CA        -8.3363  -22.0179  -51.3785 C.3       18 UNK         0.1400 
    101 CB        -9.3070  -20.9309  -50.8722 C.3       18 UNK        -0.1800 
    102 C         -8.9402  -22.8823  -52.5073 C.2       18 UNK         0.5000 
    103 O         -9.6312  -22.3350  -53.3676 O.2       18 UNK        -0.5000 
    104 N         -8.6501  -24.1930  -52.5327 N.am      19 UNK        -0.5000 
    105 CA        -9.0557  -25.0928  -53.6164 C.3       19 UNK         0.1400 
    106 CB        -8.9845  -26.5526  -53.1453 C.3       19 UNK        -0.1800 
    107 C         -8.2064  -24.8953  -54.8857 C.2       19 UNK         0.5000 
    108 O         -8.7466  -24.9680  -55.9902 O.2       19 UNK        -0.5000 
    109 N         -6.9033  -24.6339  -54.7085 N.am      20 UNK        -0.5000 
    110 CA        -5.9743  -24.2948  -55.7895 C.3       20 UNK         0.1400 
    111 CB        -4.5827  -24.8609  -55.4653 C.3       20 UNK        -0.1800 
    112 C         -5.9011  -22.7735  -56.0137 C.2       20 UNK         0.5000 
    113 O         -5.5325  -22.3400  -57.1062 O.2       20 UNK        -0.5000 
    114 N         -6.2386  -21.9917  -54.9745 N.am      21 UNK        -0.5000 
    115 CA        -6.3792  -20.5272  -54.9623 C.3       21 UNK         0.1400 
    116 CB        -7.5753  -20.1036  -55.8388 C.3       21 UNK        -0.1800 
    117 C         -5.0876  -19.7552  -55.3190 C.2       21 UNK         0.5000 
    118 O         -5.1606  -18.5921  -55.7179 O.2       21 UNK        -0.5000 
    119 N         -3.9316  -20.4178  -55.1738 N.am      22 UNK        -0.5000 
    120 CA        -2.6047  -19.9539  -55.6130 C.3       22 UNK         0.1400 
    121 C         -2.4278  -19.9253  -57.1664 C.2       22 UNK         0.5000 
    122 N         -3.2653  -20.6059  -57.9426 N.am      22 UNK        -0.7600 
    123 O         -1.5071  -19.3011  -57.6858 O.2       22 UNK        -0.5000 
    124 C124       -2.1627  -18.6398  -54.9010 C.3       23 UNK        -0.0398 
    125 S125       -0.3604  -18.5557  -54.6102 S.3       23 UNK        -0.2404 
    126 C126       -0.2176  -19.1073  -52.8818 C.3       23 UNK        -0.0205 
    127 H127        9.0912  -13.4679  -48.3817 H         1 UNK         0.0600 
    128 H128        7.6919  -12.4405  -48.7016 H         1 UNK         0.0600 
    129 H129        8.4228  -13.3688  -50.0143 H         1 UNK         0.0600 
    130 H130        5.7756  -13.3402  -48.0274 H         1 UNK         0.3000 
    131 H131        5.0745  -16.0392  -48.6300 H         1 UNK         0.0600 
    132 H132        3.3515  -14.3159  -46.8327 H         1 UNK         0.0800 
    133 H133        3.5218  -13.9152  -48.5089 H         1 UNK         0.0800 
    134 H134        2.9075  -15.8779  -50.5786 H         1 UNK         0.0800 
    135 H135        1.9135  -14.5163  -50.1095 H         1 UNK         0.0800 
    136 H136        1.8212  -17.6597  -51.7875 H         1 UNK         0.1150 
    137 H137       -2.4558  -18.0174  -51.7451 H         1 UNK         0.1150 
    138 H138       -0.5266  -15.0618  -49.3209 H         1 UNK         0.1150 
    139 H139       -2.8943  -15.1228  -49.3754 H         1 UNK         0.0800 
    140 H140       -3.6710  -15.8646  -50.7529 H         1 UNK         0.0800 
    141 H141       -2.7890  -17.6759  -46.6494 H         1 UNK         0.0800 
    142 H142       -1.6715  -16.7937  -47.6383 H         1 UNK         0.0800 
    143 H143       -1.1315  -18.8759  -48.9306 H         1 UNK         0.0600 
    144 H144       -0.3089  -18.4006  -46.3094 H         1 UNK         0.3000 
    145 H145        1.8901  -21.2157  -45.8970 H         1 UNK         0.0600 
    146 H146        3.4242  -19.3607  -45.3720 H         1 UNK         0.0600 
    147 H147        3.1173  -19.3903  -47.1013 H         1 UNK         0.0600 
    148 H148        2.3221  -18.1922  -46.0924 H         1 UNK         0.0600 
    149 H149        1.2121  -19.1583  -44.0838 H         1 UNK         0.3000 
    150 H150       -1.6397  -20.7799  -42.5817 H         1 UNK         0.0600 
    151 H151        0.4254  -21.6231  -41.4893 H         1 UNK         0.0600 
    152 H152       -0.2209  -20.2467  -40.6075 H         1 UNK         0.0600 
    153 H153        1.1862  -20.0463  -41.6495 H         1 UNK         0.0600 
    154 H154       -0.5021  -18.2190  -42.1076 H         1 UNK         0.3000 
    155 H155       -2.5026  -16.3897  -44.4674 H         1 UNK         0.0600 
    156 H156       -2.3834  -16.4890  -41.4065 H         1 UNK         0.0600 
    157 H157       -3.8379  -16.6215  -42.3853 H         1 UNK         0.0600 
    158 H158       -2.9247  -15.1195  -42.3732 H         1 UNK         0.0600 
    159 H159       -0.4542  -15.4972  -42.7268 H         1 UNK         0.3000 
    160 H160        2.3286  -16.0613  -44.9218 H         1 UNK         0.0600 
    161 H161        2.5957  -13.6322  -44.4368 H         1 UNK         0.0600 
    162 H162        0.9107  -13.5196  -43.9533 H         1 UNK         0.0600 
    163 H163        1.3197  -13.9081  -45.6082 H         1 UNK         0.0600 
    164 H164        2.0122  -15.0462  -42.2286 H         1 UNK         0.3000 
    165 H165        2.3545  -18.1739  -40.6030 H         1 UNK         0.0600 
    166 H166        4.3302  -17.3437  -39.5064 H         1 UNK         0.0600 
    167 H167        4.7638  -17.6468  -41.1827 H         1 UNK         0.0600 
    168 H168        4.4922  -16.0003  -40.6266 H         1 UNK         0.0600 
    169 H169        2.3362  -15.3508  -39.8375 H         1 UNK         0.3000 
    170 H170       -1.2026  -15.2054  -39.4619 H         1 UNK         0.0600 
    171 H171       -0.4947  -16.3297  -37.3436 H         1 UNK         0.0600 
    172 H172        0.9497  -15.3263  -37.2808 H         1 UNK         0.0600 
    173 H173       -0.6476  -14.5937  -37.1249 H         1 UNK         0.0600 
    174 H174        0.8568  -13.3571  -38.7918 H         1 UNK         0.3000 
    175 H175        0.3964  -11.4423  -41.6771 H         1 UNK         0.0600 
    176 H176        1.7786  -11.5398  -38.9407 H         1 UNK         0.0600 
    177 H177        1.4135  -10.1100  -39.8954 H         1 UNK         0.0600 
    178 H178        0.1052  -11.0539  -39.2094 H         1 UNK         0.0600 
    179 H179        2.5253  -11.3669  -42.3173 H         1 UNK         0.3000 
    180 H180        4.7769  -11.2086  -41.7437 H         1 UNK         0.0600 
    181 H181        6.0732  -13.7703  -40.6952 H         1 UNK         0.0600 
    182 H182        5.8398  -12.2774  -39.8031 H         1 UNK         0.0600 
    183 H183        6.9183  -12.3044  -41.1891 H         1 UNK         0.0600 
    184 H184        5.1371  -11.9584  -43.7648 H         1 UNK         0.3000 
    185 H185        5.1226  -13.4902  -45.6526 H         1 UNK         0.0600 
    186 H186        7.2653  -12.4959  -44.8953 H         1 UNK         0.0600 
    187 H187        7.8492  -14.0532  -44.3272 H         1 UNK         0.0600 
    188 H188        7.6800  -13.7511  -46.0420 H         1 UNK         0.0600 
    189 H189        5.8880  -16.0908  -44.5763 H         1 UNK         0.3000 
    190 H190       -2.7070  -20.0503  -45.8947 H         1 UNK         0.3000 
    191 H191       -4.7184  -21.5778  -47.0951 H         1 UNK         0.0600 
    192 H192       -3.3017  -22.0058  -44.4115 H         1 UNK         0.0600 
    193 H193       -4.8461  -22.7158  -44.8691 H         1 UNK         0.0600 
    194 H194       -4.6999  -20.9728  -44.6970 H         1 UNK         0.0600 
    195 H195       -1.3866  -22.5667  -46.2506 H         1 UNK         0.3000 
    196 H196       -1.6494  -25.3046  -47.0420 H         1 UNK         0.0600 
    197 H197        0.8511  -25.2707  -46.9413 H         1 UNK         0.0600 
    198 H198        0.1286  -24.5457  -45.5125 H         1 UNK         0.0600 
    199 H199        0.8261  -23.5200  -46.7616 H         1 UNK         0.0600 
    200 H200       -0.1482  -22.4814  -48.7546 H         1 UNK         0.3000 
    201 H201        0.5352  -24.0055  -51.0608 H         1 UNK         0.0600 
    202 H202        1.7831  -21.9948  -50.3229 H         1 UNK         0.0600 
    203 H203        0.3868  -20.9758  -50.6637 H         1 UNK         0.0600 
    204 H204        1.2231  -21.8070  -51.9765 H         1 UNK         0.0600 
    205 H205       -2.3060  -21.9435  -50.3423 H         1 UNK         0.3000 
    206 H206       -3.3778  -22.2208  -53.0565 H         1 UNK         0.0600 
    207 H207       -3.6888  -20.1369  -51.6492 H         1 UNK         0.0600 
    208 H208       -5.1946  -20.8338  -52.2143 H         1 UNK         0.0600 
    209 H209       -4.7030  -21.0723  -50.5499 H         1 UNK         0.0600 
    210 H210       -3.1635  -24.3410  -50.4992 H         1 UNK         0.3000 
    211 H211       -4.1177  -26.2293  -49.8512 H         1 UNK         0.0600 
    212 H212       -5.0906  -27.6739  -51.6201 H         1 UNK         0.0600 
    213 H213       -3.6708  -26.8394  -52.2322 H         1 UNK         0.0600 
    214 H214       -5.2819  -26.2946  -52.6923 H         1 UNK         0.0600 
    215 H215       -5.3518  -24.3875  -48.5977 H         1 UNK         0.3000 
    216 H216       -7.1517  -23.5569  -47.6026 H         1 UNK         0.0600 
    217 H217       -9.0105  -25.0788  -47.0536 H         1 UNK         0.0600 
    218 H218       -7.4922  -25.9555  -46.9627 H         1 UNK         0.0600 
    219 H219       -8.5575  -26.1760  -48.3503 H         1 UNK         0.0600 
    220 H220       -6.7455  -22.8333  -50.2803 H         1 UNK         0.3000 
    221 H221       -7.4960  -21.4983  -51.8383 H         1 UNK         0.0600 
    222 H222      -10.2305  -21.3590  -50.4823 H         1 UNK         0.0600 
    223 H223       -8.8528  -20.3322  -50.0826 H         1 UNK         0.0600 
    224 H224       -9.5821  -20.2475  -51.6764 H         1 UNK         0.0600 
    225 H225       -8.0710  -24.5927  -51.8022 H         1 UNK         0.3000 
    226 H226      -10.0958  -24.8772  -53.8705 H         1 UNK         0.0600 
    227 H227       -9.5474  -26.7003  -52.2234 H         1 UNK         0.0600 
    228 H228       -9.4051  -27.2225  -53.8961 H         1 UNK         0.0600 
    229 H229       -7.9568  -26.8704  -52.9674 H         1 UNK         0.0600 
    230 H230       -6.5430  -24.5516  -53.7625 H         1 UNK         0.3000 
    231 H231       -6.3108  -24.7510  -56.7227 H         1 UNK         0.0600 
    232 H232       -4.6231  -25.9391  -55.3101 H         1 UNK         0.0600 
    233 H233       -4.1535  -24.4109  -54.5711 H         1 UNK         0.0600 
    234 H234       -3.8884  -24.6773  -56.2863 H         1 UNK         0.0600 
    235 H235       -6.4601  -22.4627  -54.1073 H         1 UNK         0.3000 
    236 H236       -6.6223  -20.2496  -53.9369 H         1 UNK         0.0600 
    237 H237       -7.3866  -20.2881  -56.8968 H         1 UNK         0.0600 
    238 H238       -8.4786  -20.6464  -55.5594 H         1 UNK         0.0600 
    239 H239       -7.7908  -19.0406  -55.7252 H         1 UNK         0.0600 
    240 H240       -3.9829  -21.3808  -54.8811 H         1 UNK         0.3000 
    241 H241       -1.9320  -20.7452  -55.2803 H         1 UNK         0.0600 
    242 H242       -4.0364  -21.1412  -57.5555 H         1 UNK         0.3800 
    243 H243       -3.1334  -20.5845  -58.9412 H         1 UNK         0.3800 
    244 H244       -2.4698  -17.7645  -55.4756 H         1 UNK         0.0800 
    245 H245       -2.6681  -18.5448  -53.9412 H         1 UNK         0.0800 
    246 H246        0.7466  -19.6031  -52.7694 H         1 UNK         0.0800 
    247 H247       -0.9750  -19.8614  -52.6608 H         1 UNK         0.0800 
@<TRIPOS>BOND
     1    1    2 1    
     2    1  127 1    
     3    1  128 1    
     4    1  129 1    
     5    2    3 2    
     6    2    4 am   BACKBONE|DICT|INTERRES
     7    4    5 1    
     8    4  130 1    
     9    5    6 1    
    10    5   65 1    
    11    5  131 1    
    12    6    7 1    
    13    6  132 1    
    14    6  133 1    
    15    7    8 1    
    16    8    9 1    
    17    8  134 1    
    18    8  135 1    
    19    9   10 ar   
    20    9   14 ar   
    21   10   11 ar   
    22   10  136 1    
    23   11   12 ar   
    24   11  126 1    
    25   12   13 ar   
    26   12  137 1    
    27   13   14 ar   
    28   13   15 1    
    29   14  138 1    
    30   15   16 1    
    31   15  139 1    
    32   15  140 1    
    33   16   17 1    
    34   17   18 1    
    35   17  141 1    
    36   17  142 1    
    37   18   19 1    
    38   18   67 1    
    39   18  143 1    
    40   19   20 am   BACKBONE|DICT|INTERRES
    41   19  144 1    
    42   20   21 2    
    43   20   22 1    
    44   22   23 1    
    45   22   24 1    
    46   22  145 1    
    47   23  146 1    
    48   23  147 1    
    49   23  148 1    
    50   24   25 am   BACKBONE|DICT|INTERRES
    51   24  149 1    
    52   25   26 2    
    53   25   27 1    
    54   27   28 1    
    55   27   29 1    
    56   27  150 1    
    57   28  151 1    
    58   28  152 1    
    59   28  153 1    
    60   29   30 am   BACKBONE|DICT|INTERRES
    61   29  154 1    
    62   30   31 2    
    63   30   32 1    
    64   32   33 1    
    65   32   34 1    
    66   32  155 1    
    67   33  156 1    
    68   33  157 1    
    69   33  158 1    
    70   34   35 am   BACKBONE|DICT|INTERRES
    71   34  159 1    
    72   35   36 2    
    73   35   37 1    
    74   37   38 1    
    75   37   39 1    
    76   37  160 1    
    77   38  161 1    
    78   38  162 1    
    79   38  163 1    
    80   39   40 am   BACKBONE|DICT|INTERRES
    81   39  164 1    
    82   40   41 2    
    83   40   42 1    
    84   42   43 1    
    85   42   44 1    
    86   42  165 1    
    87   43  166 1    
    88   43  167 1    
    89   43  168 1    
    90   44   45 am   BACKBONE|DICT|INTERRES
    91   44  169 1    
    92   45   46 2    
    93   45   47 1    
    94   47   48 1    
    95   47   49 1    
    96   47  170 1    
    97   48  171 1    
    98   48  172 1    
    99   48  173 1    
   100   49   50 am   BACKBONE|DICT|INTERRES
   101   49  174 1    
   102   50   51 2    
   103   50   52 1    
   104   52   53 1    
   105   52   54 1    
   106   52  175 1    
   107   53  176 1    
   108   53  177 1    
   109   53  178 1    
   110   54   55 am   BACKBONE|DICT|INTERRES
   111   54  179 1    
   112   55   56 2    
   113   55   57 1    
   114   57   58 1    
   115   57   59 1    
   116   57  180 1    
   117   58  181 1    
   118   58  182 1    
   119   58  183 1    
   120   59   60 am   BACKBONE|DICT|INTERRES
   121   59  184 1    
   122   60   61 2    
   123   60   62 1    
   124   62   63 1    
   125   62   64 1    
   126   62  185 1    
   127   63  186 1    
   128   63  187 1    
   129   63  188 1    
   130   64   65 am   BACKBONE|DICT|INTERRES
   131   64  189 1    
   132   65   66 2    
   133   67   68 2    
   134   67   69 am   BACKBONE|DICT|INTERRES
   135   69   70 1    
   136   69  190 1    
   137   70   71 1    
   138   70   72 1    
   139   70  191 1    
   140   71  192 1    
   141   71  193 1    
   142   71  194 1    
   143   72   73 2    
   144   72   74 am   BACKBONE|DICT|INTERRES
   145   74   75 1    
   146   74  195 1    
   147   75   76 1    
   148   75   77 1    
   149   75  196 1    
   150   76  197 1    
   151   76  198 1    
   152   76  199 1    
   153   77   78 2    
   154   77   79 am   BACKBONE|DICT|INTERRES
   155   79   80 1    
   156   79  200 1    
   157   80   81 1    
   158   80   82 1    
   159   80  201 1    
   160   81  202 1    
   161   81  203 1    
   162   81  204 1    
   163   82   83 2    
   164   82   84 am   BACKBONE|DICT|INTERRES
   165   84   85 1    
   166   84  205 1    
   167   85   86 1    
   168   85   87 1    
   169   85  206 1    
   170   86  207 1    
   171   86  208 1    
   172   86  209 1    
   173   87   88 2    
   174   87   89 am   BACKBONE|DICT|INTERRES
   175   89   90 1    
   176   89  210 1    
   177   90   91 1    
   178   90   92 1    
   179   90  211 1    
   180   91  212 1    
   181   91  213 1    
   182   91  214 1    
   183   92   93 2    
   184   92   94 am   BACKBONE|DICT|INTERRES
   185   94   95 1    
   186   94  215 1    
   187   95   96 1    
   188   95   97 1    
   189   95  216 1    
   190   96  217 1    
   191   96  218 1    
   192   96  219 1    
   193   97   98 2    
   194   97   99 am   BACKBONE|DICT|INTERRES
   195   99  100 1    
   196   99  220 1    
   197  100  101 1    
   198  100  102 1    
   199  100  221 1    
   200  101  222 1    
   201  101  223 1    
   202  101  224 1    
   203  102  103 2    
   204  102  104 am   BACKBONE|DICT|INTERRES
   205  104  105 1    
   206  104  225 1    
   207  105  106 1    
   208  105  107 1    
   209  105  226 1    
   210  106  227 1    
   211  106  228 1    
   212  106  229 1    
   213  107  108 2    
   214  107  109 am   BACKBONE|DICT|INTERRES
   215  109  110 1    
   216  109  230 1    
   217  110  111 1    
   218  110  112 1    
   219  110  231 1    
   220  111  232 1    
   221  111  233 1    
   222  111  234 1    
   223  112  113 2    
   224  112  114 am   BACKBONE|DICT|INTERRES
   225  114  115 1    
   226  114  235 1    
   227  115  116 1    
   228  115  117 1    
   229  115  236 1    
   230  116  237 1    
   231  116  238 1    
   232  116  239 1    
   233  117  118 2    
   234  117  119 am   BACKBONE|DICT|INTERRES
   235  119  120 1    
   236  119  240 1    
   237  120  121 1    
   238  120  124 1    
   239  120  241 1    
   240  121  122 am   BACKBONE|DICT|INTERRES
   241  121  123 2    
   242  122  242 1    
   243  122  243 1    
   244  124  125 1    
   245  124  244 1    
   246  124  245 1    
   247  125  126 1    
   248  126  246 1    
   249  126  247 1    
@<TRIPOS>SUBSTRUCTURE
     1 UNK         1 GROUP             0       ****    0 ROOT    
