@<TRIPOS>MOLECULE
3R540
247   249    1
SMALL
USER_CHARGES


@<TRIPOS>ATOM
      1 CA         -0.1990   -9.9339  -47.0653 C.3       0 UNK        -0.1800 
      2 C          -1.2088  -10.7428  -46.2632 C.2       0 UNK         0.5000 
      3 O          -2.0563  -10.1617  -45.5856 O.2       0 UNK        -0.5000 
      4 N          -1.1118  -12.0767  -46.3401 N.am      1 UNK        -0.5000 
      5 CA         -1.9420  -13.0612  -45.6299 C.3       1 UNK         0.1400 
      6 C6         -3.4042  -13.1369  -46.1431 C.3       23 UNK        -0.0398 
      7 S7         -3.4546  -13.8262  -47.8308 S.3       23 UNK        -0.2404 
      8 C8         -3.5610  -15.6074  -47.4577 C.3       23 UNK        -0.0205 
      9 C9         -2.7936  -16.4314  -48.4787 C.ar      23 UNK        -0.0193 
     10 C10        -3.3749  -16.7440  -49.7094 C.ar      23 UNK        -0.1150 
     11 C11        -2.6623  -17.4722  -50.6658 C.ar      23 UNK        -0.0193 
     12 C12        -1.3645  -17.9055  -50.3771 C.ar      23 UNK        -0.1150 
     13 C13        -0.7719  -17.6014  -49.1477 C.ar      23 UNK        -0.0193 
     14 C14        -1.4950  -16.8684  -48.2008 C.ar      23 UNK        -0.1150 
     15 C15         0.6732  -17.9938  -48.8713 C.3       23 UNK        -0.0205 
     16 S16         0.8490  -19.1299  -47.4593 S.3       23 UNK        -0.2404 
     17 C17         0.5483  -20.7644  -48.2108 C.3       23 UNK        -0.0398 
     18 CA         -0.6310  -21.5726  -47.6118 C.3       11 UNK         0.1400 
     19 N          -0.5697  -21.7343  -46.1513 N.am      11 UNK        -0.5000 
     20 C          -0.9221  -22.8690  -45.5239 C.2       10 UNK         0.5000 
     21 O          -1.2804  -23.8887  -46.1136 O.2       10 UNK        -0.5000 
     22 CA         -0.8834  -22.8873  -43.9820 C.3       10 UNK         0.1400 
     23 CB          0.5157  -23.2828  -43.4862 C.3       10 UNK        -0.1800 
     24 N          -1.2730  -21.6280  -43.3494 N.am      10 UNK        -0.5000 
     25 C          -2.4526  -21.0107  -43.4986 C.2       9 UNK         0.5000 
     26 O          -3.3686  -21.4531  -44.1891 O.2       9 UNK        -0.5000 
     27 CA         -2.6327  -19.6478  -42.7971 C.3       9 UNK         0.1400 
     28 CB         -3.4264  -19.8209  -41.4938 C.3       9 UNK        -0.1800 
     29 N          -1.3876  -18.9246  -42.5079 N.am      9 UNK        -0.5000 
     30 C          -0.4626  -18.5876  -43.4167 C.2       8 UNK         0.5000 
     31 O          -0.5236  -18.9333  -44.5974 O.2       8 UNK        -0.5000 
     32 CA          0.7463  -17.7828  -42.8955 C.3       8 UNK         0.1400 
     33 CB          1.6869  -18.6878  -42.0830 C.3       8 UNK        -0.1800 
     34 N           1.5230  -17.1507  -43.9630 N.am      8 UNK        -0.5000 
     35 C           1.0608  -16.2156  -44.8023 C.2       7 UNK         0.5000 
     36 O          -0.0709  -15.7373  -44.7336 O.2       7 UNK        -0.5000 
     37 CA          2.0640  -15.6947  -45.8418 C.3       7 UNK         0.1400 
     38 CB          1.4931  -14.5806  -46.7383 C.3       7 UNK        -0.1800 
     39 N           3.2300  -15.1737  -45.1387 N.am      7 UNK        -0.5000 
     40 C           4.5072  -15.4348  -45.4397 C.2       6 UNK         0.5000 
     41 O           4.8520  -16.1981  -46.3435 O.2       6 UNK        -0.5000 
     42 CA          5.5720  -14.7260  -44.5747 C.3       6 UNK         0.1400 
     43 CB          6.9549  -14.6467  -45.2550 C.3       6 UNK        -0.1800 
     44 N           5.1384  -13.4065  -44.1013 N.am      6 UNK        -0.5000 
     45 C           4.8455  -12.3227  -44.8406 C.2       5 UNK         0.5000 
     46 O           4.9753  -12.2753  -46.0642 O.2       5 UNK        -0.5000 
     47 CA          4.2936  -11.0861  -44.0984 C.3       5 UNK         0.1400 
     48 CB          2.9566  -10.6258  -44.7090 C.3       5 UNK        -0.1800 
     49 N           4.0910  -11.3457  -42.6716 N.am      5 UNK        -0.5000 
     50 C           4.9796  -11.0880  -41.7017 C.2       4 UNK         0.5000 
     51 O           6.0556  -10.5215  -41.8941 O.2       4 UNK        -0.5000 
     52 CA          4.6194  -11.5645  -40.2782 C.3       4 UNK         0.1400 
     53 CB          4.0379  -10.4035  -39.4571 C.3       4 UNK        -0.1800 
     54 N           3.6693  -12.6805  -40.2572 N.am      4 UNK        -0.5000 
     55 C           3.9210  -13.9205  -40.7020 C.2       3 UNK         0.5000 
     56 O           5.0126  -14.2795  -41.1420 O.2       3 UNK        -0.5000 
     57 CA          2.7269  -14.8953  -40.7401 C.3       3 UNK         0.1400 
     58 CB          2.6242  -15.6906  -39.4312 C.3       3 UNK        -0.1800 
     59 N           1.4499  -14.2237  -41.0071 N.am      3 UNK        -0.5000 
     60 C           1.1720  -13.5748  -42.1443 C.2       2 UNK         0.5000 
     61 O           1.9646  -13.4886  -43.0877 O.2       2 UNK        -0.5000 
     62 CA         -0.1810  -12.8607  -42.2258 C.3       2 UNK         0.1400 
     63 CB         -0.0708  -11.4244  -41.6889 C.3       2 UNK        -0.1800 
     64 N          -0.5746  -12.8279  -43.6253 N.am      2 UNK        -0.5000 
     65 C          -1.8217  -12.9295  -44.0946 C.2       1 UNK         0.5000 
     66 O          -2.8247  -12.9296  -43.3779 O.2       1 UNK        -0.5000 
     67 C          -2.0053  -21.0680  -48.0920 C.2       11 UNK         0.5000 
     68 O          -2.3371  -21.2672  -49.2599 O.2       11 UNK        -0.5000 
     69 N          -2.7967  -20.4693  -47.1917 N.am      12 UNK        -0.5000 
     70 CA         -4.1771  -20.0726  -47.4618 C.3       12 UNK         0.1400 
     71 CB         -4.6216  -19.0317  -46.4225 C.3       12 UNK        -0.1800 
     72 C          -5.1186  -21.2914  -47.4533 C.2       12 UNK         0.5000 
     73 O          -5.9608  -21.4177  -48.3438 O.2       12 UNK        -0.5000 
     74 N          -4.9457  -22.1674  -46.4508 N.am      13 UNK        -0.5000 
     75 CA         -5.7100  -23.3919  -46.2097 C.3       13 UNK         0.1400 
     76 CB         -5.1470  -24.1003  -44.9672 C.3       13 UNK        -0.1800 
     77 C          -5.7075  -24.3330  -47.4259 C.2       13 UNK         0.5000 
     78 O          -4.6620  -24.8905  -47.7682 O.2       13 UNK        -0.5000 
     79 N          -6.8712  -24.4369  -48.0853 N.am      14 UNK        -0.5000 
     80 CA         -7.1297  -25.1928  -49.3179 C.3       14 UNK         0.1400 
     81 CB         -7.0871  -26.7087  -49.0309 C.3       14 UNK        -0.1800 
     82 C          -6.2088  -24.7941  -50.4929 C.2       14 UNK         0.5000 
     83 O          -5.9350  -25.6253  -51.3593 O.2       14 UNK        -0.5000 
     84 N          -5.7023  -23.5508  -50.4754 N.am      15 UNK        -0.5000 
     85 CA         -4.6678  -23.0141  -51.3632 C.3       15 UNK         0.1400 
     86 CB         -5.2279  -22.8046  -52.7853 C.3       15 UNK        -0.1800 
     87 C          -3.3794  -23.8638  -51.3477 C.2       15 UNK         0.5000 
     88 O          -2.8435  -24.1861  -52.4101 O.2       15 UNK        -0.5000 
     89 N          -2.9355  -24.2566  -50.1446 N.am      16 UNK        -0.5000 
     90 CA         -1.7864  -25.1281  -49.8734 C.3       16 UNK         0.1400 
     91 CB         -0.4750  -24.4811  -50.3721 C.3       16 UNK        -0.1800 
     92 C          -1.9942  -26.5526  -50.4317 C.2       16 UNK         0.5000 
     93 O          -1.0433  -27.1702  -50.9115 O.2       16 UNK        -0.5000 
     94 N          -3.2486  -27.0267  -50.3808 N.am      17 UNK        -0.5000 
     95 CA         -3.7660  -28.2397  -51.0234 C.3       17 UNK         0.1400 
     96 CB         -3.1226  -29.5114  -50.4315 C.3       17 UNK        -0.1800 
     97 C          -3.6639  -28.1500  -52.5615 C.2       17 UNK         0.5000 
     98 O          -3.1116  -29.0432  -53.2066 O.2       17 UNK        -0.5000 
     99 N          -4.2058  -27.0493  -53.1037 N.am      18 UNK        -0.5000 
    100 CA        -4.2663  -26.6744  -54.5195 C.3       18 UNK         0.1400 
    101 CB        -5.2239  -27.6129  -55.2826 C.3       18 UNK        -0.1800 
    102 C         -2.8782  -26.5500  -55.1848 C.2       18 UNK         0.5000 
    103 O         -2.6868  -27.0264  -56.3058 O.2       18 UNK        -0.5000 
    104 N         -1.9382  -25.9069  -54.4815 N.am      19 UNK        -0.5000 
    105 CA        -0.5634  -25.6799  -54.9336 C.3       19 UNK         0.1400 
    106 CB         0.4069  -26.4343  -54.0122 C.3       19 UNK        -0.1800 
    107 C         -0.2063  -24.1845  -54.9937 C.2       19 UNK         0.5000 
    108 O          0.6168  -23.8035  -55.8270 O.2       19 UNK        -0.5000 
    109 N         -0.8258  -23.3556  -54.1401 N.am      20 UNK        -0.5000 
    110 CA        -0.6384  -21.9015  -54.1244 C.3       20 UNK         0.1400 
    111 CB        -0.9723  -21.3553  -52.7274 C.3       20 UNK        -0.1800 
    112 C         -1.4838  -21.1881  -55.1961 C.2       20 UNK         0.5000 
    113 O         -1.1381  -20.0725  -55.5860 O.2       20 UNK        -0.5000 
    114 N         -2.5621  -21.8483  -55.6514 N.am      21 UNK        -0.5000 
    115 CA        -3.5028  -21.4104  -56.6903 C.3       21 UNK         0.1400 
    116 CB        -2.8172  -21.4192  -58.0726 C.3       21 UNK        -0.1800 
    117 C         -4.1882  -20.0661  -56.3602 C.2       21 UNK         0.5000 
    118 O         -4.2706  -19.1816  -57.2150 O.2       21 UNK        -0.5000 
    119 N         -4.6462  -19.9393  -55.1082 N.am      22 UNK        -0.5000 
    120 CA        -5.3373  -18.7622  -54.5608 C.3       22 UNK         0.1400 
    121 C         -6.6508  -18.4101  -55.3160 C.2       22 UNK         0.5000 
    122 N         -6.9390  -17.1305  -55.5118 N.am      22 UNK        -0.7600 
    123 O         -7.4322  -19.2852  -55.6827 O.2       22 UNK        -0.5000 
    124 C124       -5.6328  -18.9222  -53.0466 C.3       23 UNK        -0.0398 
    125 S125       -4.1693  -19.3342  -52.0372 S.3       23 UNK        -0.2404 
    126 C126       -3.2845  -17.7483  -52.0241 C.3       23 UNK        -0.0205 
    127 H127       -0.7136   -9.3037  -47.7907 H         1 UNK         0.0600 
    128 H128        0.4987  -10.5748  -47.6050 H         1 UNK         0.0600 
    129 H129        0.3777   -9.2906  -46.4006 H         1 UNK         0.0600 
    130 H130       -0.4080  -12.4733  -46.9451 H         1 UNK         0.3000 
    131 H131       -1.4891  -14.0248  -45.8559 H         1 UNK         0.0600 
    132 H132       -3.8701  -12.1508  -46.1421 H         1 UNK         0.0800 
    133 H133       -4.0248  -13.7646  -45.5013 H         1 UNK         0.0800 
    134 H134       -4.6089  -15.9105  -47.4407 H         1 UNK         0.0800 
    135 H135       -3.1671  -15.8094  -46.4602 H         1 UNK         0.0800 
    136 H136       -4.3759  -16.4009  -49.9305 H         1 UNK         0.1150 
    137 H137       -0.8091  -18.4590  -51.1203 H         1 UNK         0.1150 
    138 H138       -1.0397  -16.6283  -47.2502 H         1 UNK         0.1150 
    139 H139        1.1412  -18.4299  -49.7551 H         1 UNK         0.0800 
    140 H140        1.2369  -17.0858  -48.6552 H         1 UNK         0.0800 
    141 H141        1.4653  -21.3412  -48.0848 H         1 UNK         0.0800 
    142 H142        0.4244  -20.6592  -49.2902 H         1 UNK         0.0800 
    143 H143       -0.5373  -22.5654  -48.0509 H         1 UNK         0.0600 
    144 H144       -0.3083  -20.9144  -45.6143 H         1 UNK         0.3000 
    145 H145       -1.5910  -23.6495  -43.6491 H         1 UNK         0.0600 
    146 H146        0.5320  -23.4027  -42.4027 H         1 UNK         0.0600 
    147 H147        0.8309  -24.2323  -43.9213 H         1 UNK         0.0600 
    148 H148        1.2632  -22.5347  -43.7535 H         1 UNK         0.0600 
    149 H149       -0.5762  -21.1778  -42.7756 H         1 UNK         0.3000 
    150 H150       -3.2189  -19.0196  -43.4704 H         1 UNK         0.0600 
    151 H151       -4.3733  -20.3310  -41.6768 H         1 UNK         0.0600 
    152 H152       -3.6618  -18.8568  -41.0428 H         1 UNK         0.0600 
    153 H153       -2.8725  -20.4098  -40.7615 H         1 UNK         0.0600 
    154 H154       -1.2597  -18.6295  -41.5508 H         1 UNK         0.3000 
    155 H155        0.3703  -16.9906  -42.2449 H         1 UNK         0.0600 
    156 H156        1.1708  -19.1369  -41.2337 H         1 UNK         0.0600 
    157 H157        2.5303  -18.1251  -41.6827 H         1 UNK         0.0600 
    158 H158        2.0856  -19.5005  -42.6918 H         1 UNK         0.0600 
    159 H159        2.4604  -17.4961  -44.1027 H         1 UNK         0.3000 
    160 H160        2.3365  -16.5436  -46.4713 H         1 UNK         0.0600 
    161 H161        1.2492  -13.6923  -46.1561 H         1 UNK         0.0600 
    162 H162        0.5891  -14.9055  -47.2529 H         1 UNK         0.0600 
    163 H163        2.2137  -14.2878  -47.5019 H         1 UNK         0.0600 
    164 H164        3.0203  -14.5467  -44.3667 H         1 UNK         0.3000 
    165 H165        5.6855  -15.3416  -43.6814 H         1 UNK         0.0600 
    166 H166        6.9118  -14.1116  -46.2039 H         1 UNK         0.0600 
    167 H167        7.6796  -14.1414  -44.6166 H         1 UNK         0.0600 
    168 H168        7.3461  -15.6435  -45.4614 H         1 UNK         0.0600 
    169 H169        5.0036  -13.3423  -43.1001 H         1 UNK         0.3000 
    170 H170        5.0182  -10.2798  -44.2286 H         1 UNK         0.0600 
    171 H171        3.0827  -10.3321  -45.7517 H         1 UNK         0.0600 
    172 H172        2.2037  -11.4133  -44.6833 H         1 UNK         0.0600 
    173 H173        2.5559   -9.7625  -44.1777 H         1 UNK         0.0600 
    174 H174        3.2515  -11.8598  -42.4396 H         1 UNK         0.3000 
    175 H175        5.5429  -11.8966  -39.7991 H         1 UNK         0.0600 
    176 H176        3.0998  -10.0417  -39.8801 H         1 UNK         0.0600 
    177 H177        3.8487  -10.7046  -38.4265 H         1 UNK         0.0600 
    178 H178        4.7305   -9.5613  -39.4258 H         1 UNK         0.0600 
    179 H179        2.7424  -12.4762  -39.9142 H         1 UNK         0.3000 
    180 H180        2.9092  -15.6008  -41.5536 H         1 UNK         0.0600 
    181 H181        2.4151  -15.0416  -38.5799 H         1 UNK         0.0600 
    182 H182        3.5555  -16.2186  -39.2215 H         1 UNK         0.0600 
    183 H183        1.8337  -16.4394  -39.4863 H         1 UNK         0.0600 
    184 H184        0.7626  -14.2460  -40.2671 H         1 UNK         0.3000 
    185 H185       -0.9124  -13.4239  -41.6424 H         1 UNK         0.0600 
    186 H186        0.2264  -11.4179  -40.6396 H         1 UNK         0.0600 
    187 H187        0.6655  -10.8421  -42.2449 H         1 UNK         0.0600 
    188 H188       -1.0267  -10.9051  -41.7589 H         1 UNK         0.0600 
    189 H189        0.2013  -12.8938  -44.2703 H         1 UNK         0.3000 
    190 H190       -2.4600  -20.3589  -46.2465 H         1 UNK         0.3000 
    191 H191       -4.2191  -19.6071  -48.4496 H         1 UNK         0.0600 
    192 H192       -4.7391  -19.4677  -45.4305 H         1 UNK         0.0600 
    193 H193       -3.8989  -18.2209  -46.3423 H         1 UNK         0.0600 
    194 H194       -5.5799  -18.5926  -46.7016 H         1 UNK         0.0600 
    195 H195       -4.2431  -21.9517  -45.7476 H         1 UNK         0.3000 
    196 H196       -6.7387  -23.0990  -45.9919 H         1 UNK         0.0600 
    197 H197       -5.2530  -23.4794  -44.0775 H         1 UNK         0.0600 
    198 H198       -4.0884  -24.3367  -45.0853 H         1 UNK         0.0600 
    199 H199       -5.6747  -25.0353  -44.7751 H         1 UNK         0.0600 
    200 H200       -7.6550  -23.8974  -47.7443 H         1 UNK         0.3000 
    201 H201       -8.1438  -24.9406  -49.6304 H         1 UNK         0.0600 
    202 H202       -7.3986  -27.2844  -49.9034 H         1 UNK         0.0600 
    203 H203       -7.7595  -26.9734  -48.2150 H         1 UNK         0.0600 
    204 H204       -6.0851  -27.0420  -48.7592 H         1 UNK         0.0600 
    205 H205       -5.9714  -22.9375  -49.7117 H         1 UNK         0.3000 
    206 H206       -4.3935  -22.0399  -50.9590 H         1 UNK         0.0600 
    207 H207       -6.1100  -22.1653  -52.7696 H         1 UNK         0.0600 
    208 H208       -5.5077  -23.7466  -53.2563 H         1 UNK         0.0600 
    209 H209       -4.4881  -22.3258  -53.4254 H         1 UNK         0.0600 
    210 H210       -3.4827  -24.0066  -49.3289 H         1 UNK         0.3000 
    211 H211       -1.7241  -25.2205  -48.7880 H         1 UNK         0.0600 
    212 H212       -0.4000  -23.4385  -50.0720 H         1 UNK         0.0600 
    213 H213        0.3942  -25.0036  -49.9717 H         1 UNK         0.0600 
    214 H214       -0.3975  -24.5055  -51.4578 H         1 UNK         0.0600 
    215 H215       -3.9487  -26.4210  -49.9752 H         1 UNK         0.3000 
    216 H216       -4.8311  -28.2777  -50.7905 H         1 UNK         0.0600 
    217 H217       -3.6047  -30.4072  -50.8244 H         1 UNK         0.0600 
    218 H218       -2.0613  -29.5844  -50.6696 H         1 UNK         0.0600 
    219 H219       -3.2259  -29.5364  -49.3467 H         1 UNK         0.0600 
    220 H220       -4.6719  -26.4031  -52.4701 H         1 UNK         0.3000 
    221 H221       -4.7004  -25.6745  -54.5471 H         1 UNK         0.0600 
    222 H222       -4.8388  -28.6319  -55.3311 H         1 UNK         0.0600 
    223 H223       -6.2036  -27.6470  -54.8059 H         1 UNK         0.0600 
    224 H224       -5.3750  -27.2703  -56.3069 H         1 UNK         0.0600 
    225 H225       -2.2007  -25.5116  -53.5826 H         1 UNK         0.3000 
    226 H226       -0.4278  -26.0707  -55.9440 H         1 UNK         0.0600 
    227 H227        0.1834  -27.5013  -53.9960 H         1 UNK         0.0600 
    228 H228        1.4370  -26.3211  -54.3520 H         1 UNK         0.0600 
    229 H229        0.3581  -26.0700  -52.9871 H         1 UNK         0.0600 
    230 H230       -1.5044  -23.7263  -53.4782 H         1 UNK         0.3000 
    231 H231        0.4110  -21.6772  -54.3275 H         1 UNK         0.0600 
    232 H232       -0.7858  -20.2825  -52.6766 H         1 UNK         0.0600 
    233 H233       -0.3616  -21.8272  -51.9584 H         1 UNK         0.0600 
    234 H234       -2.0190  -21.5119  -52.4696 H         1 UNK         0.0600 
    235 H235       -2.7379  -22.7606  -55.2568 H         1 UNK         0.3000 
    236 H236       -4.2992  -22.1556  -56.7171 H         1 UNK         0.0600 
    237 H237       -2.3732  -22.3917  -58.2855 H         1 UNK         0.0600 
    238 H238       -3.5347  -21.2099  -58.8668 H         1 UNK         0.0600 
    239 H239       -2.0281  -20.6695  -58.1382 H         1 UNK         0.0600 
    240 H240       -4.5145  -20.7053  -54.4671 H         1 UNK         0.3000 
    241 H241       -4.6512  -17.9219  -54.6820 H         1 UNK         0.0600 
    242 H242       -7.7957  -16.8897  -55.9863 H         1 UNK         0.3800 
    243 H243       -6.3172  -16.3938  -55.2156 H         1 UNK         0.3800 
    244 H244       -6.0818  -18.0122  -52.6444 H         1 UNK         0.0800 
    245 H245       -6.3710  -19.7101  -52.8888 H         1 UNK         0.0800 
    246 H246       -3.9600  -16.9329  -52.2863 H         1 UNK         0.0800 
    247 H247       -2.5149  -17.7656  -52.7974 H         1 UNK         0.0800 
@<TRIPOS>BOND
     1    1    2 1    
     2    1  127 1    
     3    1  128 1    
     4    1  129 1    
     5    2    3 2    
     6    2    4 am   BACKBONE|DICT|INTERRES
     7    4    5 1    
     8    4  130 1    
     9    5    6 1    
    10    5   65 1    
    11    5  131 1    
    12    6    7 1    
    13    6  132 1    
    14    6  133 1    
    15    7    8 1    
    16    8    9 1    
    17    8  134 1    
    18    8  135 1    
    19    9   10 ar   
    20    9   14 ar   
    21   10   11 ar   
    22   10  136 1    
    23   11   12 ar   
    24   11  126 1    
    25   12   13 ar   
    26   12  137 1    
    27   13   14 ar   
    28   13   15 1    
    29   14  138 1    
    30   15   16 1    
    31   15  139 1    
    32   15  140 1    
    33   16   17 1    
    34   17   18 1    
    35   17  141 1    
    36   17  142 1    
    37   18   19 1    
    38   18   67 1    
    39   18  143 1    
    40   19   20 am   BACKBONE|DICT|INTERRES
    41   19  144 1    
    42   20   21 2    
    43   20   22 1    
    44   22   23 1    
    45   22   24 1    
    46   22  145 1    
    47   23  146 1    
    48   23  147 1    
    49   23  148 1    
    50   24   25 am   BACKBONE|DICT|INTERRES
    51   24  149 1    
    52   25   26 2    
    53   25   27 1    
    54   27   28 1    
    55   27   29 1    
    56   27  150 1    
    57   28  151 1    
    58   28  152 1    
    59   28  153 1    
    60   29   30 am   BACKBONE|DICT|INTERRES
    61   29  154 1    
    62   30   31 2    
    63   30   32 1    
    64   32   33 1    
    65   32   34 1    
    66   32  155 1    
    67   33  156 1    
    68   33  157 1    
    69   33  158 1    
    70   34   35 am   BACKBONE|DICT|INTERRES
    71   34  159 1    
    72   35   36 2    
    73   35   37 1    
    74   37   38 1    
    75   37   39 1    
    76   37  160 1    
    77   38  161 1    
    78   38  162 1    
    79   38  163 1    
    80   39   40 am   BACKBONE|DICT|INTERRES
    81   39  164 1    
    82   40   41 2    
    83   40   42 1    
    84   42   43 1    
    85   42   44 1    
    86   42  165 1    
    87   43  166 1    
    88   43  167 1    
    89   43  168 1    
    90   44   45 am   BACKBONE|DICT|INTERRES
    91   44  169 1    
    92   45   46 2    
    93   45   47 1    
    94   47   48 1    
    95   47   49 1    
    96   47  170 1    
    97   48  171 1    
    98   48  172 1    
    99   48  173 1    
   100   49   50 am   BACKBONE|DICT|INTERRES
   101   49  174 1    
   102   50   51 2    
   103   50   52 1    
   104   52   53 1    
   105   52   54 1    
   106   52  175 1    
   107   53  176 1    
   108   53  177 1    
   109   53  178 1    
   110   54   55 am   BACKBONE|DICT|INTERRES
   111   54  179 1    
   112   55   56 2    
   113   55   57 1    
   114   57   58 1    
   115   57   59 1    
   116   57  180 1    
   117   58  181 1    
   118   58  182 1    
   119   58  183 1    
   120   59   60 am   BACKBONE|DICT|INTERRES
   121   59  184 1    
   122   60   61 2    
   123   60   62 1    
   124   62   63 1    
   125   62   64 1    
   126   62  185 1    
   127   63  186 1    
   128   63  187 1    
   129   63  188 1    
   130   64   65 am   BACKBONE|DICT|INTERRES
   131   64  189 1    
   132   65   66 2    
   133   67   68 2    
   134   67   69 am   BACKBONE|DICT|INTERRES
   135   69   70 1    
   136   69  190 1    
   137   70   71 1    
   138   70   72 1    
   139   70  191 1    
   140   71  192 1    
   141   71  193 1    
   142   71  194 1    
   143   72   73 2    
   144   72   74 am   BACKBONE|DICT|INTERRES
   145   74   75 1    
   146   74  195 1    
   147   75   76 1    
   148   75   77 1    
   149   75  196 1    
   150   76  197 1    
   151   76  198 1    
   152   76  199 1    
   153   77   78 2    
   154   77   79 am   BACKBONE|DICT|INTERRES
   155   79   80 1    
   156   79  200 1    
   157   80   81 1    
   158   80   82 1    
   159   80  201 1    
   160   81  202 1    
   161   81  203 1    
   162   81  204 1    
   163   82   83 2    
   164   82   84 am   BACKBONE|DICT|INTERRES
   165   84   85 1    
   166   84  205 1    
   167   85   86 1    
   168   85   87 1    
   169   85  206 1    
   170   86  207 1    
   171   86  208 1    
   172   86  209 1    
   173   87   88 2    
   174   87   89 am   BACKBONE|DICT|INTERRES
   175   89   90 1    
   176   89  210 1    
   177   90   91 1    
   178   90   92 1    
   179   90  211 1    
   180   91  212 1    
   181   91  213 1    
   182   91  214 1    
   183   92   93 2    
   184   92   94 am   BACKBONE|DICT|INTERRES
   185   94   95 1    
   186   94  215 1    
   187   95   96 1    
   188   95   97 1    
   189   95  216 1    
   190   96  217 1    
   191   96  218 1    
   192   96  219 1    
   193   97   98 2    
   194   97   99 am   BACKBONE|DICT|INTERRES
   195   99  100 1    
   196   99  220 1    
   197  100  101 1    
   198  100  102 1    
   199  100  221 1    
   200  101  222 1    
   201  101  223 1    
   202  101  224 1    
   203  102  103 2    
   204  102  104 am   BACKBONE|DICT|INTERRES
   205  104  105 1    
   206  104  225 1    
   207  105  106 1    
   208  105  107 1    
   209  105  226 1    
   210  106  227 1    
   211  106  228 1    
   212  106  229 1    
   213  107  108 2    
   214  107  109 am   BACKBONE|DICT|INTERRES
   215  109  110 1    
   216  109  230 1    
   217  110  111 1    
   218  110  112 1    
   219  110  231 1    
   220  111  232 1    
   221  111  233 1    
   222  111  234 1    
   223  112  113 2    
   224  112  114 am   BACKBONE|DICT|INTERRES
   225  114  115 1    
   226  114  235 1    
   227  115  116 1    
   228  115  117 1    
   229  115  236 1    
   230  116  237 1    
   231  116  238 1    
   232  116  239 1    
   233  117  118 2    
   234  117  119 am   BACKBONE|DICT|INTERRES
   235  119  120 1    
   236  119  240 1    
   237  120  121 1    
   238  120  124 1    
   239  120  241 1    
   240  121  122 am   BACKBONE|DICT|INTERRES
   241  121  123 2    
   242  122  242 1    
   243  122  243 1    
   244  124  125 1    
   245  124  244 1    
   246  124  245 1    
   247  125  126 1    
   248  126  246 1    
   249  126  247 1    
@<TRIPOS>SUBSTRUCTURE
     1 UNK         1 GROUP             0       ****    0 ROOT    
