@<TRIPOS>MOLECULE
3R540
247   249    1
SMALL
USER_CHARGES


@<TRIPOS>ATOM
      1 CA          2.1495  -12.1791  -51.1750 C.3       0 UNK        -0.1800 
      2 C           2.8643  -12.8259  -49.9974 C.2       0 UNK         0.5000 
      3 O           2.2075  -13.3698  -49.1111 O.2       0 UNK        -0.5000 
      4 N           4.2033  -12.7567  -49.9990 N.am      1 UNK        -0.5000 
      5 CA          5.1353  -13.2348  -48.9650 C.3       1 UNK         0.1400 
      6 C6          5.0114  -14.7516  -48.6477 C.3       23 UNK        -0.0398 
      7 S7          5.3721  -15.7939  -50.1043 S.3       23 UNK        -0.2404 
      8 C8          4.7926  -17.4329  -49.5399 C.3       23 UNK        -0.0205 
      9 C9          3.3543  -17.7825  -49.9274 C.ar      23 UNK        -0.0193 
     10 C10         2.3570  -16.8095  -50.0447 C.ar      23 UNK        -0.1150 
     11 C11         1.0486  -17.1601  -50.3776 C.ar      23 UNK        -0.0193 
     12 C12         0.7337  -18.5003  -50.6092 C.ar      23 UNK        -0.1150 
     13 C13         1.7079  -19.4991  -50.4742 C.ar      23 UNK        -0.0193 
     14 C14         3.0127  -19.1230  -50.1358 C.ar      23 UNK        -0.1150 
     15 C15         1.4187  -20.9924  -50.6679 C.3       23 UNK        -0.0205 
     16 S16        -0.3205  -21.4717  -50.9716 S.3       23 UNK        -0.2404 
     17 C17        -1.1014  -21.0634  -49.3779 C.3       23 UNK        -0.0398 
     18 CA         -1.1129  -22.2441  -48.3742 C.3       11 UNK         0.1400 
     19 N          -0.8477  -21.7764  -47.0091 N.am      11 UNK        -0.5000 
     20 C          -0.6815  -22.5519  -45.9296 C.2       10 UNK         0.5000 
     21 O          -0.6956  -23.7802  -45.9621 O.2       10 UNK        -0.5000 
     22 CA         -0.5429  -21.8331  -44.5749 C.3       10 UNK         0.1400 
     23 CB          0.9084  -21.3974  -44.3266 C.3       10 UNK        -0.1800 
     24 N          -1.4430  -20.6830  -44.4600 N.am      10 UNK        -0.5000 
     25 C          -2.7812  -20.7772  -44.4645 C.2       9 UNK         0.5000 
     26 O          -3.3846  -21.8489  -44.4962 O.2       9 UNK        -0.5000 
     27 CA         -3.5842  -19.4649  -44.4924 C.3       9 UNK         0.1400 
     28 CB         -3.7079  -18.8761  -43.0803 C.3       9 UNK        -0.1800 
     29 N          -3.0126  -18.4695  -45.4002 N.am      9 UNK        -0.5000 
     30 C          -2.9136  -18.6195  -46.7296 C.2       8 UNK         0.5000 
     31 O          -3.3399  -19.5984  -47.3443 O.2       8 UNK        -0.5000 
     32 CA         -2.1625  -17.5142  -47.4956 C.3       8 UNK         0.1400 
     33 CB         -3.0646  -16.2940  -47.7241 C.3       8 UNK        -0.1800 
     34 N          -0.9358  -17.0889  -46.8210 N.am      8 UNK        -0.5000 
     35 C           0.1030  -17.8892  -46.5409 C.2       7 UNK         0.5000 
     36 O           0.1621  -19.0750  -46.8583 O.2       7 UNK        -0.5000 
     37 CA          1.2312  -17.2741  -45.6988 C.3       7 UNK         0.1400 
     38 CB          2.1299  -16.3796  -46.5679 C.3       7 UNK        -0.1800 
     39 N           0.6816  -16.5194  -44.5700 N.am      7 UNK        -0.5000 
     40 C           0.0761  -17.0904  -43.5159 C.2       6 UNK         0.5000 
     41 O           0.0067  -18.3079  -43.3520 O.2       6 UNK        -0.5000 
     42 CA         -0.6216  -16.1620  -42.5041 C.3       6 UNK         0.1400 
     43 CB          0.2760  -15.8603  -41.2956 C.3       6 UNK        -0.1800 
     44 N          -1.0755  -14.9144  -43.1173 N.am      6 UNK        -0.5000 
     45 C          -2.1508  -14.8354  -43.9144 C.2       5 UNK         0.5000 
     46 O          -2.8814  -15.7946  -44.1613 O.2       5 UNK        -0.5000 
     47 CA         -2.4348  -13.4795  -44.5881 C.3       5 UNK         0.1400 
     48 CB         -3.3459  -12.6184  -43.7016 C.3       5 UNK        -0.1800 
     49 N          -1.2247  -12.7232  -44.9145 N.am      5 UNK        -0.5000 
     50 C          -0.2595  -13.1372  -45.7470 C.2       4 UNK         0.5000 
     51 O          -0.3020  -14.2147  -46.3414 O.2       4 UNK        -0.5000 
     52 CA          0.9685  -12.2172  -45.9204 C.3       4 UNK         0.1400 
     53 CB          0.7324  -10.7683  -45.4408 C.3       4 UNK        -0.1800 
     54 N           2.1845  -12.7480  -45.2931 N.am      4 UNK        -0.5000 
     55 C           2.3390  -13.1718  -44.0275 C.2       3 UNK         0.5000 
     56 O           1.4112  -13.2607  -43.2229 O.2       3 UNK        -0.5000 
     57 CA          3.7649  -13.5398  -43.5591 C.3       3 UNK         0.1400 
     58 CB          3.9203  -15.0445  -43.2788 C.3       3 UNK        -0.1800 
     59 N           4.8135  -13.1221  -44.4911 N.am      3 UNK        -0.5000 
     60 C           5.3162  -11.8826  -44.5649 C.2       2 UNK         0.5000 
     61 O           4.9834  -10.9620  -43.8178 O.2       2 UNK        -0.5000 
     62 CA          6.3551  -11.6241  -45.6743 C.3       2 UNK         0.1400 
     63 CB          7.7777  -11.8512  -45.1403 C.3       2 UNK        -0.1800 
     64 N           6.1609  -12.4353  -46.8834 N.am      2 UNK        -0.5000 
     65 C           5.0855  -12.3709  -47.6821 C.2       1 UNK         0.5000 
     66 O           4.1108  -11.6598  -47.4295 O.2       1 UNK        -0.5000 
     67 C          -2.4219  -23.0583  -48.4793 C.2       11 UNK         0.5000 
     68 O          -2.4850  -24.0346  -49.2326 O.2       11 UNK        -0.5000 
     69 N          -3.4389  -22.6543  -47.7060 N.am      12 UNK        -0.5000 
     70 CA         -4.6833  -23.3952  -47.5341 C.3       12 UNK         0.1400 
     71 CB         -5.7664  -22.4800  -46.9446 C.3       12 UNK        -0.1800 
     72 C          -4.4793  -24.6555  -46.6757 C.2       12 UNK         0.5000 
     73 O          -4.8194  -25.7504  -47.1221 O.2       12 UNK        -0.5000 
     74 N          -3.9043  -24.4839  -45.4769 N.am      13 UNK        -0.5000 
     75 CA         -3.7075  -25.5350  -44.4730 C.3       13 UNK         0.1400 
     76 CB         -3.1476  -24.9110  -43.1863 C.3       13 UNK        -0.1800 
     77 C          -2.8142  -26.7005  -44.9378 C.2       13 UNK         0.5000 
     78 O          -3.1109  -27.8536  -44.6235 O.2       13 UNK        -0.5000 
     79 N          -1.7553  -26.3876  -45.6956 N.am      14 UNK        -0.5000 
     80 CA         -0.8382  -27.3621  -46.2917 C.3       14 UNK         0.1400 
     81 CB          0.4885  -26.6574  -46.6200 C.3       14 UNK        -0.1800 
     82 C          -1.4040  -28.0418  -47.5549 C.2       14 UNK         0.5000 
     83 O          -0.7737  -28.9690  -48.0644 O.2       14 UNK        -0.5000 
     84 N          -2.5516  -27.5561  -48.0548 N.am      15 UNK        -0.5000 
     85 CA         -3.2264  -27.9617  -49.2917 C.3       15 UNK         0.1400 
     86 CB         -3.7169  -29.4218  -49.2102 C.3       15 UNK        -0.1800 
     87 C          -2.3989  -27.6671  -50.5612 C.2       15 UNK         0.5000 
     88 O          -2.5653  -28.3457  -51.5758 O.2       15 UNK        -0.5000 
     89 N          -1.5321  -26.6466  -50.4875 N.am      16 UNK        -0.5000 
     90 CA         -0.7308  -26.1511  -51.6057 C.3       16 UNK         0.1400 
     91 CB          0.4190  -25.2856  -51.0678 C.3       16 UNK        -0.1800 
     92 C          -1.6046  -25.3706  -52.6014 C.2       16 UNK         0.5000 
     93 O          -1.5243  -25.6137  -53.8061 O.2       16 UNK        -0.5000 
     94 N          -2.4573  -24.4905  -52.0627 N.am      17 UNK        -0.5000 
     95 CA         -3.5265  -23.8100  -52.7916 C.3       17 UNK         0.1400 
     96 CB         -3.4437  -22.3014  -52.5274 C.3       17 UNK        -0.1800 
     97 C          -4.9091  -24.3424  -52.3811 C.2       17 UNK         0.5000 
     98 O          -5.8426  -24.2529  -53.1784 O.2       17 UNK        -0.5000 
     99 N          -5.0254  -24.8683  -51.1494 N.am      18 UNK        -0.5000 
    100 CA        -6.2105  -25.4613  -50.5050 C.3       18 UNK         0.1400 
    101 CB        -6.7282  -26.6818  -51.2884 C.3       18 UNK        -0.1800 
    102 C         -7.3464  -24.4641  -50.1951 C.2       18 UNK         0.5000 
    103 O         -7.8735  -24.4759  -49.0838 O.2       18 UNK        -0.5000 
    104 N         -7.6712  -23.5951  -51.1560 N.am      19 UNK        -0.5000 
    105 CA        -8.6625  -22.5216  -51.0528 C.3       19 UNK         0.1400 
    106 CB        -9.4191  -22.4408  -52.3899 C.3       19 UNK        -0.1800 
    107 C         -8.0248  -21.1618  -50.6915 C.2       19 UNK         0.5000 
    108 O         -8.7123  -20.1417  -50.7586 O.2       19 UNK        -0.5000 
    109 N         -6.7300  -21.1747  -50.3365 N.am      20 UNK        -0.5000 
    110 CA        -5.8254  -20.0343  -50.1387 C.3       20 UNK         0.1400 
    111 CB        -6.3818  -19.0213  -49.1139 C.3       20 UNK        -0.1800 
    112 C         -5.4369  -19.3632  -51.4731 C.2       20 UNK         0.5000 
    113 O         -5.9155  -19.7550  -52.5403 O.2       20 UNK        -0.5000 
    114 N         -4.5336  -18.3840  -51.3936 N.am      21 UNK        -0.5000 
    115 CA        -3.9655  -17.6641  -52.5286 C.3       21 UNK         0.1400 
    116 CB        -2.7860  -18.4706  -53.1069 C.3       21 UNK        -0.1800 
    117 C         -3.5346  -16.2622  -52.0724 C.2       21 UNK         0.5000 
    118 O         -3.6654  -15.9365  -50.8907 O.2       21 UNK        -0.5000 
    119 N         -3.0209  -15.4667  -53.0176 N.am      22 UNK        -0.5000 
    120 CA        -2.4941  -14.1013  -52.8205 C.3       22 UNK         0.1400 
    121 C         -3.5818  -13.0079  -52.5857 C.2       22 UNK         0.5000 
    122 N         -4.8615  -13.2858  -52.8028 N.am      22 UNK        -0.7600 
    123 O         -3.2620  -11.8756  -52.2332 O.2       22 UNK        -0.5000 
    124 C124       -1.3416  -14.0094  -51.7770 C.3       23 UNK        -0.0398 
    125 S125       -0.0023  -15.2226  -52.0491 S.3       23 UNK        -0.2404 
    126 C126       -0.0263  -16.0896  -50.4520 C.3       23 UNK        -0.0205 
    127 H127        1.9154  -12.9292  -51.9293 H         1 UNK         0.0600 
    128 H128        2.7618  -11.4060  -51.6395 H         1 UNK         0.0600 
    129 H129        1.2175  -11.7190  -50.8466 H         1 UNK         0.0600 
    130 H130        4.6500  -12.2788  -50.7684 H         1 UNK         0.3000 
    131 H131        6.1279  -13.0719  -49.3883 H         1 UNK         0.0600 
    132 H132        5.7179  -15.0412  -47.8683 H         1 UNK         0.0800 
    133 H133        4.0233  -14.9901  -48.2563 H         1 UNK         0.0800 
    134 H134        5.4678  -18.1760  -49.9667 H         1 UNK         0.0800 
    135 H135        4.9013  -17.5119  -48.4577 H         1 UNK         0.0800 
    136 H136        2.5865  -15.7711  -49.8713 H         1 UNK         0.1150 
    137 H137       -0.2805  -18.7543  -50.8722 H         1 UNK         0.1150 
    138 H138        3.7712  -19.8862  -50.0290 H         1 UNK         0.1150 
    139 H139        2.0129  -21.3472  -51.5109 H         1 UNK         0.0800 
    140 H140        1.7737  -21.5375  -49.7919 H         1 UNK         0.0800 
    141 H141       -2.1049  -20.6784  -49.5694 H         1 UNK         0.0800 
    142 H142       -0.5596  -20.2196  -48.9587 H         1 UNK         0.0800 
    143 H143       -0.2938  -22.9237  -48.6159 H         1 UNK         0.0600 
    144 H144       -0.7528  -20.7716  -46.8883 H         1 UNK         0.3000 
    145 H145       -0.8139  -22.5450  -43.7936 H         1 UNK         0.0600 
    146 H146        1.0219  -20.9540  -43.3373 H         1 UNK         0.0600 
    147 H147        1.2456  -20.6662  -45.0605 H         1 UNK         0.0600 
    148 H148        1.5853  -22.2510  -44.3799 H         1 UNK         0.0600 
    149 H149       -1.0082  -19.7697  -44.3850 H         1 UNK         0.3000 
    150 H150       -4.5887  -19.6991  -44.8509 H         1 UNK         0.0600 
    151 H151       -4.1898  -19.5840  -42.4049 H         1 UNK         0.0600 
    152 H152       -4.3090  -17.9667  -43.0814 H         1 UNK         0.0600 
    153 H153       -2.7324  -18.6352  -42.6589 H         1 UNK         0.0600 
    154 H154       -2.6993  -17.5991  -44.9823 H         1 UNK         0.3000 
    155 H155       -1.8814  -17.9206  -48.4689 H         1 UNK         0.0600 
    156 H156       -3.9736  -16.5735  -48.2565 H         1 UNK         0.0600 
    157 H157       -2.5579  -15.5355  -48.3214 H         1 UNK         0.0600 
    158 H158       -3.3678  -15.8312  -46.7858 H         1 UNK         0.0600 
    159 H159       -0.8732  -16.1121  -46.5502 H         1 UNK         0.3000 
    160 H160        1.8454  -18.0824  -45.2963 H         1 UNK         0.0600 
    161 H161        1.5588  -15.7406  -47.2416 H         1 UNK         0.0600 
    162 H162        2.7799  -16.9959  -47.1872 H         1 UNK         0.0600 
    163 H163        2.7679  -15.7319  -45.9740 H         1 UNK         0.0600 
    164 H164        0.6267  -15.5161  -44.6776 H         1 UNK         0.3000 
    165 H165       -1.4958  -16.6954  -42.1264 H         1 UNK         0.0600 
    166 H166       -0.2741  -15.3160  -40.5279 H         1 UNK         0.0600 
    167 H167        0.6420  -16.7817  -40.8406 H         1 UNK         0.0600 
    168 H168        1.1425  -15.2614  -41.5668 H         1 UNK         0.0600 
    169 H169       -0.4721  -14.1054  -43.0094 H         1 UNK         0.3000 
    170 H170       -2.9603  -13.6816  -45.5235 H         1 UNK         0.0600 
    171 H171       -2.8609  -12.3566  -42.7603 H         1 UNK         0.0600 
    172 H172       -3.6264  -11.6928  -44.2047 H         1 UNK         0.0600 
    173 H173       -4.2686  -13.1478  -43.4597 H         1 UNK         0.0600 
    174 H174       -1.1012  -11.8404  -44.4408 H         1 UNK         0.3000 
    175 H175        1.1655  -12.1772  -46.9917 H         1 UNK         0.0600 
    176 H176        0.5985  -10.7072  -44.3602 H         1 UNK         0.0600 
    177 H177        1.5813  -10.1354  -45.7005 H         1 UNK         0.0600 
    178 H178       -0.1474  -10.3319  -45.9157 H         1 UNK         0.0600 
    179 H179        3.0079  -12.6904  -45.8792 H         1 UNK         0.3000 
    180 H180        3.9117  -13.0200  -42.6099 H         1 UNK         0.0600 
    181 H181        4.8119  -15.2319  -42.6804 H         1 UNK         0.0600 
    182 H182        4.0176  -15.6295  -44.1906 H         1 UNK         0.0600 
    183 H183        3.0742  -15.4431  -42.7218 H         1 UNK         0.0600 
    184 H184        5.1566  -13.8179  -45.1362 H         1 UNK         0.3000 
    185 H185        6.2650  -10.5747  -45.9631 H         1 UNK         0.0600 
    186 H186        8.5272  -11.5772  -45.8831 H         1 UNK         0.0600 
    187 H187        7.9643  -11.2432  -44.2540 H         1 UNK         0.0600 
    188 H188        7.9426  -12.8933  -44.8637 H         1 UNK         0.0600 
    189 H189        6.9360  -13.0267  -47.1480 H         1 UNK         0.3000 
    190 H190       -3.3201  -21.8175  -47.1474 H         1 UNK         0.3000 
    191 H191       -5.0230  -23.7103  -48.5196 H         1 UNK         0.0600 
    192 H192       -5.9146  -21.5990  -47.5656 H         1 UNK         0.0600 
    193 H193       -5.5186  -22.1377  -45.9409 H         1 UNK         0.0600 
    194 H194       -6.7230  -23.0005  -46.8853 H         1 UNK         0.0600 
    195 H195       -3.6542  -23.5399  -45.1894 H         1 UNK         0.3000 
    196 H196       -4.6912  -25.9506  -44.2454 H         1 UNK         0.0600 
    197 H197       -3.8117  -24.1374  -42.8004 H         1 UNK         0.0600 
    198 H198       -2.1695  -24.4603  -43.3542 H         1 UNK         0.0600 
    199 H199       -3.0336  -25.6623  -42.4039 H         1 UNK         0.0600 
    200 H200       -1.5415  -25.4061  -45.8653 H         1 UNK         0.3000 
    201 H201       -0.6350  -28.1464  -45.5598 H         1 UNK         0.0600 
    202 H202        0.9153  -26.1862  -45.7344 H         1 UNK         0.0600 
    203 H203        0.3558  -25.8857  -47.3796 H         1 UNK         0.0600 
    204 H204        1.2271  -27.3653  -46.9980 H         1 UNK         0.0600 
    205 H205       -3.0131  -26.8137  -47.5419 H         1 UNK         0.3000 
    206 H206       -4.1109  -27.3312  -49.3642 H         1 UNK         0.0600 
    207 H207       -2.8888  -30.1308  -49.2175 H         1 UNK         0.0600 
    208 H208       -4.2974  -29.5916  -48.3034 H         1 UNK         0.0600 
    209 H209       -4.3612  -29.6648  -50.0560 H         1 UNK         0.0600 
    210 H210       -1.4951  -26.1114  -49.6309 H         1 UNK         0.3000 
    211 H211       -0.2969  -27.0046  -52.1311 H         1 UNK         0.0600 
    212 H212        0.0510  -24.4407  -50.4870 H         1 UNK         0.0600 
    213 H213        1.0222  -24.8852  -51.8835 H         1 UNK         0.0600 
    214 H214        1.0814  -25.8670  -50.4264 H         1 UNK         0.0600 
    215 H215       -2.4143  -24.3360  -51.0591 H         1 UNK         0.3000 
    216 H216       -3.4237  -23.9703  -53.8667 H         1 UNK         0.0600 
    217 H217       -4.2482  -21.7759  -53.0416 H         1 UNK         0.0600 
    218 H218       -2.5064  -21.8920  -52.9022 H         1 UNK         0.0600 
    219 H219       -3.5158  -22.0674  -51.4648 H         1 UNK         0.0600 
    220 H220       -4.1980  -24.8471  -50.5692 H         1 UNK         0.3000 
    221 H221       -5.8667  -25.8308  -49.5399 H         1 UNK         0.0600 
    222 H222       -7.1257  -26.4045  -52.2649 H         1 UNK         0.0600 
    223 H223       -5.9360  -27.4144  -51.4442 H         1 UNK         0.0600 
    224 H224       -7.5296  -27.1810  -50.7424 H         1 UNK         0.0600 
    225 H225       -7.1721  -23.6728  -52.0400 H         1 UNK         0.3000 
    226 H226       -9.3843  -22.7581  -50.2685 H         1 UNK         0.0600 
    227 H227       -9.8810  -23.3962  -52.6395 H         1 UNK         0.0600 
    228 H228      -10.2171  -21.6984  -52.3488 H         1 UNK         0.0600 
    229 H229       -8.7541  -22.1652  -53.2095 H         1 UNK         0.0600 
    230 H230       -6.2828  -22.0778  -50.3493 H         1 UNK         0.3000 
    231 H231       -4.9093  -20.4565  -49.7219 H         1 UNK         0.0600 
    232 H232       -5.6005  -18.3430  -48.7719 H         1 UNK         0.0600 
    233 H233       -6.7786  -19.5201  -48.2305 H         1 UNK         0.0600 
    234 H234       -7.1781  -18.4084  -49.5368 H         1 UNK         0.0600 
    235 H235       -4.2377  -18.0308  -50.4930 H         1 UNK         0.3000 
    236 H236       -4.7293  -17.5343  -53.2982 H         1 UNK         0.0600 
    237 H237       -2.0094  -18.6331  -52.3606 H         1 UNK         0.0600 
    238 H238       -3.1137  -19.4468  -53.4631 H         1 UNK         0.0600 
    239 H239       -2.3261  -17.9621  -53.9545 H         1 UNK         0.0600 
    240 H240       -2.9587  -15.8159  -53.9630 H         1 UNK         0.3000 
    241 H241       -2.0577  -13.8359  -53.7839 H         1 UNK         0.0600 
    242 H242       -5.1433  -14.2052  -53.1019 H         1 UNK         0.3800 
    243 H243       -5.5562  -12.5695  -52.6595 H         1 UNK         0.3800 
    244 H244       -1.7380  -14.1158  -50.7662 H         1 UNK         0.0800 
    245 H245       -0.8857  -13.0188  -51.8097 H         1 UNK         0.0800 
    246 H246        0.1210  -15.3700  -49.6441 H         1 UNK         0.0800 
    247 H247       -1.0108  -16.5311  -50.2960 H         1 UNK         0.0800 
@<TRIPOS>BOND
     1    1    2 1    
     2    1  127 1    
     3    1  128 1    
     4    1  129 1    
     5    2    3 2    
     6    2    4 am   BACKBONE|DICT|INTERRES
     7    4    5 1    
     8    4  130 1    
     9    5    6 1    
    10    5   65 1    
    11    5  131 1    
    12    6    7 1    
    13    6  132 1    
    14    6  133 1    
    15    7    8 1    
    16    8    9 1    
    17    8  134 1    
    18    8  135 1    
    19    9   10 ar   
    20    9   14 ar   
    21   10   11 ar   
    22   10  136 1    
    23   11   12 ar   
    24   11  126 1    
    25   12   13 ar   
    26   12  137 1    
    27   13   14 ar   
    28   13   15 1    
    29   14  138 1    
    30   15   16 1    
    31   15  139 1    
    32   15  140 1    
    33   16   17 1    
    34   17   18 1    
    35   17  141 1    
    36   17  142 1    
    37   18   19 1    
    38   18   67 1    
    39   18  143 1    
    40   19   20 am   BACKBONE|DICT|INTERRES
    41   19  144 1    
    42   20   21 2    
    43   20   22 1    
    44   22   23 1    
    45   22   24 1    
    46   22  145 1    
    47   23  146 1    
    48   23  147 1    
    49   23  148 1    
    50   24   25 am   BACKBONE|DICT|INTERRES
    51   24  149 1    
    52   25   26 2    
    53   25   27 1    
    54   27   28 1    
    55   27   29 1    
    56   27  150 1    
    57   28  151 1    
    58   28  152 1    
    59   28  153 1    
    60   29   30 am   BACKBONE|DICT|INTERRES
    61   29  154 1    
    62   30   31 2    
    63   30   32 1    
    64   32   33 1    
    65   32   34 1    
    66   32  155 1    
    67   33  156 1    
    68   33  157 1    
    69   33  158 1    
    70   34   35 am   BACKBONE|DICT|INTERRES
    71   34  159 1    
    72   35   36 2    
    73   35   37 1    
    74   37   38 1    
    75   37   39 1    
    76   37  160 1    
    77   38  161 1    
    78   38  162 1    
    79   38  163 1    
    80   39   40 am   BACKBONE|DICT|INTERRES
    81   39  164 1    
    82   40   41 2    
    83   40   42 1    
    84   42   43 1    
    85   42   44 1    
    86   42  165 1    
    87   43  166 1    
    88   43  167 1    
    89   43  168 1    
    90   44   45 am   BACKBONE|DICT|INTERRES
    91   44  169 1    
    92   45   46 2    
    93   45   47 1    
    94   47   48 1    
    95   47   49 1    
    96   47  170 1    
    97   48  171 1    
    98   48  172 1    
    99   48  173 1    
   100   49   50 am   BACKBONE|DICT|INTERRES
   101   49  174 1    
   102   50   51 2    
   103   50   52 1    
   104   52   53 1    
   105   52   54 1    
   106   52  175 1    
   107   53  176 1    
   108   53  177 1    
   109   53  178 1    
   110   54   55 am   BACKBONE|DICT|INTERRES
   111   54  179 1    
   112   55   56 2    
   113   55   57 1    
   114   57   58 1    
   115   57   59 1    
   116   57  180 1    
   117   58  181 1    
   118   58  182 1    
   119   58  183 1    
   120   59   60 am   BACKBONE|DICT|INTERRES
   121   59  184 1    
   122   60   61 2    
   123   60   62 1    
   124   62   63 1    
   125   62   64 1    
   126   62  185 1    
   127   63  186 1    
   128   63  187 1    
   129   63  188 1    
   130   64   65 am   BACKBONE|DICT|INTERRES
   131   64  189 1    
   132   65   66 2    
   133   67   68 2    
   134   67   69 am   BACKBONE|DICT|INTERRES
   135   69   70 1    
   136   69  190 1    
   137   70   71 1    
   138   70   72 1    
   139   70  191 1    
   140   71  192 1    
   141   71  193 1    
   142   71  194 1    
   143   72   73 2    
   144   72   74 am   BACKBONE|DICT|INTERRES
   145   74   75 1    
   146   74  195 1    
   147   75   76 1    
   148   75   77 1    
   149   75  196 1    
   150   76  197 1    
   151   76  198 1    
   152   76  199 1    
   153   77   78 2    
   154   77   79 am   BACKBONE|DICT|INTERRES
   155   79   80 1    
   156   79  200 1    
   157   80   81 1    
   158   80   82 1    
   159   80  201 1    
   160   81  202 1    
   161   81  203 1    
   162   81  204 1    
   163   82   83 2    
   164   82   84 am   BACKBONE|DICT|INTERRES
   165   84   85 1    
   166   84  205 1    
   167   85   86 1    
   168   85   87 1    
   169   85  206 1    
   170   86  207 1    
   171   86  208 1    
   172   86  209 1    
   173   87   88 2    
   174   87   89 am   BACKBONE|DICT|INTERRES
   175   89   90 1    
   176   89  210 1    
   177   90   91 1    
   178   90   92 1    
   179   90  211 1    
   180   91  212 1    
   181   91  213 1    
   182   91  214 1    
   183   92   93 2    
   184   92   94 am   BACKBONE|DICT|INTERRES
   185   94   95 1    
   186   94  215 1    
   187   95   96 1    
   188   95   97 1    
   189   95  216 1    
   190   96  217 1    
   191   96  218 1    
   192   96  219 1    
   193   97   98 2    
   194   97   99 am   BACKBONE|DICT|INTERRES
   195   99  100 1    
   196   99  220 1    
   197  100  101 1    
   198  100  102 1    
   199  100  221 1    
   200  101  222 1    
   201  101  223 1    
   202  101  224 1    
   203  102  103 2    
   204  102  104 am   BACKBONE|DICT|INTERRES
   205  104  105 1    
   206  104  225 1    
   207  105  106 1    
   208  105  107 1    
   209  105  226 1    
   210  106  227 1    
   211  106  228 1    
   212  106  229 1    
   213  107  108 2    
   214  107  109 am   BACKBONE|DICT|INTERRES
   215  109  110 1    
   216  109  230 1    
   217  110  111 1    
   218  110  112 1    
   219  110  231 1    
   220  111  232 1    
   221  111  233 1    
   222  111  234 1    
   223  112  113 2    
   224  112  114 am   BACKBONE|DICT|INTERRES
   225  114  115 1    
   226  114  235 1    
   227  115  116 1    
   228  115  117 1    
   229  115  236 1    
   230  116  237 1    
   231  116  238 1    
   232  116  239 1    
   233  117  118 2    
   234  117  119 am   BACKBONE|DICT|INTERRES
   235  119  120 1    
   236  119  240 1    
   237  120  121 1    
   238  120  124 1    
   239  120  241 1    
   240  121  122 am   BACKBONE|DICT|INTERRES
   241  121  123 2    
   242  122  242 1    
   243  122  243 1    
   244  124  125 1    
   245  124  244 1    
   246  124  245 1    
   247  125  126 1    
   248  126  246 1    
   249  126  247 1    
@<TRIPOS>SUBSTRUCTURE
     1 UNK         1 GROUP             0       ****    0 ROOT    
