@<TRIPOS>MOLECULE
3R540
247   249    1
SMALL
USER_CHARGES


@<TRIPOS>ATOM
      1 CA          6.4889  -15.5094  -44.5037 C.3       0 UNK        -0.1800 
      2 C           6.1274  -14.0590  -44.7901 C.2       0 UNK         0.5000 
      3 O           6.5164  -13.1683  -44.0356 O.2       0 UNK        -0.5000 
      4 N           5.3744  -13.8229  -45.8694 N.am      1 UNK        -0.5000 
      5 CA          4.9765  -12.5001  -46.3553 C.3       1 UNK         0.1400 
      6 C6          3.7293  -12.5929  -47.2762 C.3       23 UNK        -0.0398 
      7 S7          3.8395  -13.8279  -48.6190 S.3       23 UNK        -0.2404 
      8 C8          2.6525  -15.0670  -48.0244 C.3       23 UNK        -0.0205 
      9 C9          2.4567  -16.1776  -49.0398 C.ar      23 UNK        -0.0193 
     10 C10         1.5882  -15.9910  -50.1174 C.ar      23 UNK        -0.1150 
     11 C11         1.3656  -17.0177  -51.0392 C.ar      23 UNK        -0.0193 
     12 C12         2.0316  -18.2370  -50.8806 C.ar      23 UNK        -0.1150 
     13 C13         2.9215  -18.4276  -49.8185 C.ar      23 UNK        -0.0193 
     14 C14         3.1274  -17.3952  -48.8988 C.ar      23 UNK        -0.1150 
     15 C15         3.6824  -19.7377  -49.6768 C.3       23 UNK        -0.0205 
     16 S16         3.0687  -20.7455  -48.2929 S.3       23 UNK        -0.2404 
     17 C17         1.4125  -21.2018  -48.8993 C.3       23 UNK        -0.0398 
     18 CA          0.7831  -22.3278  -48.0472 C.3       11 UNK         0.1400 
     19 N           0.4509  -21.8957  -46.6853 N.am      11 UNK        -0.5000 
     20 C           0.0318  -22.7154  -45.7101 C.2       10 UNK         0.5000 
     21 O          -0.0523  -23.9376  -45.8333 O.2       10 UNK        -0.5000 
     22 CA         -0.4311  -22.0588  -44.3974 C.3       10 UNK         0.1400 
     23 CB          0.7676  -21.6918  -43.5103 C.3       10 UNK        -0.1800 
     24 N          -1.2691  -20.8803  -44.6284 N.am      10 UNK        -0.5000 
     25 C          -2.4718  -20.9166  -45.2206 C.2       9 UNK         0.5000 
     26 O          -3.0213  -21.9587  -45.5754 O.2       9 UNK        -0.5000 
     27 CA         -3.1656  -19.5706  -45.5014 C.3       9 UNK         0.1400 
     28 CB         -3.9204  -19.0761  -44.2592 C.3       9 UNK        -0.1800 
     29 N          -2.2422  -18.5337  -45.9605 N.am      9 UNK        -0.5000 
     30 C          -1.5372  -18.5880  -47.0999 C.2       8 UNK         0.5000 
     31 O          -1.6123  -19.5119  -47.9093 O.2       8 UNK        -0.5000 
     32 CA         -0.5288  -17.4491  -47.3378 C.3       8 UNK         0.1400 
     33 CB         -1.2427  -16.1826  -47.8336 C.3       8 UNK        -0.1800 
     34 N           0.2600  -17.1454  -46.1394 N.am      8 UNK        -0.5000 
     35 C           1.0726  -18.0258  -45.5347 C.2       7 UNK         0.5000 
     36 O           1.2861  -19.1601  -45.9578 O.2       7 UNK        -0.5000 
     37 CA          1.6889  -17.6006  -44.1911 C.3       7 UNK         0.1400 
     38 CB          2.9537  -16.7518  -44.3878 C.3       7 UNK        -0.1800 
     39 N           0.7246  -16.8830  -43.3577 N.am      7 UNK        -0.5000 
     40 C          -0.3228  -17.4684  -42.7574 C.2       6 UNK         0.5000 
     41 O          -0.5480  -18.6765  -42.8079 O.2       6 UNK        -0.5000 
     42 CA         -1.3062  -16.5490  -42.0093 C.3       6 UNK         0.1400 
     43 CB         -0.8391  -16.3227  -40.5640 C.3       6 UNK        -0.1800 
     44 N          -1.4842  -15.2550  -42.6678 N.am      6 UNK        -0.5000 
     45 C          -2.0228  -15.0833  -43.8839 C.2       5 UNK         0.5000 
     46 O          -2.4923  -16.0016  -44.5544 O.2       5 UNK        -0.5000 
     47 CA         -1.9807  -13.6566  -44.4668 C.3       5 UNK         0.1400 
     48 CB         -3.2863  -12.9093  -44.1599 C.3       5 UNK        -0.1800 
     49 N          -0.8454  -12.8741  -43.9685 N.am      5 UNK        -0.5000 
     50 C           0.4390  -13.1606  -44.2139 C.2       4 UNK         0.5000 
     51 O           0.8018  -14.0711  -44.9621 O.2       4 UNK        -0.5000 
     52 CA          1.4843  -12.3155  -43.4619 C.3       4 UNK         0.1400 
     53 CB          2.6893  -13.1685  -43.0290 C.3       4 UNK        -0.1800 
     54 N           1.9675  -11.1927  -44.2600 N.am      4 UNK        -0.5000 
     55 C           1.2629  -10.1026  -44.5947 C.2       3 UNK         0.5000 
     56 O           0.0888   -9.9276  -44.2661 O.2       3 UNK        -0.5000 
     57 CA          2.0054   -9.0175  -45.4029 C.3       3 UNK         0.1400 
     58 CB          1.6123   -7.5963  -44.9606 C.3       3 UNK        -0.1800 
     59 N           3.4607   -9.1668  -45.2871 N.am      3 UNK        -0.5000 
     60 C           4.3177   -9.2384  -46.3119 C.2       2 UNK         0.5000 
     61 O           3.9813   -9.1415  -47.4924 O.2       2 UNK        -0.5000 
     62 CA          5.8052   -9.4701  -45.9761 C.3       2 UNK         0.1400 
     63 CB          6.1130   -9.7141  -44.4805 C.3       2 UNK        -0.1800 
     64 N           6.4439  -10.4856  -46.8261 N.am      2 UNK        -0.5000 
     65 C           6.1742  -11.7867  -47.0373 C.2       1 UNK         0.5000 
     66 O           6.8889  -12.4455  -47.7942 O.2       1 UNK        -0.5000 
     67 C          -0.4376  -22.9376  -48.7625 C.2       11 UNK         0.5000 
     68 O          -0.3030  -23.9908  -49.3838 O.2       11 UNK        -0.5000 
     69 N          -1.6099  -22.3033  -48.6223 N.am      12 UNK        -0.5000 
     70 CA         -2.8810  -22.7828  -49.1627 C.3       12 UNK         0.1400 
     71 CB         -3.9669  -21.7228  -48.9418 C.3       12 UNK        -0.1800 
     72 C          -3.3093  -24.1351  -48.5731 C.2       12 UNK         0.5000 
     73 O          -3.7299  -25.0124  -49.3261 O.2       12 UNK        -0.5000 
     74 N          -3.1615  -24.2947  -47.2519 N.am      13 UNK        -0.5000 
     75 CA         -3.4220  -25.5414  -46.5345 C.3       13 UNK         0.1400 
     76 CB         -3.3492  -25.2905  -45.0209 C.3       13 UNK        -0.1800 
     77 C          -2.4666  -26.6735  -46.9531 C.2       13 UNK         0.5000 
     78 O          -2.9228  -27.7948  -47.1775 O.2       13 UNK        -0.5000 
     79 N          -1.1707  -26.3548  -47.0848 N.am      14 UNK        -0.5000 
     80 CA         -0.1258  -27.2815  -47.5250 C.3       14 UNK         0.1400 
     81 CB          1.2525  -26.6353  -47.3177 C.3       14 UNK        -0.1800 
     82 C          -0.2996  -27.7368  -48.9862 C.2       14 UNK         0.5000 
     83 O          -0.1140  -28.9180  -49.2814 O.2       14 UNK        -0.5000 
     84 N          -0.6695  -26.7991  -49.8681 N.am      15 UNK        -0.5000 
     85 CA         -0.9300  -27.0434  -51.2881 C.3       15 UNK         0.1400 
     86 CB         -0.8737  -25.7018  -52.0366 C.3       15 UNK        -0.1800 
     87 C          -2.2783  -27.7382  -51.5610 C.2       15 UNK         0.5000 
     88 O          -2.4711  -28.2460  -52.6664 O.2       15 UNK        -0.5000 
     89 N          -3.1882  -27.7162  -50.5744 N.am      16 UNK        -0.5000 
     90 CA         -4.6013  -28.1035  -50.6588 C.3       16 UNK         0.1400 
     91 CB         -4.7569  -29.6153  -50.9238 C.3       16 UNK        -0.1800 
     92 C          -5.3649  -27.2159  -51.6659 C.2       16 UNK         0.5000 
     93 O          -6.1308  -27.7122  -52.4940 O.2       16 UNK        -0.5000 
     94 N          -5.1092  -25.9066  -51.5740 N.am      17 UNK        -0.5000 
     95 CA         -5.6008  -24.8548  -52.4577 C.3       17 UNK         0.1400 
     96 CB         -4.4342  -24.3504  -53.3245 C.3       17 UNK        -0.1800 
     97 C          -6.2494  -23.7365  -51.6239 C.2       17 UNK         0.5000 
     98 O          -6.0494  -22.5508  -51.8995 O.2       17 UNK        -0.5000 
     99 N          -7.0275  -24.1352  -50.6079 N.am      18 UNK        -0.5000 
    100 CA        -7.7486  -23.2519  -49.6861 C.3       18 UNK         0.1400 
    101 CB        -8.4005  -24.1022  -48.5863 C.3       18 UNK        -0.1800 
    102 C         -8.7951  -22.3523  -50.3733 C.2       18 UNK         0.5000 
    103 O         -9.0587  -21.2539  -49.8854 O.2       18 UNK        -0.5000 
    104 N         -9.3412  -22.8147  -51.5075 N.am      19 UNK        -0.5000 
    105 CA       -10.2584  -22.0585  -52.3625 C.3       19 UNK         0.1400 
    106 CB       -10.9088  -23.0158  -53.3727 C.3       19 UNK        -0.1800 
    107 C         -9.5722  -20.8866  -53.0926 C.2       19 UNK         0.5000 
    108 O        -10.2113  -19.8579  -53.3163 O.2       19 UNK        -0.5000 
    109 N         -8.2868  -21.0541  -53.4377 N.am      20 UNK        -0.5000 
    110 CA        -7.4450  -20.0038  -54.0159 C.3       20 UNK         0.1400 
    111 CB        -6.3073  -20.6501  -54.8221 C.3       20 UNK        -0.1800 
    112 C         -6.8747  -19.0686  -52.9334 C.2       20 UNK         0.5000 
    113 O         -6.6004  -17.9041  -53.2230 O.2       20 UNK        -0.5000 
    114 N         -6.7078  -19.6044  -51.7142 N.am      21 UNK        -0.5000 
    115 CA        -6.2229  -18.9442  -50.4966 C.3       21 UNK         0.1400 
    116 CB        -7.1676  -17.8020  -50.0691 C.3       21 UNK        -0.1800 
    117 C         -4.7441  -18.5084  -50.5726 C.2       21 UNK         0.5000 
    118 O         -4.3275  -17.6214  -49.8270 O.2       21 UNK        -0.5000 
    119 N         -3.9745  -19.1664  -51.4475 N.am      22 UNK        -0.5000 
    120 CA        -2.5314  -18.9563  -51.6305 C.3       22 UNK         0.1400 
    121 C         -1.7712  -20.2288  -52.1043 C.2       22 UNK         0.5000 
    122 N         -2.4287  -21.3519  -52.3735 N.am      22 UNK        -0.7600 
    123 O         -0.5509  -20.2053  -52.2277 O.2       22 UNK        -0.5000 
    124 C124       -2.2375  -17.7212  -52.5344 C.3       23 UNK        -0.0398 
    125 S125       -1.2708  -16.4360  -51.6772 S.3       23 UNK        -0.2404 
    126 C126        0.4317  -16.7926  -52.2198 C.3       23 UNK        -0.0205 
    127 H127        6.0964  -16.1833  -45.2656 H         1 UNK         0.0600 
    128 H128        6.0824  -15.8131  -43.5390 H         1 UNK         0.0600 
    129 H129        7.5720  -15.6269  -44.4715 H         1 UNK         0.0600 
    130 H130        5.1398  -14.5859  -46.4876 H         1 UNK         0.3000 
    131 H131        4.6755  -11.9303  -45.4811 H         1 UNK         0.0600 
    132 H132        3.5076  -11.6333  -47.7399 H         1 UNK         0.0800 
    133 H133        2.8553  -12.8177  -46.6633 H         1 UNK         0.0800 
    134 H134        3.0044  -15.4792  -47.0801 H         1 UNK         0.0800 
    135 H135        1.6951  -14.5881  -47.8144 H         1 UNK         0.0800 
    136 H136        1.0762  -15.0462  -50.2347 H         1 UNK         0.1150 
    137 H137        1.8674  -19.0340  -51.5925 H         1 UNK         0.1150 
    138 H138        3.8063  -17.5450  -48.0710 H         1 UNK         0.1150 
    139 H139        3.6345  -20.3183  -50.5994 H         1 UNK         0.0800 
    140 H140        4.7382  -19.5198  -49.5101 H         1 UNK         0.0800 
    141 H141        1.5113  -21.5157  -49.9405 H         1 UNK         0.0800 
    142 H142        0.7775  -20.3144  -48.9038 H         1 UNK         0.0800 
    143 H143        1.5199  -23.1290  -47.9571 H         1 UNK         0.0600 
    144 H144        0.5472  -20.9030  -46.4890 H         1 UNK         0.3000 
    145 H145       -1.0342  -22.7916  -43.8574 H         1 UNK         0.0600 
    146 H146        0.4400  -21.2894  -42.5517 H         1 UNK         0.0600 
    147 H147        1.3801  -22.5699  -43.3021 H         1 UNK         0.0600 
    148 H148        1.4103  -20.9500  -43.9832 H         1 UNK         0.0600 
    149 H149       -0.9052  -19.9905  -44.3048 H         1 UNK         0.3000 
    150 H150       -3.8949  -19.7348  -46.2972 H         1 UNK         0.0600 
    151 H151       -4.6452  -19.8181  -43.9221 H         1 UNK         0.0600 
    152 H152       -4.4683  -18.1575  -44.4704 H         1 UNK         0.0600 
    153 H153       -3.2429  -18.8778  -43.4288 H         1 UNK         0.0600 
    154 H154       -2.1574  -17.7076  -45.3747 H         1 UNK         0.3000 
    155 H155        0.1603  -17.7796  -48.1174 H         1 UNK         0.0600 
    156 H156       -1.9372  -15.7879  -47.0937 H         1 UNK         0.0600 
    157 H157       -1.8201  -16.3949  -48.7338 H         1 UNK         0.0600 
    158 H158       -0.5336  -15.3943  -48.0810 H         1 UNK         0.0600 
    159 H159        0.1388  -16.2308  -45.7254 H         1 UNK         0.3000 
    160 H160        1.9839  -18.5106  -43.6641 H         1 UNK         0.0600 
    161 H161        3.6691  -17.2616  -45.0344 H         1 UNK         0.0600 
    162 H162        3.4514  -16.5638  -43.4365 H         1 UNK         0.0600 
    163 H163        2.7303  -15.7877  -44.8395 H         1 UNK         0.0600 
    164 H164        0.8146  -15.8786  -43.3194 H         1 UNK         0.3000 
    165 H165       -2.2759  -17.0501  -41.9818 H         1 UNK         0.0600 
    166 H166       -1.5655  -15.7353  -40.0020 H         1 UNK         0.0600 
    167 H167       -0.7165  -17.2721  -40.0409 H         1 UNK         0.0600 
    168 H168        0.1179  -15.8007  -40.5256 H         1 UNK         0.0600 
    169 H169       -1.1378  -14.4434  -42.1786 H         1 UNK         0.3000 
    170 H170       -1.8814  -13.7447  -45.5507 H         1 UNK         0.0600 
    171 H171       -4.1485  -13.4571  -44.5428 H         1 UNK         0.0600 
    172 H172       -3.4319  -12.7751  -43.0873 H         1 UNK         0.0600 
    173 H173       -3.2952  -11.9239  -44.6264 H         1 UNK         0.0600 
    174 H174       -1.0631  -12.0690  -43.3973 H         1 UNK         0.3000 
    175 H175        1.0196  -11.9179  -42.5570 H         1 UNK         0.0600 
    176 H176        3.2313  -13.5669  -43.8863 H         1 UNK         0.0600 
    177 H177        3.3924  -12.5867  -42.4326 H         1 UNK         0.0600 
    178 H178        2.3720  -14.0158  -42.4200 H         1 UNK         0.0600 
    179 H179        2.9186  -11.2559  -44.5813 H         1 UNK         0.3000 
    180 H180        1.6910   -9.1496  -46.4401 H         1 UNK         0.0600 
    181 H181        1.8546   -7.4212  -43.9119 H         1 UNK         0.0600 
    182 H182        0.5426   -7.4243  -45.0860 H         1 UNK         0.0600 
    183 H183        2.1305   -6.8432  -45.5545 H         1 UNK         0.0600 
    184 H184        3.8249   -9.2145  -44.3449 H         1 UNK         0.3000 
    185 H185        6.2976   -8.5333  -46.2414 H         1 UNK         0.0600 
    186 H186        5.8365   -8.8472  -43.8791 H         1 UNK         0.0600 
    187 H187        5.5976  -10.5769  -44.0631 H         1 UNK         0.0600 
    188 H188        7.1809   -9.8710  -44.3270 H         1 UNK         0.0600 
    189 H189        7.2203  -10.1151  -47.3549 H         1 UNK         0.3000 
    190 H190       -1.6280  -21.4093  -48.1381 H         1 UNK         0.3000 
    191 H191       -2.7465  -22.9219  -50.2354 H         1 UNK         0.0600 
    192 H192       -3.6034  -20.7330  -49.2068 H         1 UNK         0.0600 
    193 H193       -4.8375  -21.9279  -49.5610 H         1 UNK         0.0600 
    194 H194       -4.2998  -21.6835  -47.9049 H         1 UNK         0.0600 
    195 H195       -2.8650  -23.4984  -46.6934 H         1 UNK         0.3000 
    196 H196       -4.4387  -25.8579  -46.7766 H         1 UNK         0.0600 
    197 H197       -3.5611  -26.2032  -44.4626 H         1 UNK         0.0600 
    198 H198       -4.0788  -24.5420  -44.7111 H         1 UNK         0.0600 
    199 H199       -2.3629  -24.9397  -44.7165 H         1 UNK         0.0600 
    200 H200       -0.8706  -25.4152  -46.8398 H         1 UNK         0.3000 
    201 H201       -0.1807  -28.1702  -46.8928 H         1 UNK         0.0600 
    202 H202        1.4166  -26.3858  -46.2692 H         1 UNK         0.0600 
    203 H203        1.3590  -25.7190  -47.8991 H         1 UNK         0.0600 
    204 H204        2.0521  -27.3125  -47.6204 H         1 UNK         0.0600 
    205 H205       -0.7335  -25.8319  -49.5587 H         1 UNK         0.3000 
    206 H206       -0.1413  -27.6881  -51.6812 H         1 UNK         0.0600 
    207 H207        0.1010  -25.2271  -51.9227 H         1 UNK         0.0600 
    208 H208       -1.0463  -25.8374  -53.1050 H         1 UNK         0.0600 
    209 H209       -1.6291  -25.0075  -51.6668 H         1 UNK         0.0600 
    210 H210       -2.9238  -27.2444  -49.7195 H         1 UNK         0.3000 
    211 H211       -5.0316  -27.8954  -49.6781 H         1 UNK         0.0600 
    212 H212       -4.4069  -29.8957  -51.9174 H         1 UNK         0.0600 
    213 H213       -5.8026  -29.9160  -50.8511 H         1 UNK         0.0600 
    214 H214       -4.1990  -30.2014  -50.1935 H         1 UNK         0.0600 
    215 H215       -4.5138  -25.5917  -50.8073 H         1 UNK         0.3000 
    216 H216       -6.3779  -25.2434  -53.1184 H         1 UNK         0.0600 
    217 H217       -4.7641  -23.5847  -54.0273 H         1 UNK         0.0600 
    218 H218       -4.0015  -25.1621  -53.9095 H         1 UNK         0.0600 
    219 H219       -3.6404  -23.9231  -52.7125 H         1 UNK         0.0600 
    220 H220       -7.1222  -25.1274  -50.4471 H         1 UNK         0.3000 
    221 H221       -7.0191  -22.5933  -49.2130 H         1 UNK         0.0600 
    222 H222       -9.1236  -24.8074  -48.9979 H         1 UNK         0.0600 
    223 H223       -7.6526  -24.6708  -48.0329 H         1 UNK         0.0600 
    224 H224       -8.9269  -23.4740  -47.8665 H         1 UNK         0.0600 
    225 H225       -9.0793  -23.7365  -51.8237 H         1 UNK         0.3000 
    226 H226      -11.0463  -21.6407  -51.7320 H         1 UNK         0.0600 
    227 H227      -11.4592  -23.8090  -52.8666 H         1 UNK         0.0600 
    228 H228      -11.6175  -22.4865  -54.0111 H         1 UNK         0.0600 
    229 H229      -10.1669  -23.4821  -54.0222 H         1 UNK         0.0600 
    230 H230       -7.8222  -21.9165  -53.1896 H         1 UNK         0.3000 
    231 H231       -8.0438  -19.3994  -54.7007 H         1 UNK         0.0600 
    232 H232       -6.6984  -21.3000  -55.6050 H         1 UNK         0.0600 
    233 H233       -5.6476  -21.2452  -54.1909 H         1 UNK         0.0600 
    234 H234       -5.6945  -19.8895  -55.3076 H         1 UNK         0.0600 
    235 H235       -6.9049  -20.5929  -51.6187 H         1 UNK         0.3000 
    236 H236       -6.2654  -19.7041  -49.7152 H         1 UNK         0.0600 
    237 H237       -6.9028  -17.4243  -49.0810 H         1 UNK         0.0600 
    238 H238       -7.1270  -16.9605  -50.7609 H         1 UNK         0.0600 
    239 H239       -8.2007  -18.1463  -50.0169 H         1 UNK         0.0600 
    240 H240       -4.4086  -19.8571  -52.0389 H         1 UNK         0.3000 
    241 H241       -2.1197  -18.7778  -50.6347 H         1 UNK         0.0600 
    242 H242       -1.8905  -22.1409  -52.6929 H         1 UNK         0.3800 
    243 H243       -3.4240  -21.4410  -52.2687 H         1 UNK         0.3800 
    244 H244       -3.1686  -17.2474  -52.8495 H         1 UNK         0.0800 
    245 H245       -1.7448  -17.9941  -53.4692 H         1 UNK         0.0800 
    246 H246        0.7980  -15.9488  -52.8059 H         1 UNK         0.0800 
    247 H247        0.4492  -17.6557  -52.8863 H         1 UNK         0.0800 
@<TRIPOS>BOND
     1    1    2 1    
     2    1  127 1    
     3    1  128 1    
     4    1  129 1    
     5    2    3 2    
     6    2    4 am   BACKBONE|DICT|INTERRES
     7    4    5 1    
     8    4  130 1    
     9    5    6 1    
    10    5   65 1    
    11    5  131 1    
    12    6    7 1    
    13    6  132 1    
    14    6  133 1    
    15    7    8 1    
    16    8    9 1    
    17    8  134 1    
    18    8  135 1    
    19    9   10 ar   
    20    9   14 ar   
    21   10   11 ar   
    22   10  136 1    
    23   11   12 ar   
    24   11  126 1    
    25   12   13 ar   
    26   12  137 1    
    27   13   14 ar   
    28   13   15 1    
    29   14  138 1    
    30   15   16 1    
    31   15  139 1    
    32   15  140 1    
    33   16   17 1    
    34   17   18 1    
    35   17  141 1    
    36   17  142 1    
    37   18   19 1    
    38   18   67 1    
    39   18  143 1    
    40   19   20 am   BACKBONE|DICT|INTERRES
    41   19  144 1    
    42   20   21 2    
    43   20   22 1    
    44   22   23 1    
    45   22   24 1    
    46   22  145 1    
    47   23  146 1    
    48   23  147 1    
    49   23  148 1    
    50   24   25 am   BACKBONE|DICT|INTERRES
    51   24  149 1    
    52   25   26 2    
    53   25   27 1    
    54   27   28 1    
    55   27   29 1    
    56   27  150 1    
    57   28  151 1    
    58   28  152 1    
    59   28  153 1    
    60   29   30 am   BACKBONE|DICT|INTERRES
    61   29  154 1    
    62   30   31 2    
    63   30   32 1    
    64   32   33 1    
    65   32   34 1    
    66   32  155 1    
    67   33  156 1    
    68   33  157 1    
    69   33  158 1    
    70   34   35 am   BACKBONE|DICT|INTERRES
    71   34  159 1    
    72   35   36 2    
    73   35   37 1    
    74   37   38 1    
    75   37   39 1    
    76   37  160 1    
    77   38  161 1    
    78   38  162 1    
    79   38  163 1    
    80   39   40 am   BACKBONE|DICT|INTERRES
    81   39  164 1    
    82   40   41 2    
    83   40   42 1    
    84   42   43 1    
    85   42   44 1    
    86   42  165 1    
    87   43  166 1    
    88   43  167 1    
    89   43  168 1    
    90   44   45 am   BACKBONE|DICT|INTERRES
    91   44  169 1    
    92   45   46 2    
    93   45   47 1    
    94   47   48 1    
    95   47   49 1    
    96   47  170 1    
    97   48  171 1    
    98   48  172 1    
    99   48  173 1    
   100   49   50 am   BACKBONE|DICT|INTERRES
   101   49  174 1    
   102   50   51 2    
   103   50   52 1    
   104   52   53 1    
   105   52   54 1    
   106   52  175 1    
   107   53  176 1    
   108   53  177 1    
   109   53  178 1    
   110   54   55 am   BACKBONE|DICT|INTERRES
   111   54  179 1    
   112   55   56 2    
   113   55   57 1    
   114   57   58 1    
   115   57   59 1    
   116   57  180 1    
   117   58  181 1    
   118   58  182 1    
   119   58  183 1    
   120   59   60 am   BACKBONE|DICT|INTERRES
   121   59  184 1    
   122   60   61 2    
   123   60   62 1    
   124   62   63 1    
   125   62   64 1    
   126   62  185 1    
   127   63  186 1    
   128   63  187 1    
   129   63  188 1    
   130   64   65 am   BACKBONE|DICT|INTERRES
   131   64  189 1    
   132   65   66 2    
   133   67   68 2    
   134   67   69 am   BACKBONE|DICT|INTERRES
   135   69   70 1    
   136   69  190 1    
   137   70   71 1    
   138   70   72 1    
   139   70  191 1    
   140   71  192 1    
   141   71  193 1    
   142   71  194 1    
   143   72   73 2    
   144   72   74 am   BACKBONE|DICT|INTERRES
   145   74   75 1    
   146   74  195 1    
   147   75   76 1    
   148   75   77 1    
   149   75  196 1    
   150   76  197 1    
   151   76  198 1    
   152   76  199 1    
   153   77   78 2    
   154   77   79 am   BACKBONE|DICT|INTERRES
   155   79   80 1    
   156   79  200 1    
   157   80   81 1    
   158   80   82 1    
   159   80  201 1    
   160   81  202 1    
   161   81  203 1    
   162   81  204 1    
   163   82   83 2    
   164   82   84 am   BACKBONE|DICT|INTERRES
   165   84   85 1    
   166   84  205 1    
   167   85   86 1    
   168   85   87 1    
   169   85  206 1    
   170   86  207 1    
   171   86  208 1    
   172   86  209 1    
   173   87   88 2    
   174   87   89 am   BACKBONE|DICT|INTERRES
   175   89   90 1    
   176   89  210 1    
   177   90   91 1    
   178   90   92 1    
   179   90  211 1    
   180   91  212 1    
   181   91  213 1    
   182   91  214 1    
   183   92   93 2    
   184   92   94 am   BACKBONE|DICT|INTERRES
   185   94   95 1    
   186   94  215 1    
   187   95   96 1    
   188   95   97 1    
   189   95  216 1    
   190   96  217 1    
   191   96  218 1    
   192   96  219 1    
   193   97   98 2    
   194   97   99 am   BACKBONE|DICT|INTERRES
   195   99  100 1    
   196   99  220 1    
   197  100  101 1    
   198  100  102 1    
   199  100  221 1    
   200  101  222 1    
   201  101  223 1    
   202  101  224 1    
   203  102  103 2    
   204  102  104 am   BACKBONE|DICT|INTERRES
   205  104  105 1    
   206  104  225 1    
   207  105  106 1    
   208  105  107 1    
   209  105  226 1    
   210  106  227 1    
   211  106  228 1    
   212  106  229 1    
   213  107  108 2    
   214  107  109 am   BACKBONE|DICT|INTERRES
   215  109  110 1    
   216  109  230 1    
   217  110  111 1    
   218  110  112 1    
   219  110  231 1    
   220  111  232 1    
   221  111  233 1    
   222  111  234 1    
   223  112  113 2    
   224  112  114 am   BACKBONE|DICT|INTERRES
   225  114  115 1    
   226  114  235 1    
   227  115  116 1    
   228  115  117 1    
   229  115  236 1    
   230  116  237 1    
   231  116  238 1    
   232  116  239 1    
   233  117  118 2    
   234  117  119 am   BACKBONE|DICT|INTERRES
   235  119  120 1    
   236  119  240 1    
   237  120  121 1    
   238  120  124 1    
   239  120  241 1    
   240  121  122 am   BACKBONE|DICT|INTERRES
   241  121  123 2    
   242  122  242 1    
   243  122  243 1    
   244  124  125 1    
   245  124  244 1    
   246  124  245 1    
   247  125  126 1    
   248  126  246 1    
   249  126  247 1    
@<TRIPOS>SUBSTRUCTURE
     1 UNK         1 GROUP             0       ****    0 ROOT    
