@<TRIPOS>MOLECULE
3R540
247   249    1
SMALL
USER_CHARGES


@<TRIPOS>ATOM
      1 CA          8.1821  -15.4602  -47.7729 C.3       0 UNK        -0.1800 
      2 C           6.9704  -14.8817  -47.0570 C.2       0 UNK         0.5000 
      3 O           6.7498  -15.1778  -45.8823 O.2       0 UNK        -0.5000 
      4 N           6.1910  -14.0415  -47.7484 N.am      1 UNK        -0.5000 
      5 CA          4.9543  -13.4119  -47.2646 C.3       1 UNK         0.1400 
      6 C6          4.0025  -13.0310  -48.4318 C.3       23 UNK        -0.0398 
      7 S7          3.6126  -14.4176  -49.5549 S.3       23 UNK        -0.2404 
      8 C8          2.0853  -15.0858  -48.8244 C.3       23 UNK        -0.0205 
      9 C9          1.4000  -16.0488  -49.7798 C.ar      23 UNK        -0.0193 
     10 C10         0.2902  -15.6291  -50.5152 C.ar      23 UNK        -0.1150 
     11 C11        -0.3375  -16.4958  -51.4128 C.ar      23 UNK        -0.0193 
     12 C12         0.1593  -17.7919  -51.5815 C.ar      23 UNK        -0.1150 
     13 C13         1.2728  -18.2252  -50.8531 C.ar      23 UNK        -0.0193 
     14 C14         1.8805  -17.3519  -49.9439 C.ar      23 UNK        -0.1150 
     15 C15         1.8475  -19.6200  -51.0777 C.3       23 UNK        -0.0205 
     16 S16         0.6891  -20.9511  -50.6234 S.3       23 UNK        -0.2404 
     17 C17         0.3861  -20.5691  -48.8674 C.3       23 UNK        -0.0398 
     18 CA          0.2025  -21.8085  -47.9587 C.3       11 UNK         0.1400 
     19 N           0.1989  -21.4231  -46.5448 N.am      11 UNK        -0.5000 
     20 C           0.1528  -22.2623  -45.5014 C.2       10 UNK         0.5000 
     21 O           0.1794  -23.4865  -45.6069 O.2       10 UNK        -0.5000 
     22 CA         -0.0048  -21.6298  -44.1065 C.3       10 UNK         0.1400 
     23 CB          1.3508  -21.1591  -43.5599 C.3       10 UNK        -0.1800 
     24 N          -0.9568  -20.5179  -44.0989 N.am      10 UNK        -0.5000 
     25 C          -2.2634  -20.6335  -44.3770 C.2       9 UNK         0.5000 
     26 O          -2.8182  -21.7066  -44.6118 O.2       9 UNK        -0.5000 
     27 CA         -3.0753  -19.3280  -44.4657 C.3       9 UNK         0.1400 
     28 CB         -3.4707  -18.8231  -43.0704 C.3       9 UNK        -0.1800 
     29 N          -2.3625  -18.2785  -45.1972 N.am      9 UNK        -0.5000 
     30 C          -2.0472  -18.3566  -46.4987 C.2       8 UNK         0.5000 
     31 O          -2.3836  -19.2939  -47.2224 O.2       8 UNK        -0.5000 
     32 CA         -1.1741  -17.2292  -47.0797 C.3       8 UNK         0.1400 
     33 CB         -2.0393  -16.0217  -47.4663 C.3       8 UNK        -0.1800 
     34 N          -0.1117  -16.8115  -46.1617 N.am      8 UNK        -0.5000 
     35 C           0.9083  -17.5944  -45.7809 C.2       7 UNK         0.5000 
     36 O           1.0906  -18.7281  -46.2200 O.2       7 UNK        -0.5000 
     37 CA          1.8485  -17.0582  -44.6851 C.3       7 UNK         0.1400 
     38 CB          2.9216  -16.1239  -45.2573 C.3       7 UNK        -0.1800 
     39 N           1.1308  -16.3668  -43.6195 N.am      7 UNK        -0.5000 
     40 C           0.2696  -16.9477  -42.7761 C.2       6 UNK         0.5000 
     41 O           0.0061  -18.1492  -42.7868 O.2       6 UNK        -0.5000 
     42 CA         -0.4456  -16.0183  -41.7831 C.3       6 UNK         0.1400 
     43 CB          0.4479  -15.7209  -40.5694 C.3       6 UNK        -0.1800 
     44 N          -0.8508  -14.7621  -42.4134 N.am      6 UNK        -0.5000 
     45 C          -1.8358  -14.6534  -43.3149 C.2       5 UNK         0.5000 
     46 O          -2.5235  -15.6014  -43.6953 O.2       5 UNK        -0.5000 
     47 CA         -2.0648  -13.2539  -43.9152 C.3       5 UNK         0.1400 
     48 CB         -2.8814  -12.3761  -42.9548 C.3       5 UNK        -0.1800 
     49 N          -0.8153  -12.5705  -44.2580 N.am      5 UNK        -0.5000 
     50 C           0.0147  -12.9765  -45.2277 C.2       4 UNK         0.5000 
     51 O          -0.1789  -13.9709  -45.9229 O.2       4 UNK        -0.5000 
     52 CA          1.3015  -12.1640  -45.4417 C.3       4 UNK         0.1400 
     53 CB          1.0219  -10.9276  -46.3084 C.3       4 UNK        -0.1800 
     54 N           2.0108  -11.7599  -44.2247 N.am      4 UNK        -0.5000 
     55 C           2.3645  -12.5655  -43.2139 C.2       3 UNK         0.5000 
     56 O           1.9831  -13.7290  -43.0907 O.2       3 UNK        -0.5000 
     57 CA          3.4206  -12.0025  -42.2562 C.3       3 UNK         0.1400 
     58 CB          3.5307  -12.8090  -40.9496 C.3       3 UNK        -0.1800 
     59 N           4.6832  -12.0839  -42.9803 N.am      3 UNK        -0.5000 
     60 C           5.4254  -11.0464  -43.3803 C.2       2 UNK         0.5000 
     61 O           5.2268   -9.8805  -43.0372 O.2       2 UNK        -0.5000 
     62 CA          6.5510  -11.3736  -44.3792 C.3       2 UNK         0.1400 
     63 CB          7.8126  -11.8513  -43.6443 C.3       2 UNK        -0.1800 
     64 N           6.1511  -12.3861  -45.3625 N.am      2 UNK        -0.5000 
     65 C           5.2393  -12.2085  -46.3293 C.2       1 UNK         0.5000 
     66 O           4.6459  -11.1428  -46.4999 O.2       1 UNK        -0.5000 
     67 C          -1.0578  -22.6216  -48.3260 C.2       11 UNK         0.5000 
     68 O          -0.9372  -23.7058  -48.8979 O.2       11 UNK        -0.5000 
     69 N          -2.2381  -22.1143  -47.9413 N.am      12 UNK        -0.5000 
     70 CA         -3.5254  -22.7806  -48.1375 C.3       12 UNK         0.1400 
     71 CB         -4.6644  -21.8310  -47.7395 C.3       12 UNK        -0.1800 
     72 C          -3.6328  -24.1209  -47.3856 C.2       12 UNK         0.5000 
     73 O          -4.1303  -25.0939  -47.9535 O.2       12 UNK        -0.5000 
     74 N          -3.1312  -24.1592  -46.1432 N.am      13 UNK        -0.5000 
     75 CA         -3.0568  -25.3619  -45.3132 C.3       13 UNK         0.1400 
     76 CB         -2.6573  -24.9794  -43.8804 C.3       13 UNK        -0.1800 
     77 C          -2.0997  -26.4243  -45.8845 C.2       13 UNK         0.5000 
     78 O          -2.4434  -27.6060  -45.8807 O.2       13 UNK        -0.5000 
     79 N          -0.9383  -25.9892  -46.3942 N.am      14 UNK        -0.5000 
     80 CA          0.0547  -26.8378  -47.0573 C.3       14 UNK         0.1400 
     81 CB          1.3538  -26.0459  -47.2697 C.3       14 UNK        -0.1800 
     82 C          -0.4532  -27.4186  -48.3894 C.2       14 UNK         0.5000 
     83 O          -0.1724  -28.5792  -48.6910 O.2       14 UNK        -0.5000 
     84 N          -1.2180  -26.6168  -49.1445 N.am      15 UNK        -0.5000 
     85 CA         -1.9145  -27.0360  -50.3629 C.3       15 UNK         0.1400 
     86 CB         -2.4238  -25.7912  -51.1058 C.3       15 UNK        -0.1800 
     87 C          -3.0767  -28.0124  -50.0901 C.2       15 UNK         0.5000 
     88 O          -3.4506  -28.7689  -50.9870 O.2       15 UNK        -0.5000 
     89 N          -3.6328  -27.9649  -48.8699 N.am      16 UNK        -0.5000 
     90 CA         -4.7198  -28.7672  -48.2921 C.3       16 UNK         0.1400 
     91 CB         -4.3817  -30.2695  -48.3000 C.3       16 UNK        -0.1800 
     92 C          -6.0999  -28.4943  -48.9171 C.2       16 UNK         0.5000 
     93 O          -7.0702  -28.2905  -48.1871 O.2       16 UNK        -0.5000 
     94 N          -6.1567  -28.4553  -50.2518 N.am      17 UNK        -0.5000 
     95 CA         -7.3196  -28.0611  -51.0466 C.3       17 UNK         0.1400 
     96 CB         -7.1926  -28.7005  -52.4388 C.3       17 UNK        -0.1800 
     97 C          -7.4687  -26.5297  -51.1661 C.2       17 UNK         0.5000 
     98 O          -8.4722  -26.0689  -51.7117 O.2       17 UNK        -0.5000 
     99 N          -6.4705  -25.7769  -50.6755 N.am      18 UNK        -0.5000 
    100 CA        -6.3133  -24.3259  -50.7794 C.3       18 UNK         0.1400 
    101 CB        -7.3964  -23.5887  -49.9600 C.3       18 UNK        -0.1800 
    102 C         -6.2051  -23.8912  -52.2551 C.2       18 UNK         0.5000 
    103 O         -5.2842  -24.3441  -52.9365 O.2       18 UNK        -0.5000 
    104 N         -7.1313  -23.0379  -52.7167 N.am      19 UNK        -0.5000 
    105 CA        -7.2580  -22.5293  -54.0889 C.3       19 UNK         0.1400 
    106 CB        -7.6018  -23.6729  -55.0675 C.3       19 UNK        -0.1800 
    107 C         -6.0532  -21.6803  -54.5516 C.2       19 UNK         0.5000 
    108 O         -5.7228  -21.6679  -55.7394 O.2       19 UNK        -0.5000 
    109 N         -5.4270  -20.9684  -53.6043 N.am      20 UNK        -0.5000 
    110 CA        -4.3758  -19.9846  -53.8603 C.3       20 UNK         0.1400 
    111 CB        -3.7020  -19.6191  -52.5270 C.3       20 UNK        -0.1800 
    112 C         -4.9515  -18.7266  -54.5378 C.2       20 UNK         0.5000 
    113 O         -6.1189  -18.3922  -54.3171 O.2       20 UNK        -0.5000 
    114 N         -4.1150  -18.0245  -55.3143 N.am      21 UNK        -0.5000 
    115 CA        -4.4785  -16.8164  -56.0696 C.3       21 UNK         0.1400 
    116 CB        -3.2741  -16.3785  -56.9171 C.3       21 UNK        -0.1800 
    117 C         -4.9753  -15.6443  -55.1971 C.2       21 UNK         0.5000 
    118 O         -5.7522  -14.8150  -55.6717 O.2       21 UNK        -0.5000 
    119 N         -4.5301  -15.6167  -53.9373 N.am      22 UNK        -0.5000 
    120 CA        -4.9834  -14.7047  -52.8798 C.3       22 UNK         0.1400 
    121 C         -6.3102  -15.1282  -52.1790 C.2       22 UNK         0.5000 
    122 N         -6.9134  -16.2679  -52.4975 N.am      22 UNK        -0.7600 
    123 O         -6.8199  -14.3918  -51.3386 O.2       22 UNK        -0.5000 
    124 C124       -3.8448  -14.4141  -51.8666 C.3       23 UNK        -0.0398 
    125 S125       -3.0315  -15.9107  -51.1923 S.3       23 UNK        -0.2404 
    126 C126       -1.5277  -16.0047  -52.2189 C.3       23 UNK        -0.0205 
    127 H127        8.2509  -15.1078  -48.8023 H         1 UNK         0.0600 
    128 H128        8.1229  -16.5484  -47.7892 H         1 UNK         0.0600 
    129 H129        9.0965  -15.1747  -47.2530 H         1 UNK         0.0600 
    130 H130        6.4357  -13.8243  -48.7041 H         1 UNK         0.3000 
    131 H131        4.4269  -14.1448  -46.6531 H         1 UNK         0.0600 
    132 H132        3.0681  -12.6133  -48.0563 H         1 UNK         0.0800 
    133 H133        4.4539  -12.2425  -49.0366 H         1 UNK         0.0800 
    134 H134        2.3254  -15.6099  -47.9030 H         1 UNK         0.0800 
    135 H135        1.4083  -14.2734  -48.5547 H         1 UNK         0.0800 
    136 H136       -0.0863  -14.6230  -50.3940 H         1 UNK         0.1150 
    137 H137       -0.3114  -18.4634  -52.2856 H         1 UNK         0.1150 
    138 H138        2.7448  -17.6739  -49.3802 H         1 UNK         0.1150 
    139 H139        2.1096  -19.7277  -52.1310 H         1 UNK         0.0800 
    140 H140        2.7752  -19.7524  -50.5187 H         1 UNK         0.0800 
    141 H141       -0.4771  -19.9073  -48.8136 H         1 UNK         0.0800 
    142 H142        1.2330  -19.9875  -48.5025 H         1 UNK         0.0800 
    143 H143        1.0654  -22.4618  -48.1031 H         1 UNK         0.0600 
    144 H144        0.2471  -20.4258  -46.3550 H         1 UNK         0.3000 
    145 H145       -0.3900  -22.3992  -43.4346 H         1 UNK         0.0600 
    146 H146        1.2526  -20.7669  -42.5475 H         1 UNK         0.0600 
    147 H147        2.0634  -21.9840  -43.5224 H         1 UNK         0.0600 
    148 H148        1.7873  -20.3766  -44.1801 H         1 UNK         0.0600 
    149 H149       -0.5880  -19.6026  -43.8541 H         1 UNK         0.3000 
    150 H150       -3.9938  -19.5484  -45.0136 H         1 UNK         0.0600 
    151 H151       -4.0319  -19.5836  -42.5262 H         1 UNK         0.0600 
    152 H152       -4.1031  -17.9377  -43.1371 H         1 UNK         0.0600 
    153 H153       -2.5996  -18.5660  -42.4686 H         1 UNK         0.0600 
    154 H154       -2.0907  -17.4559  -44.6711 H         1 UNK         0.3000 
    155 H155       -0.7025  -17.6069  -47.9891 H         1 UNK         0.0600 
    156 H156       -2.4838  -15.5468  -46.5911 H         1 UNK         0.0600 
    157 H157       -1.4518  -15.2710  -47.9949 H         1 UNK         0.0600 
    158 H158       -2.8528  -16.3202  -48.1285 H         1 UNK         0.0600 
    159 H159       -0.1706  -15.8601  -45.8086 H         1 UNK         0.3000 
    160 H160        2.3563  -17.9168  -44.2412 H         1 UNK         0.0600 
    161 H161        3.6493  -15.8486  -44.4934 H         1 UNK         0.0600 
    162 H162        2.4813  -15.2034  -45.6387 H         1 UNK         0.0600 
    163 H163        3.4709  -16.6032  -46.0686 H         1 UNK         0.0600 
    164 H164        1.3219  -15.3730  -43.5077 H         1 UNK         0.3000 
    165 H165       -1.3423  -16.5310  -41.4286 H         1 UNK         0.0600 
    166 H166       -0.0730  -15.1025  -39.8384 H         1 UNK         0.0600 
    167 H167        0.7393  -16.6437  -40.0661 H         1 UNK         0.0600 
    168 H168        1.3628  -15.2018  -40.8567 H         1 UNK         0.0600 
    169 H169       -0.2799  -13.9522  -42.2184 H         1 UNK         0.3000 
    170 H170       -2.6432  -13.3799  -44.8332 H         1 UNK         0.0600 
    171 H171       -2.3433  -12.1837  -42.0258 H         1 UNK         0.0600 
    172 H172       -3.1226  -11.4147  -43.4086 H         1 UNK         0.0600 
    173 H173       -3.8252  -12.8571  -42.6942 H         1 UNK         0.0600 
    174 H174       -0.5723  -11.7509  -43.7211 H         1 UNK         0.3000 
    175 H175        1.9861  -12.8093  -45.9926 H         1 UNK         0.0600 
    176 H176        0.3866  -10.2084  -45.7901 H         1 UNK         0.0600 
    177 H177        0.5176  -11.2048  -47.2352 H         1 UNK         0.0600 
    178 H178        1.9465  -10.4204  -46.5844 H         1 UNK         0.0600 
    179 H179        2.4049  -10.8300  -44.2414 H         1 UNK         0.3000 
    180 H180        3.1573  -10.9710  -42.0133 H         1 UNK         0.0600 
    181 H181        3.8020  -13.8495  -41.1334 H         1 UNK         0.0600 
    182 H182        2.5834  -12.8058  -40.4092 H         1 UNK         0.0600 
    183 H183        4.2847  -12.3810  -40.2890 H         1 UNK         0.0600 
    184 H184        4.9151  -12.9966  -43.3459 H         1 UNK         0.3000 
    185 H185        6.7963  -10.4555  -44.9174 H         1 UNK         0.0600 
    186 H186        8.6361  -12.0125  -44.3402 H         1 UNK         0.0600 
    187 H187        8.1438  -11.1106  -42.9152 H         1 UNK         0.0600 
    188 H188        7.6387  -12.7855  -43.1087 H         1 UNK         0.0600 
    189 H189        6.5858  -13.3011  -45.2930 H         1 UNK         0.3000 
    190 H190       -2.2609  -21.1985  -47.5002 H         1 UNK         0.3000 
    191 H191       -3.6184  -22.9922  -49.2037 H         1 UNK         0.0600 
    192 H192       -4.6522  -20.9260  -48.3473 H         1 UNK         0.0600 
    193 H193       -5.6366  -22.3045  -47.8772 H         1 UNK         0.0600 
    194 H194       -4.5918  -21.5310  -46.6940 H         1 UNK         0.0600 
    195 H195       -2.7931  -23.2962  -45.7262 H         1 UNK         0.3000 
    196 H196       -4.0556  -25.8020  -45.2780 H         1 UNK         0.0600 
    197 H197       -2.6285  -25.8583  -43.2353 H         1 UNK         0.0600 
    198 H198       -3.3713  -24.2797  -43.4458 H         1 UNK         0.0600 
    199 H199       -1.6719  -24.5150  -43.8469 H         1 UNK         0.0600 
    200 H200       -0.6992  -25.0051  -46.2992 H         1 UNK         0.3000 
    201 H201        0.2746  -27.6764  -46.3934 H         1 UNK         0.0600 
    202 H202        1.7682  -25.7082  -46.3197 H         1 UNK         0.0600 
    203 H203        1.1926  -25.1672  -47.8949 H         1 UNK         0.0600 
    204 H204        2.1125  -26.6609  -47.7551 H         1 UNK         0.0600 
    205 H205       -1.3291  -25.6460  -48.8657 H         1 UNK         0.3000 
    206 H206       -1.1978  -27.5494  -51.0070 H         1 UNK         0.0600 
    207 H207       -1.6003  -25.1313  -51.3793 H         1 UNK         0.0600 
    208 H208       -2.9409  -26.0651  -52.0265 H         1 UNK         0.0600 
    209 H209       -3.1213  -25.2165  -50.4973 H         1 UNK         0.0600 
    210 H210       -3.2780  -27.2489  -48.2485 H         1 UNK         0.3000 
    211 H211       -4.7848  -28.4550  -47.2486 H         1 UNK         0.0600 
    212 H212       -4.3170  -30.6711  -49.3115 H         1 UNK         0.0600 
    213 H213       -5.1456  -30.8413  -47.7719 H         1 UNK         0.0600 
    214 H214       -3.4306  -30.4592  -47.8019 H         1 UNK         0.0600 
    215 H215       -5.2936  -28.6403  -50.7579 H         1 UNK         0.3000 
    216 H216       -8.2249  -28.4452  -50.5720 H         1 UNK         0.0600 
    217 H217       -8.0584  -28.4663  -53.0596 H         1 UNK         0.0600 
    218 H218       -7.1287  -29.7866  -52.3695 H         1 UNK         0.0600 
    219 H219       -6.3052  -28.3446  -52.9639 H         1 UNK         0.0600 
    220 H220       -5.6955  -26.2644  -50.2509 H         1 UNK         0.3000 
    221 H221       -5.3501  -24.0929  -50.3278 H         1 UNK         0.0600 
    222 H222       -8.4020  -23.7656  -50.3424 H         1 UNK         0.0600 
    223 H223       -7.3806  -23.9159  -48.9202 H         1 UNK         0.0600 
    224 H224       -7.2238  -22.5118  -49.9574 H         1 UNK         0.0600 
    225 H225       -7.8504  -22.7362  -52.0742 H         1 UNK         0.3000 
    226 H226       -8.1098  -21.8478  -54.0777 H         1 UNK         0.0600 
    227 H227       -8.4586  -24.2480  -54.7160 H         1 UNK         0.0600 
    228 H228       -7.8571  -23.2819  -56.0530 H         1 UNK         0.0600 
    229 H229       -6.7665  -24.3618  -55.1963 H         1 UNK         0.0600 
    230 H230       -5.7843  -21.0121  -52.6622 H         1 UNK         0.3000 
    231 H231       -3.6313  -20.4344  -54.5207 H         1 UNK         0.0600 
    232 H232       -4.4018  -19.1461  -51.8364 H         1 UNK         0.0600 
    233 H233       -2.8767  -18.9236  -52.6818 H         1 UNK         0.0600 
    234 H234       -3.2905  -20.5013  -52.0359 H         1 UNK         0.0600 
    235 H235       -3.1705  -18.3591  -55.4404 H         1 UNK         0.3000 
    236 H236       -5.2935  -17.0838  -56.7453 H         1 UNK         0.0600 
    237 H237       -2.9712  -17.1639  -57.6097 H         1 UNK         0.0600 
    238 H238       -3.5150  -15.4974  -57.5135 H         1 UNK         0.0600 
    239 H239       -2.4143  -16.1280  -56.2943 H         1 UNK         0.0600 
    240 H240       -3.9141  -16.3547  -53.6331 H         1 UNK         0.3000 
    241 H241       -5.2207  -13.7506  -53.3543 H         1 UNK         0.0600 
    242 H242       -6.5345  -16.8988  -53.1975 H         1 UNK         0.3800 
    243 H243       -7.7748  -16.5095  -52.0346 H         1 UNK         0.3800 
    244 H244       -3.0986  -13.7787  -52.3435 H         1 UNK         0.0800 
    245 H245       -4.2141  -13.8214  -51.0280 H         1 UNK         0.0800 
    246 H246       -1.2788  -15.0280  -52.6350 H         1 UNK         0.0800 
    247 H247       -1.7131  -16.6584  -53.0719 H         1 UNK         0.0800 
@<TRIPOS>BOND
     1    1    2 1    
     2    1  127 1    
     3    1  128 1    
     4    1  129 1    
     5    2    3 2    
     6    2    4 am   BACKBONE|DICT|INTERRES
     7    4    5 1    
     8    4  130 1    
     9    5    6 1    
    10    5   65 1    
    11    5  131 1    
    12    6    7 1    
    13    6  132 1    
    14    6  133 1    
    15    7    8 1    
    16    8    9 1    
    17    8  134 1    
    18    8  135 1    
    19    9   10 ar   
    20    9   14 ar   
    21   10   11 ar   
    22   10  136 1    
    23   11   12 ar   
    24   11  126 1    
    25   12   13 ar   
    26   12  137 1    
    27   13   14 ar   
    28   13   15 1    
    29   14  138 1    
    30   15   16 1    
    31   15  139 1    
    32   15  140 1    
    33   16   17 1    
    34   17   18 1    
    35   17  141 1    
    36   17  142 1    
    37   18   19 1    
    38   18   67 1    
    39   18  143 1    
    40   19   20 am   BACKBONE|DICT|INTERRES
    41   19  144 1    
    42   20   21 2    
    43   20   22 1    
    44   22   23 1    
    45   22   24 1    
    46   22  145 1    
    47   23  146 1    
    48   23  147 1    
    49   23  148 1    
    50   24   25 am   BACKBONE|DICT|INTERRES
    51   24  149 1    
    52   25   26 2    
    53   25   27 1    
    54   27   28 1    
    55   27   29 1    
    56   27  150 1    
    57   28  151 1    
    58   28  152 1    
    59   28  153 1    
    60   29   30 am   BACKBONE|DICT|INTERRES
    61   29  154 1    
    62   30   31 2    
    63   30   32 1    
    64   32   33 1    
    65   32   34 1    
    66   32  155 1    
    67   33  156 1    
    68   33  157 1    
    69   33  158 1    
    70   34   35 am   BACKBONE|DICT|INTERRES
    71   34  159 1    
    72   35   36 2    
    73   35   37 1    
    74   37   38 1    
    75   37   39 1    
    76   37  160 1    
    77   38  161 1    
    78   38  162 1    
    79   38  163 1    
    80   39   40 am   BACKBONE|DICT|INTERRES
    81   39  164 1    
    82   40   41 2    
    83   40   42 1    
    84   42   43 1    
    85   42   44 1    
    86   42  165 1    
    87   43  166 1    
    88   43  167 1    
    89   43  168 1    
    90   44   45 am   BACKBONE|DICT|INTERRES
    91   44  169 1    
    92   45   46 2    
    93   45   47 1    
    94   47   48 1    
    95   47   49 1    
    96   47  170 1    
    97   48  171 1    
    98   48  172 1    
    99   48  173 1    
   100   49   50 am   BACKBONE|DICT|INTERRES
   101   49  174 1    
   102   50   51 2    
   103   50   52 1    
   104   52   53 1    
   105   52   54 1    
   106   52  175 1    
   107   53  176 1    
   108   53  177 1    
   109   53  178 1    
   110   54   55 am   BACKBONE|DICT|INTERRES
   111   54  179 1    
   112   55   56 2    
   113   55   57 1    
   114   57   58 1    
   115   57   59 1    
   116   57  180 1    
   117   58  181 1    
   118   58  182 1    
   119   58  183 1    
   120   59   60 am   BACKBONE|DICT|INTERRES
   121   59  184 1    
   122   60   61 2    
   123   60   62 1    
   124   62   63 1    
   125   62   64 1    
   126   62  185 1    
   127   63  186 1    
   128   63  187 1    
   129   63  188 1    
   130   64   65 am   BACKBONE|DICT|INTERRES
   131   64  189 1    
   132   65   66 2    
   133   67   68 2    
   134   67   69 am   BACKBONE|DICT|INTERRES
   135   69   70 1    
   136   69  190 1    
   137   70   71 1    
   138   70   72 1    
   139   70  191 1    
   140   71  192 1    
   141   71  193 1    
   142   71  194 1    
   143   72   73 2    
   144   72   74 am   BACKBONE|DICT|INTERRES
   145   74   75 1    
   146   74  195 1    
   147   75   76 1    
   148   75   77 1    
   149   75  196 1    
   150   76  197 1    
   151   76  198 1    
   152   76  199 1    
   153   77   78 2    
   154   77   79 am   BACKBONE|DICT|INTERRES
   155   79   80 1    
   156   79  200 1    
   157   80   81 1    
   158   80   82 1    
   159   80  201 1    
   160   81  202 1    
   161   81  203 1    
   162   81  204 1    
   163   82   83 2    
   164   82   84 am   BACKBONE|DICT|INTERRES
   165   84   85 1    
   166   84  205 1    
   167   85   86 1    
   168   85   87 1    
   169   85  206 1    
   170   86  207 1    
   171   86  208 1    
   172   86  209 1    
   173   87   88 2    
   174   87   89 am   BACKBONE|DICT|INTERRES
   175   89   90 1    
   176   89  210 1    
   177   90   91 1    
   178   90   92 1    
   179   90  211 1    
   180   91  212 1    
   181   91  213 1    
   182   91  214 1    
   183   92   93 2    
   184   92   94 am   BACKBONE|DICT|INTERRES
   185   94   95 1    
   186   94  215 1    
   187   95   96 1    
   188   95   97 1    
   189   95  216 1    
   190   96  217 1    
   191   96  218 1    
   192   96  219 1    
   193   97   98 2    
   194   97   99 am   BACKBONE|DICT|INTERRES
   195   99  100 1    
   196   99  220 1    
   197  100  101 1    
   198  100  102 1    
   199  100  221 1    
   200  101  222 1    
   201  101  223 1    
   202  101  224 1    
   203  102  103 2    
   204  102  104 am   BACKBONE|DICT|INTERRES
   205  104  105 1    
   206  104  225 1    
   207  105  106 1    
   208  105  107 1    
   209  105  226 1    
   210  106  227 1    
   211  106  228 1    
   212  106  229 1    
   213  107  108 2    
   214  107  109 am   BACKBONE|DICT|INTERRES
   215  109  110 1    
   216  109  230 1    
   217  110  111 1    
   218  110  112 1    
   219  110  231 1    
   220  111  232 1    
   221  111  233 1    
   222  111  234 1    
   223  112  113 2    
   224  112  114 am   BACKBONE|DICT|INTERRES
   225  114  115 1    
   226  114  235 1    
   227  115  116 1    
   228  115  117 1    
   229  115  236 1    
   230  116  237 1    
   231  116  238 1    
   232  116  239 1    
   233  117  118 2    
   234  117  119 am   BACKBONE|DICT|INTERRES
   235  119  120 1    
   236  119  240 1    
   237  120  121 1    
   238  120  124 1    
   239  120  241 1    
   240  121  122 am   BACKBONE|DICT|INTERRES
   241  121  123 2    
   242  122  242 1    
   243  122  243 1    
   244  124  125 1    
   245  124  244 1    
   246  124  245 1    
   247  125  126 1    
   248  126  246 1    
   249  126  247 1    
@<TRIPOS>SUBSTRUCTURE
     1 UNK         1 GROUP             0       ****    0 ROOT    
