@<TRIPOS>MOLECULE
3R540
247   249    1
SMALL
USER_CHARGES


@<TRIPOS>ATOM
      1 CA         -3.4858  -14.7445  -47.3306 C.3       0 UNK        -0.1800 
      2 C          -2.7252  -13.5154  -47.8057 C.2       0 UNK         0.5000 
      3 O          -3.2895  -12.4214  -47.8376 O.2       0 UNK        -0.5000 
      4 N          -1.4516  -13.6925  -48.1777 N.am      1 UNK        -0.5000 
      5 CA         -0.5390  -12.6133  -48.5698 C.3       1 UNK         0.1400 
      6 C6          0.7060  -13.1491  -49.3184 C.3       23 UNK        -0.0398 
      7 S7          0.2755  -13.9467  -50.9010 S.3       23 UNK        -0.2404 
      8 C8          1.1377  -15.5541  -50.7805 C.3       23 UNK        -0.0205 
      9 C9          0.3930  -16.6648  -50.0365 C.ar      23 UNK        -0.0193 
     10 C10        -1.0017  -16.6757  -49.8963 C.ar      23 UNK        -0.1150 
     11 C11        -1.6517  -17.7508  -49.2820 C.ar      23 UNK        -0.0193 
     12 C12        -0.8974  -18.8277  -48.8112 C.ar      23 UNK        -0.1150 
     13 C13         0.4897  -18.8455  -48.9637 C.ar      23 UNK        -0.0193 
     14 C14         1.1291  -17.7549  -49.5589 C.ar      23 UNK        -0.1150 
     15 C15         1.2757  -20.0829  -48.5621 C.3       23 UNK        -0.0205 
     16 S16         1.3407  -20.2988  -46.7584 S.3       23 UNK        -0.2404 
     17 C17         1.8226  -22.0548  -46.6477 C.3       23 UNK        -0.0398 
     18 CA          0.6835  -23.0406  -46.2806 C.3       11 UNK         0.1400 
     19 N           0.3009  -22.9973  -44.8650 N.am      11 UNK        -0.5000 
     20 C          -0.2915  -24.0315  -44.2474 C.2       10 UNK         0.5000 
     21 O          -0.5705  -25.0890  -44.8137 O.2       10 UNK        -0.5000 
     22 CA         -0.6691  -23.8594  -42.7658 C.3       10 UNK         0.1400 
     23 CB          0.5383  -24.1543  -41.8637 C.3       10 UNK        -0.1800 
     24 N          -1.2091  -22.5413  -42.4356 N.am      10 UNK        -0.5000 
     25 C          -2.3038  -21.9915  -42.9775 C.2       9 UNK         0.5000 
     26 O          -2.9598  -22.5232  -43.8742 O.2       9 UNK        -0.5000 
     27 CA         -2.7448  -20.6138  -42.4394 C.3       9 UNK         0.1400 
     28 CB         -2.0862  -20.2225  -41.0970 C.3       9 UNK        -0.1800 
     29 N          -2.5595  -19.5422  -43.4231 N.am      9 UNK        -0.5000 
     30 C          -1.4182  -19.1990  -44.0382 C.2       8 UNK         0.5000 
     31 O          -0.3597  -19.8162  -43.8995 O.2       8 UNK        -0.5000 
     32 CA         -1.5029  -17.9815  -44.9865 C.3       8 UNK         0.1400 
     33 CB         -2.2492  -16.7863  -44.3522 C.3       8 UNK        -0.1800 
     34 N          -0.1975  -17.5655  -45.5076 N.am      8 UNK        -0.5000 
     35 C           0.8222  -17.0211  -44.8290 C.2       7 UNK         0.5000 
     36 O           0.7832  -16.7133  -43.6356 O.2       7 UNK        -0.5000 
     37 CA          2.0771  -16.7189  -45.6686 C.3       7 UNK         0.1400 
     38 CB          1.8277  -15.5041  -46.5749 C.3       7 UNK        -0.1800 
     39 N           3.2524  -16.4519  -44.8430 N.am      7 UNK        -0.5000 
     40 C           3.9980  -17.3885  -44.2427 C.2       6 UNK         0.5000 
     41 O           3.7868  -18.5975  -44.3407 O.2       6 UNK        -0.5000 
     42 CA          5.1912  -16.9029  -43.4024 C.3       6 UNK         0.1400 
     43 CB          6.3953  -16.5913  -44.3060 C.3       6 UNK        -0.1800 
     44 N           4.8572  -15.7093  -42.6255 N.am      6 UNK        -0.5000 
     45 C           4.9522  -15.6032  -41.2923 C.2       5 UNK         0.5000 
     46 O           5.3584  -16.5063  -40.5596 O.2       5 UNK        -0.5000 
     47 CA          4.5286  -14.2602  -40.6588 C.3       5 UNK         0.1400 
     48 CB          5.7577  -13.3718  -40.4123 C.3       5 UNK        -0.1800 
     49 N           3.5706  -13.5225  -41.4814 N.am      5 UNK        -0.5000 
     50 C           2.2995  -13.8910  -41.6861 C.2       4 UNK         0.5000 
     51 O           1.7491  -14.7899  -41.0499 O.2       4 UNK        -0.5000 
     52 CA          1.5133  -13.1480  -42.7879 C.3       4 UNK         0.1400 
     53 CB          0.3558  -12.3384  -42.1829 C.3       4 UNK        -0.1800 
     54 N           2.3068  -12.2540  -43.6402 N.am      4 UNK        -0.5000 
     55 C           3.3016  -12.5987  -44.4674 C.2       3 UNK         0.5000 
     56 O           3.7826  -13.7323  -44.5051 O.2       3 UNK        -0.5000 
     57 CA          3.8341  -11.4941  -45.4081 C.3       3 UNK         0.1400 
     58 CB          4.8842  -12.0269  -46.3996 C.3       3 UNK        -0.1800 
     59 N           2.7543  -10.8581  -46.1675 N.am      3 UNK        -0.5000 
     60 C           1.8863   -9.9552  -45.6911 C.2       2 UNK         0.5000 
     61 O           1.9494   -9.4926  -44.5511 O.2       2 UNK        -0.5000 
     62 CA          0.7283   -9.5309  -46.6165 C.3       2 UNK         0.1400 
     63 CB          1.0725   -8.2171  -47.3344 C.3       2 UNK        -0.1800 
     64 N           0.3402  -10.5339  -47.6160 N.am      2 UNK        -0.5000 
     65 C          -0.1225  -11.7642  -47.3477 C.2       1 UNK         0.5000 
     66 O          -0.2043  -12.2305  -46.2084 O.2       1 UNK        -0.5000 
     67 C          -0.5471  -22.9401  -47.2070 C.2       11 UNK         0.5000 
     68 O          -0.5568  -23.5753  -48.2599 O.2       11 UNK        -0.5000 
     69 N          -1.5782  -22.1919  -46.7818 N.am      12 UNK        -0.5000 
     70 CA         -2.8624  -22.0942  -47.4773 C.3       12 UNK         0.1400 
     71 CB         -3.7079  -20.9574  -46.8838 C.3       12 UNK        -0.1800 
     72 C          -3.6296  -23.4236  -47.4287 C.2       12 UNK         0.5000 
     73 O          -4.1782  -23.8412  -48.4472 O.2       12 UNK        -0.5000 
     74 N          -3.6112  -24.0834  -46.2619 N.am      13 UNK        -0.5000 
     75 CA         -4.1747  -25.4154  -46.0490 C.3       13 UNK         0.1400 
     76 CB         -4.1280  -25.7639  -44.5538 C.3       13 UNK        -0.1800 
     77 C          -3.4703  -26.4925  -46.8941 C.2       13 UNK         0.5000 
     78 O          -4.1503  -27.2952  -47.5332 O.2       13 UNK        -0.5000 
     79 N          -2.1294  -26.4594  -46.9282 N.am      14 UNK        -0.5000 
     80 CA         -1.2946  -27.3445  -47.7471 C.3       14 UNK         0.1400 
     81 CB          0.1827  -27.1403  -47.3802 C.3       14 UNK        -0.1800 
     82 C          -1.5096  -27.1495  -49.2611 C.2       14 UNK         0.5000 
     83 O          -1.5290  -28.1297  -50.0059 O.2       14 UNK        -0.5000 
     84 N          -1.7031  -25.8924  -49.6804 N.am      15 UNK        -0.5000 
     85 CA         -2.0332  -25.4970  -51.0508 C.3       15 UNK         0.1400 
     86 CB         -1.7174  -24.0012  -51.2078 C.3       15 UNK        -0.1800 
     87 C          -3.5009  -25.7670  -51.4431 C.2       15 UNK         0.5000 
     88 O          -3.8489  -25.5862  -52.6122 O.2       15 UNK        -0.5000 
     89 N          -4.3416  -26.1332  -50.4616 N.am      16 UNK        -0.5000 
     90 CA         -5.7984  -26.2902  -50.5431 C.3       16 UNK         0.1400 
     91 CB         -6.1597  -27.5347  -51.3790 C.3       16 UNK        -0.1800 
     92 C          -6.4965  -25.0060  -51.0413 C.2       16 UNK         0.5000 
     93 O          -7.4555  -25.0800  -51.8123 O.2       16 UNK        -0.5000 
     94 N          -5.9475  -23.8498  -50.6379 N.am      17 UNK        -0.5000 
     95 CA         -6.2068  -22.4764  -51.0836 C.3       17 UNK         0.1400 
     96 CB         -7.6496  -22.0440  -50.7615 C.3       17 UNK        -0.1800 
     97 C          -5.8652  -22.2106  -52.5645 C.2       17 UNK         0.5000 
     98 O          -5.2308  -21.2001  -52.8672 O.2       17 UNK        -0.5000 
     99 N          -6.2973  -23.1096  -53.4550 N.am      18 UNK        -0.5000 
    100 CA        -6.2468  -22.9971  -54.9093 C.3       18 UNK         0.1400 
    101 CB        -6.9621  -24.2071  -55.5288 C.3       18 UNK        -0.1800 
    102 C         -4.8340  -22.8487  -55.4957 C.2       18 UNK         0.5000 
    103 O         -4.6405  -22.0016  -56.3680 O.2       18 UNK        -0.5000 
    104 N         -3.8695  -23.6494  -55.0165 N.am      19 UNK        -0.5000 
    105 CA        -2.5067  -23.6725  -55.5649 C.3       19 UNK         0.1400 
    106 CB        -1.7868  -24.9569  -55.1267 C.3       19 UNK        -0.1800 
    107 C         -1.6765  -22.4224  -55.2111 C.2       19 UNK         0.5000 
    108 O         -0.7339  -22.0998  -55.9348 O.2       19 UNK        -0.5000 
    109 N         -2.0511  -21.7364  -54.1243 N.am      20 UNK        -0.5000 
    110 CA        -1.4582  -20.4740  -53.6788 C.3       20 UNK         0.1400 
    111 CB        -1.2661  -20.5377  -52.1551 C.3       20 UNK        -0.1800 
    112 C         -2.3056  -19.2528  -54.0954 C.2       20 UNK         0.5000 
    113 O         -1.8682  -18.1210  -53.8866 O.2       20 UNK        -0.5000 
    114 N         -3.4854  -19.5011  -54.6872 N.am      21 UNK        -0.5000 
    115 CA        -4.4944  -18.5351  -55.1324 C.3       21 UNK         0.1400 
    116 CB        -3.9715  -17.7146  -56.3298 C.3       21 UNK        -0.1800 
    117 C         -5.0403  -17.6601  -53.9831 C.2       21 UNK         0.5000 
    118 O         -5.2231  -16.4528  -54.1545 O.2       21 UNK        -0.5000 
    119 N         -5.2758  -18.2871  -52.8246 N.am      22 UNK        -0.5000 
    120 CA        -5.7869  -17.6401  -51.6075 C.3       22 UNK         0.1400 
    121 C         -7.2697  -17.1978  -51.7455 C.2       22 UNK         0.5000 
    122 N         -7.6398  -16.0578  -51.1779 N.am      22 UNK        -0.7600 
    123 O         -8.0975  -17.8997  -52.3226 O.2       22 UNK        -0.5000 
    124 C124       -5.6077  -18.5307  -50.3510 C.3       23 UNK        -0.0398 
    125 S125       -3.8973  -19.1195  -50.1348 S.3       23 UNK        -0.2404 
    126 C126       -3.1691  -17.7664  -49.1642 C.3       23 UNK        -0.0205 
    127 H127       -3.9055  -14.5660  -46.3407 H         1 UNK         0.0600 
    128 H128       -4.3053  -14.9680  -48.0133 H         1 UNK         0.0600 
    129 H129       -2.8371  -15.6176  -47.2695 H         1 UNK         0.0600 
    130 H130       -1.0415  -14.6124  -48.1259 H         1 UNK         0.3000 
    131 H131       -1.0810  -11.9526  -49.2504 H         1 UNK         0.0600 
    132 H132        1.2660  -13.8414  -48.6924 H         1 UNK         0.0800 
    133 H133        1.3948  -12.3362  -49.5542 H         1 UNK         0.0800 
    134 H134        1.3202  -15.9080  -51.7958 H         1 UNK         0.0800 
    135 H135        2.1212  -15.3970  -50.3347 H         1 UNK         0.0800 
    136 H136       -1.5928  -15.8634  -50.2933 H         1 UNK         0.1150 
    137 H137       -1.3930  -19.6783  -48.3686 H         1 UNK         0.1150 
    138 H138        2.2016  -17.7747  -49.6933 H         1 UNK         0.1150 
    139 H139        0.8048  -20.9526  -49.0230 H         1 UNK         0.0800 
    140 H140        2.2936  -20.0417  -48.9527 H         1 UNK         0.0800 
    141 H141        2.2742  -22.3576  -47.5938 H         1 UNK         0.0800 
    142 H142        2.6244  -22.1348  -45.9125 H         1 UNK         0.0800 
    143 H143        1.1029  -24.0338  -46.4559 H         1 UNK         0.0600 
    144 H144        0.4574  -22.1305  -44.3659 H         1 UNK         0.3000 
    145 H145       -1.4458  -24.5934  -42.5416 H         1 UNK         0.0600 
    146 H146        0.2573  -24.1396  -40.8105 H         1 UNK         0.0600 
    147 H147        0.9516  -25.1417  -42.0744 H         1 UNK         0.0600 
    148 H148        1.3371  -23.4259  -42.0090 H         1 UNK         0.0600 
    149 H149       -0.7120  -22.0139  -41.7330 H         1 UNK         0.3000 
    150 H150       -3.8189  -20.6915  -42.2652 H         1 UNK         0.0600 
    151 H151       -2.2489  -20.9894  -40.3385 H         1 UNK         0.0600 
    152 H152       -2.5158  -19.2978  -40.7114 H         1 UNK         0.0600 
    153 H153       -1.0110  -20.0669  -41.1919 H         1 UNK         0.0600 
    154 H154       -3.3900  -19.0061  -43.6296 H         1 UNK         0.3000 
    155 H155       -2.0713  -18.3012  -45.8590 H         1 UNK         0.0600 
    156 H156       -2.1418  -15.8848  -44.9543 H         1 UNK         0.0600 
    157 H157       -1.8737  -16.5588  -43.3538 H         1 UNK         0.0600 
    158 H158       -3.3169  -16.9871  -44.2622 H         1 UNK         0.0600 
    159 H159       -0.0280  -17.8225  -46.4701 H         1 UNK         0.3000 
    160 H160        2.2905  -17.5803  -46.3034 H         1 UNK         0.0600 
    161 H161        1.5566  -14.6188  -45.9986 H         1 UNK         0.0600 
    162 H162        1.0116  -15.7025  -47.2694 H         1 UNK         0.0600 
    163 H163        2.7104  -15.2645  -47.1680 H         1 UNK         0.0600 
    164 H164        3.4817  -15.4704  -44.7087 H         1 UNK         0.3000 
    165 H165        5.4704  -17.7248  -42.7399 H         1 UNK         0.0600 
    166 H166        6.1841  -15.7661  -44.9877 H         1 UNK         0.0600 
    167 H167        7.2701  -16.3207  -43.7146 H         1 UNK         0.0600 
    168 H168        6.6658  -17.4580  -44.9105 H         1 UNK         0.0600 
    169 H169        4.4942  -14.9206  -43.1513 H         1 UNK         0.3000 
    170 H170        4.0629  -14.4780  -39.6954 H         1 UNK         0.0600 
    171 H171        6.4849  -13.8794  -39.7772 H         1 UNK         0.0600 
    172 H172        6.2606  -13.1128  -41.3449 H         1 UNK         0.0600 
    173 H173        5.4806  -12.4447  -39.9102 H         1 UNK         0.0600 
    174 H174        3.9362  -12.7629  -42.0358 H         1 UNK         0.3000 
    175 H175        1.0857  -13.9145  -43.4371 H         1 UNK         0.0600 
    176 H176        0.7210  -11.5333  -41.5443 H         1 UNK         0.0600 
    177 H177       -0.2630  -11.8952  -42.9637 H         1 UNK         0.0600 
    178 H178       -0.2937  -12.9718  -41.5774 H         1 UNK         0.0600 
    179 H179        1.9960  -11.2890  -43.6831 H         1 UNK         0.3000 
    180 H180        4.3168  -10.7411  -44.7819 H         1 UNK         0.0600 
    181 H181        4.4686  -12.7972  -47.0508 H         1 UNK         0.0600 
    182 H182        5.7338  -12.4645  -45.8737 H         1 UNK         0.0600 
    183 H183        5.2728  -11.2273  -47.0305 H         1 UNK         0.0600 
    184 H184        2.6080  -11.1994  -47.1052 H         1 UNK         0.3000 
    185 H185       -0.1407   -9.3529  -45.9797 H         1 UNK         0.0600 
    186 H186        1.3396   -7.4382  -46.6187 H         1 UNK         0.0600 
    187 H187        1.9155   -8.3398  -48.0155 H         1 UNK         0.0600 
    188 H188        0.2243   -7.8474  -47.9110 H         1 UNK         0.0600 
    189 H189        0.3779  -10.2285  -48.5780 H         1 UNK         0.3000 
    190 H190       -1.5074  -21.7460  -45.8788 H         1 UNK         0.3000 
    191 H191       -2.6651  -21.8578  -48.5252 H         1 UNK         0.0600 
    192 H192       -4.6444  -20.8473  -47.4322 H         1 UNK         0.0600 
    193 H193       -3.1885  -20.0045  -46.9442 H         1 UNK         0.0600 
    194 H194       -3.9617  -21.1344  -45.8393 H         1 UNK         0.0600 
    195 H195       -3.1849  -23.6331  -45.4570 H         1 UNK         0.3000 
    196 H196       -5.2220  -25.3841  -46.3566 H         1 UNK         0.0600 
    197 H197       -4.5796  -26.7387  -44.3664 H         1 UNK         0.0600 
    198 H198       -4.6765  -25.0310  -43.9617 H         1 UNK         0.0600 
    199 H199       -3.1058  -25.7979  -44.1772 H         1 UNK         0.0600 
    200 H200       -1.6411  -25.7997  -46.3301 H         1 UNK         0.3000 
    201 H201       -1.5656  -28.3740  -47.5042 H         1 UNK         0.0600 
    202 H202        0.3576  -27.3351  -46.3220 H         1 UNK         0.0600 
    203 H203        0.5124  -26.1234  -47.5932 H         1 UNK         0.0600 
    204 H204        0.8228  -27.8182  -47.9462 H         1 UNK         0.0600 
    205 H205       -1.5965  -25.1351  -49.0130 H         1 UNK         0.3000 
    206 H206       -1.4011  -26.0593  -51.7408 H         1 UNK         0.0600 
    207 H207       -0.6595  -23.8005  -51.0386 H         1 UNK         0.0600 
    208 H208       -1.9569  -23.6483  -52.2081 H         1 UNK         0.0600 
    209 H209       -2.2906  -23.3934  -50.5072 H         1 UNK         0.0600 
    210 H210       -3.9545  -26.2306  -49.5317 H         1 UNK         0.3000 
    211 H211       -6.1492  -26.4561  -49.5237 H         1 UNK         0.0600 
    212 H212       -5.8824  -27.4131  -52.4266 H         1 UNK         0.0600 
    213 H213       -7.2318  -27.7317  -51.3446 H         1 UNK         0.0600 
    214 H214       -5.6548  -28.4229  -50.9993 H         1 UNK         0.0600 
    215 H215       -5.1863  -23.9272  -49.9646 H         1 UNK         0.3000 
    216 H216       -5.5356  -21.8491  -50.4949 H         1 UNK         0.0600 
    217 H217       -8.3871  -22.6621  -51.2734 H         1 UNK         0.0600 
    218 H218       -7.8299  -21.0137  -51.0696 H         1 UNK         0.0600 
    219 H219       -7.8469  -22.1043  -49.6913 H         1 UNK         0.0600 
    220 H220       -6.7934  -23.9144  -53.0800 H         1 UNK         0.3000 
    221 H221       -6.8063  -22.0994  -55.1801 H         1 UNK         0.0600 
    222 H222       -6.4827  -25.1450  -55.2449 H         1 UNK         0.0600 
    223 H223       -8.0035  -24.2547  -55.2101 H         1 UNK         0.0600 
    224 H224       -6.9582  -24.1506  -56.6182 H         1 UNK         0.0600 
    225 H225       -4.0818  -24.3104  -54.2753 H         1 UNK         0.3000 
    226 H226       -2.5877  -23.7025  -56.6538 H         1 UNK         0.0600 
    227 H227       -2.3620  -25.8435  -55.3939 H         1 UNK         0.0600 
    228 H228       -0.8145  -25.0416  -55.6134 H         1 UNK         0.0600 
    229 H229       -1.6134  -24.9819  -54.0529 H         1 UNK         0.0600 
    230 H230       -2.8536  -22.0634  -53.6045 H         1 UNK         0.3000 
    231 H231       -0.4735  -20.3376  -54.1301 H         1 UNK         0.0600 
    232 H232       -2.1856  -20.8285  -51.6489 H         1 UNK         0.0600 
    233 H233       -0.4989  -21.2640  -51.8876 H         1 UNK         0.0600 
    234 H234       -0.9528  -19.5743  -51.7502 H         1 UNK         0.0600 
    235 H235       -3.7462  -20.4696  -54.8111 H         1 UNK         0.3000 
    236 H236       -5.3400  -19.1270  -55.4859 H         1 UNK         0.0600 
    237 H237       -3.6187  -18.3666  -57.1289 H         1 UNK         0.0600 
    238 H238       -4.7597  -17.0877  -56.7480 H         1 UNK         0.0600 
    239 H239       -3.1490  -17.0585  -56.0437 H         1 UNK         0.0600 
    240 H240       -5.1251  -19.2909  -52.7726 H         1 UNK         0.3000 
    241 H241       -5.1871  -16.7403  -51.4579 H         1 UNK         0.0600 
    242 H242       -6.9819  -15.4645  -50.6966 H         1 UNK         0.3800 
    243 H243       -8.6033  -15.7686  -51.2479 H         1 UNK         0.3800 
    244 H244       -5.9144  -17.9960  -49.4503 H         1 UNK         0.0800 
    245 H245       -6.2516  -19.4071  -50.4145 H         1 UNK         0.0800 
    246 H246       -3.4602  -17.8712  -48.1189 H         1 UNK         0.0800 
    247 H247       -3.5810  -16.8188  -49.5123 H         1 UNK         0.0800 
@<TRIPOS>BOND
     1    1    2 1    
     2    1  127 1    
     3    1  128 1    
     4    1  129 1    
     5    2    3 2    
     6    2    4 am   BACKBONE|DICT|INTERRES
     7    4    5 1    
     8    4  130 1    
     9    5    6 1    
    10    5   65 1    
    11    5  131 1    
    12    6    7 1    
    13    6  132 1    
    14    6  133 1    
    15    7    8 1    
    16    8    9 1    
    17    8  134 1    
    18    8  135 1    
    19    9   10 ar   
    20    9   14 ar   
    21   10   11 ar   
    22   10  136 1    
    23   11   12 ar   
    24   11  126 1    
    25   12   13 ar   
    26   12  137 1    
    27   13   14 ar   
    28   13   15 1    
    29   14  138 1    
    30   15   16 1    
    31   15  139 1    
    32   15  140 1    
    33   16   17 1    
    34   17   18 1    
    35   17  141 1    
    36   17  142 1    
    37   18   19 1    
    38   18   67 1    
    39   18  143 1    
    40   19   20 am   BACKBONE|DICT|INTERRES
    41   19  144 1    
    42   20   21 2    
    43   20   22 1    
    44   22   23 1    
    45   22   24 1    
    46   22  145 1    
    47   23  146 1    
    48   23  147 1    
    49   23  148 1    
    50   24   25 am   BACKBONE|DICT|INTERRES
    51   24  149 1    
    52   25   26 2    
    53   25   27 1    
    54   27   28 1    
    55   27   29 1    
    56   27  150 1    
    57   28  151 1    
    58   28  152 1    
    59   28  153 1    
    60   29   30 am   BACKBONE|DICT|INTERRES
    61   29  154 1    
    62   30   31 2    
    63   30   32 1    
    64   32   33 1    
    65   32   34 1    
    66   32  155 1    
    67   33  156 1    
    68   33  157 1    
    69   33  158 1    
    70   34   35 am   BACKBONE|DICT|INTERRES
    71   34  159 1    
    72   35   36 2    
    73   35   37 1    
    74   37   38 1    
    75   37   39 1    
    76   37  160 1    
    77   38  161 1    
    78   38  162 1    
    79   38  163 1    
    80   39   40 am   BACKBONE|DICT|INTERRES
    81   39  164 1    
    82   40   41 2    
    83   40   42 1    
    84   42   43 1    
    85   42   44 1    
    86   42  165 1    
    87   43  166 1    
    88   43  167 1    
    89   43  168 1    
    90   44   45 am   BACKBONE|DICT|INTERRES
    91   44  169 1    
    92   45   46 2    
    93   45   47 1    
    94   47   48 1    
    95   47   49 1    
    96   47  170 1    
    97   48  171 1    
    98   48  172 1    
    99   48  173 1    
   100   49   50 am   BACKBONE|DICT|INTERRES
   101   49  174 1    
   102   50   51 2    
   103   50   52 1    
   104   52   53 1    
   105   52   54 1    
   106   52  175 1    
   107   53  176 1    
   108   53  177 1    
   109   53  178 1    
   110   54   55 am   BACKBONE|DICT|INTERRES
   111   54  179 1    
   112   55   56 2    
   113   55   57 1    
   114   57   58 1    
   115   57   59 1    
   116   57  180 1    
   117   58  181 1    
   118   58  182 1    
   119   58  183 1    
   120   59   60 am   BACKBONE|DICT|INTERRES
   121   59  184 1    
   122   60   61 2    
   123   60   62 1    
   124   62   63 1    
   125   62   64 1    
   126   62  185 1    
   127   63  186 1    
   128   63  187 1    
   129   63  188 1    
   130   64   65 am   BACKBONE|DICT|INTERRES
   131   64  189 1    
   132   65   66 2    
   133   67   68 2    
   134   67   69 am   BACKBONE|DICT|INTERRES
   135   69   70 1    
   136   69  190 1    
   137   70   71 1    
   138   70   72 1    
   139   70  191 1    
   140   71  192 1    
   141   71  193 1    
   142   71  194 1    
   143   72   73 2    
   144   72   74 am   BACKBONE|DICT|INTERRES
   145   74   75 1    
   146   74  195 1    
   147   75   76 1    
   148   75   77 1    
   149   75  196 1    
   150   76  197 1    
   151   76  198 1    
   152   76  199 1    
   153   77   78 2    
   154   77   79 am   BACKBONE|DICT|INTERRES
   155   79   80 1    
   156   79  200 1    
   157   80   81 1    
   158   80   82 1    
   159   80  201 1    
   160   81  202 1    
   161   81  203 1    
   162   81  204 1    
   163   82   83 2    
   164   82   84 am   BACKBONE|DICT|INTERRES
   165   84   85 1    
   166   84  205 1    
   167   85   86 1    
   168   85   87 1    
   169   85  206 1    
   170   86  207 1    
   171   86  208 1    
   172   86  209 1    
   173   87   88 2    
   174   87   89 am   BACKBONE|DICT|INTERRES
   175   89   90 1    
   176   89  210 1    
   177   90   91 1    
   178   90   92 1    
   179   90  211 1    
   180   91  212 1    
   181   91  213 1    
   182   91  214 1    
   183   92   93 2    
   184   92   94 am   BACKBONE|DICT|INTERRES
   185   94   95 1    
   186   94  215 1    
   187   95   96 1    
   188   95   97 1    
   189   95  216 1    
   190   96  217 1    
   191   96  218 1    
   192   96  219 1    
   193   97   98 2    
   194   97   99 am   BACKBONE|DICT|INTERRES
   195   99  100 1    
   196   99  220 1    
   197  100  101 1    
   198  100  102 1    
   199  100  221 1    
   200  101  222 1    
   201  101  223 1    
   202  101  224 1    
   203  102  103 2    
   204  102  104 am   BACKBONE|DICT|INTERRES
   205  104  105 1    
   206  104  225 1    
   207  105  106 1    
   208  105  107 1    
   209  105  226 1    
   210  106  227 1    
   211  106  228 1    
   212  106  229 1    
   213  107  108 2    
   214  107  109 am   BACKBONE|DICT|INTERRES
   215  109  110 1    
   216  109  230 1    
   217  110  111 1    
   218  110  112 1    
   219  110  231 1    
   220  111  232 1    
   221  111  233 1    
   222  111  234 1    
   223  112  113 2    
   224  112  114 am   BACKBONE|DICT|INTERRES
   225  114  115 1    
   226  114  235 1    
   227  115  116 1    
   228  115  117 1    
   229  115  236 1    
   230  116  237 1    
   231  116  238 1    
   232  116  239 1    
   233  117  118 2    
   234  117  119 am   BACKBONE|DICT|INTERRES
   235  119  120 1    
   236  119  240 1    
   237  120  121 1    
   238  120  124 1    
   239  120  241 1    
   240  121  122 am   BACKBONE|DICT|INTERRES
   241  121  123 2    
   242  122  242 1    
   243  122  243 1    
   244  124  125 1    
   245  124  244 1    
   246  124  245 1    
   247  125  126 1    
   248  126  246 1    
   249  126  247 1    
@<TRIPOS>SUBSTRUCTURE
     1 UNK         1 GROUP             0       ****    0 ROOT    
