@<TRIPOS>MOLECULE
3R540
247   249    1
SMALL
USER_CHARGES


@<TRIPOS>ATOM
      1 CA         -3.9909  -14.8487  -46.8818 C.3       0 UNK        -0.1800 
      2 C          -2.6327  -14.9465  -47.5614 C.2       0 UNK         0.5000 
      3 O          -1.8943  -15.9026  -47.3286 O.2       0 UNK        -0.5000 
      4 N          -2.2920  -13.9444  -48.3823 N.am      1 UNK        -0.5000 
      5 CA         -1.0577  -13.7897  -49.1692 C.3       1 UNK         0.1400 
      6 C6         -0.8480  -14.9240  -50.2080 C.3       23 UNK        -0.0398 
      7 S7          0.1380  -14.3604  -51.6376 S.3       23 UNK        -0.2404 
      8 C8          0.1023  -15.8299  -52.7212 C.3       23 UNK        -0.0205 
      9 C9          0.8217  -17.0680  -52.1838 C.ar      23 UNK        -0.0193 
     10 C10         0.4674  -18.3193  -52.6947 C.ar      23 UNK        -0.1150 
     11 C11         1.0744  -19.4878  -52.2264 C.ar      23 UNK        -0.0193 
     12 C12         2.0737  -19.3974  -51.2544 C.ar      23 UNK        -0.1150 
     13 C13         2.4311  -18.1566  -50.7215 C.ar      23 UNK        -0.0193 
     14 C14         1.8203  -16.9967  -51.2049 C.ar      23 UNK        -0.1150 
     15 C15         3.4328  -18.0641  -49.5797 C.3       23 UNK        -0.0205 
     16 S16         2.8672  -18.9238  -48.0713 S.3       23 UNK        -0.2404 
     17 C17         1.1222  -18.3995  -47.9038 C.3       23 UNK        -0.0398 
     18 CA          0.1596  -19.5993  -48.0681 C.3       11 UNK         0.1400 
     19 N           0.3316  -20.5876  -46.9918 N.am      11 UNK        -0.5000 
     20 C          -0.2265  -21.8079  -46.9675 C.2       10 UNK         0.5000 
     21 O          -0.9572  -22.2313  -47.8612 O.2       10 UNK        -0.5000 
     22 CA          0.0220  -22.6904  -45.7272 C.3       10 UNK         0.1400 
     23 CB          1.1382  -23.7064  -46.0006 C.3       10 UNK        -0.1800 
     24 N           0.3482  -21.9377  -44.5151 N.am      10 UNK        -0.5000 
     25 C          -0.4918  -21.1075  -43.8828 C.2       9 UNK         0.5000 
     26 O          -1.6440  -20.8899  -44.2557 O.2       9 UNK        -0.5000 
     27 CA          0.0590  -20.3573  -42.6546 C.3       9 UNK         0.1400 
     28 CB         -0.2547  -21.1246  -41.3624 C.3       9 UNK        -0.1800 
     29 N           1.4961  -20.0603  -42.6996 N.am      9 UNK        -0.5000 
     30 C           2.1286  -19.3889  -43.6732 C.2       8 UNK         0.5000 
     31 O           1.5739  -19.0097  -44.7048 O.2       8 UNK        -0.5000 
     32 CA          3.6037  -19.0522  -43.4083 C.3       8 UNK         0.1400 
     33 CB          4.2379  -18.2062  -44.5265 C.3       8 UNK        -0.1800 
     34 N           3.6891  -18.3083  -42.1566 N.am      8 UNK        -0.5000 
     35 C           4.5290  -18.5613  -41.1455 C.2       7 UNK         0.5000 
     36 O           5.3088  -19.5153  -41.1309 O.2       7 UNK        -0.5000 
     37 CA          4.4797  -17.5788  -39.9535 C.3       7 UNK         0.1400 
     38 CB          5.7478  -17.6220  -39.0756 C.3       7 UNK        -0.1800 
     39 N           4.1682  -16.2049  -40.3647 N.am      7 UNK        -0.5000 
     40 C           4.8792  -15.4143  -41.1857 C.2       6 UNK         0.5000 
     41 O           5.9916  -15.7091  -41.6245 O.2       6 UNK        -0.5000 
     42 CA          4.2291  -14.0867  -41.6275 C.3       6 UNK         0.1400 
     43 CB          4.1505  -14.0199  -43.1603 C.3       6 UNK        -0.1800 
     44 N           2.8736  -13.9344  -41.0971 N.am      6 UNK        -0.5000 
     45 C           2.5417  -13.2215  -40.0128 C.2       5 UNK         0.5000 
     46 O           3.3419  -12.5458  -39.3653 O.2       5 UNK        -0.5000 
     47 CA          1.0710  -13.3016  -39.5527 C.3       5 UNK         0.1400 
     48 CB          0.2498  -12.1671  -40.1837 C.3       5 UNK        -0.1800 
     49 N           0.4320  -14.5820  -39.8685 N.am      5 UNK        -0.5000 
     50 C           0.8048  -15.7743  -39.3814 C.2       4 UNK         0.5000 
     51 O           1.7010  -15.9211  -38.5514 O.2       4 UNK        -0.5000 
     52 CA          0.1124  -17.0205  -39.9668 C.3       4 UNK         0.1400 
     53 CB         -1.0205  -17.4962  -39.0464 C.3       4 UNK        -0.1800 
     54 N          -0.4186  -16.8258  -41.3188 N.am      4 UNK        -0.5000 
     55 C           0.3117  -16.5335  -42.4037 C.2       3 UNK         0.5000 
     56 O           1.5363  -16.3827  -42.3668 O.2       3 UNK        -0.5000 
     57 CA         -0.4612  -16.4368  -43.7373 C.3       3 UNK         0.1400 
     58 CB         -1.8282  -15.7358  -43.5849 C.3       3 UNK        -0.1800 
     59 N           0.3002  -15.8249  -44.8289 N.am      3 UNK        -0.5000 
     60 C           0.8153  -14.5871  -44.8772 C.2       2 UNK         0.5000 
     61 O           0.7597  -13.7712  -43.9563 O.2       2 UNK        -0.5000 
     62 CA          1.4185  -14.1709  -46.2261 C.3       2 UNK         0.1400 
     63 CB          2.6661  -14.9914  -46.6025 C.3       2 UNK        -0.1800 
     64 N           0.3892  -14.3228  -47.2491 N.am      2 UNK        -0.5000 
     65 C           0.2054  -13.5323  -48.3095 C.2       1 UNK         0.5000 
     66 O           0.9600  -12.6034  -48.6015 O.2       1 UNK        -0.5000 
     67 C          -1.3004  -19.1184  -48.2120 C.2       11 UNK         0.5000 
     68 O          -1.6924  -18.6775  -49.2935 O.2       11 UNK        -0.5000 
     69 N          -2.0975  -19.2624  -47.1422 N.am      12 UNK        -0.5000 
     70 CA         -3.5259  -18.9594  -47.1266 C.3       12 UNK         0.1400 
     71 CB         -4.0167  -18.8975  -45.6733 C.3       12 UNK        -0.1800 
     72 C          -4.3781  -19.9361  -47.9607 C.2       12 UNK         0.5000 
     73 O          -5.5404  -19.6270  -48.2172 O.2       12 UNK        -0.5000 
     74 N          -3.8086  -21.0678  -48.4078 N.am      13 UNK        -0.5000 
     75 CA         -4.4619  -22.0159  -49.3148 C.3       13 UNK         0.1400 
     76 CB         -3.5647  -23.2459  -49.5109 C.3       13 UNK        -0.1800 
     77 C          -4.8315  -21.3857  -50.6723 C.2       13 UNK         0.5000 
     78 O          -5.8995  -21.6807  -51.2100 O.2       13 UNK        -0.5000 
     79 N          -3.9797  -20.4803  -51.1728 N.am      14 UNK        -0.5000 
     80 CA         -4.2380  -19.7066  -52.3854 C.3       14 UNK         0.1400 
     81 CB         -2.9530  -18.9986  -52.8250 C.3       14 UNK        -0.1800 
     82 C          -5.3884  -18.7015  -52.2039 C.2       14 UNK         0.5000 
     83 O          -6.2280  -18.5757  -53.0951 O.2       14 UNK        -0.5000 
     84 N          -5.4395  -18.0471  -51.0344 N.am      15 UNK        -0.5000 
     85 CA         -6.5115  -17.1278  -50.6403 C.3       15 UNK         0.1400 
     86 CB         -6.0823  -16.3492  -49.3880 C.3       15 UNK        -0.1800 
     87 C          -7.8571  -17.8470  -50.4159 C.2       15 UNK         0.5000 
     88 O          -8.9080  -17.2854  -50.7247 O.2       15 UNK        -0.5000 
     89 N          -7.7941  -19.0968  -49.9370 N.am      16 UNK        -0.5000 
     90 CA         -8.9198  -20.0244  -49.7998 C.3       16 UNK         0.1400 
     91 CB         -8.5351  -21.1190  -48.7909 C.3       16 UNK        -0.1800 
     92 C          -9.3805  -20.6475  -51.1377 C.2       16 UNK         0.5000 
     93 O         -10.3338  -21.4273  -51.1351 O.2       16 UNK        -0.5000 
     94 N          -8.7097  -20.2984  -52.2460 N.am      17 UNK        -0.5000 
     95 CA         -8.9753  -20.7089  -53.6270 C.3       17 UNK         0.1400 
     96 CB        -10.3895  -20.2878  -54.0806 C.3       17 UNK        -0.1800 
     97 C          -8.6601  -22.1913  -53.9147 C.2       17 UNK         0.5000 
     98 O          -9.2203  -22.7614  -54.8525 O.2       17 UNK        -0.5000 
     99 N          -7.7285  -22.7801  -53.1504 N.am      18 UNK        -0.5000 
    100 CA        -7.1569  -24.1041  -53.4207 C.3       18 UNK         0.1400 
    101 CB        -6.7412  -24.7589  -52.0936 C.3       18 UNK        -0.1800 
    102 C         -5.9666  -24.0363  -54.4032 C.2       18 UNK         0.5000 
    103 O         -5.4446  -25.0834  -54.7870 O.2       18 UNK        -0.5000 
    104 N         -5.5678  -22.8151  -54.7945 N.am      19 UNK        -0.5000 
    105 CA        -4.4585  -22.4739  -55.6879 C.3       19 UNK         0.1400 
    106 CB        -4.7159  -23.0022  -57.1176 C.3       19 UNK        -0.1800 
    107 C         -3.1015  -22.8880  -55.0843 C.2       19 UNK         0.5000 
    108 O         -2.8732  -22.6396  -53.8996 O.2       19 UNK        -0.5000 
    109 N         -2.2239  -23.5068  -55.8849 N.am      20 UNK        -0.5000 
    110 CA        -0.8686  -23.9374  -55.5233 C.3       20 UNK         0.1400 
    111 CB        -0.0517  -24.1188  -56.8153 C.3       20 UNK        -0.1800 
    112 C         -0.8248  -25.1889  -54.6131 C.2       20 UNK         0.5000 
    113 O          0.0290  -26.0586  -54.7923 O.2       20 UNK        -0.5000 
    114 N         -1.7314  -25.2483  -53.6327 N.am      21 UNK        -0.5000 
    115 CA        -1.8155  -26.2754  -52.5925 C.3       21 UNK         0.1400 
    116 CB        -3.2946  -26.4553  -52.2142 C.3       21 UNK        -0.1800 
    117 C         -0.9587  -25.9289  -51.3548 C.2       21 UNK         0.5000 
    118 O         -0.9935  -26.6622  -50.3664 O.2       21 UNK        -0.5000 
    119 N         -0.2199  -24.8148  -51.4251 N.am      22 UNK        -0.5000 
    120 CA         0.5916  -24.2181  -50.3521 C.3       22 UNK         0.1400 
    121 C          1.8406  -25.0419  -49.9118 C.2       22 UNK         0.5000 
    122 N          2.2044  -26.1247  -50.5875 N.am      22 UNK        -0.7600 
    123 O          2.5040  -24.6833  -48.9440 O.2       22 UNK        -0.5000 
    124 C124        1.0090  -22.7587  -50.6902 C.3       23 UNK        -0.0398 
    125 S125       -0.3100  -21.7582  -51.4737 S.3       23 UNK        -0.2404 
    126 C126        0.6222  -20.8440  -52.7465 C.3       23 UNK        -0.0205 
    127 H127       -4.6875  -14.2493  -47.4681 H         1 UNK         0.0600 
    128 H128       -3.8870  -14.3887  -45.8995 H         1 UNK         0.0600 
    129 H129       -4.4259  -15.8386  -46.7495 H         1 UNK         0.0600 
    130 H130       -2.9426  -13.1778  -48.4848 H         1 UNK         0.3000 
    131 H131       -1.2296  -12.8673  -49.7270 H         1 UNK         0.0600 
    132 H132       -0.3881  -15.8021  -49.7522 H         1 UNK         0.0800 
    133 H133       -1.8125  -15.2596  -50.5919 H         1 UNK         0.0800 
    134 H134       -0.9406  -16.0728  -52.9320 H         1 UNK         0.0800 
    135 H135        0.5553  -15.5617  -53.6763 H         1 UNK         0.0800 
    136 H136       -0.2968  -18.3822  -53.4553 H         1 UNK         0.1150 
    137 H137        2.5402  -20.2949  -50.8749 H         1 UNK         0.1150 
    138 H138        2.1107  -16.0417  -50.7924 H         1 UNK         0.1150 
    139 H139        4.3829  -18.4941  -49.8991 H         1 UNK         0.0800 
    140 H140        3.6366  -17.0224  -49.3269 H         1 UNK         0.0800 
    141 H141        0.9860  -17.9366  -46.9280 H         1 UNK         0.0800 
    142 H142        0.8995  -17.6145  -48.6262 H         1 UNK         0.0800 
    143 H143        0.4024  -20.0981  -49.0072 H         1 UNK         0.0600 
    144 H144        0.8943  -20.2844  -46.2040 H         1 UNK         0.3000 
    145 H145       -0.8992  -23.2444  -45.5345 H         1 UNK         0.0600 
    146 H146        1.3070  -24.3539  -45.1400 H         1 UNK         0.0600 
    147 H147        0.8730  -24.3502  -46.8396 H         1 UNK         0.0600 
    148 H148        2.0809  -23.2155  -46.2459 H         1 UNK         0.0600 
    149 H149        1.2825  -22.0448  -44.1488 H         1 UNK         0.3000 
    150 H150       -0.4690  -19.4052  -42.6085 H         1 UNK         0.0600 
    151 H151       -1.3209  -21.3422  -41.2850 H         1 UNK         0.0600 
    152 H152        0.0202  -20.5436  -40.4817 H         1 UNK         0.0600 
    153 H153        0.2788  -22.0749  -41.3197 H         1 UNK         0.0600 
    154 H154        2.0321  -20.3283  -41.8870 H         1 UNK         0.3000 
    155 H155        4.1436  -19.9984  -43.3383 H         1 UNK         0.0600 
    156 H156        5.2714  -17.9522  -44.2905 H         1 UNK         0.0600 
    157 H157        3.6932  -17.2743  -44.6832 H         1 UNK         0.0600 
    158 H158        4.2451  -18.7511  -45.4699 H         1 UNK         0.0600 
    159 H159        3.0490  -17.5205  -42.0858 H         1 UNK         0.3000 
    160 H160        3.6436  -17.9041  -39.3331 H         1 UNK         0.0600 
    161 H161        6.6459  -17.3818  -39.6451 H         1 UNK         0.0600 
    162 H162        5.8910  -18.6137  -38.6452 H         1 UNK         0.0600 
    163 H163        5.6768  -16.9175  -38.2469 H         1 UNK         0.0600 
    164 H164        3.2831  -15.8489  -40.0274 H         1 UNK         0.3000 
    165 H165        4.8677  -13.2725  -41.2797 H         1 UNK         0.0600 
    166 H166        3.5855  -14.8632  -43.5578 H         1 UNK         0.0600 
    167 H167        3.6663  -13.1022  -43.4944 H         1 UNK         0.0600 
    168 H168        5.1436  -14.0473  -43.6102 H         1 UNK         0.0600 
    169 H169        2.1565  -14.4730  -41.5706 H         1 UNK         0.3000 
    170 H170        1.0560  -13.1769  -38.4680 H         1 UNK         0.0600 
    171 H171        0.6842  -11.1940  -39.9509 H         1 UNK         0.0600 
    172 H172        0.2094  -12.2574  -41.2704 H         1 UNK         0.0600 
    173 H173       -0.7735  -12.1634  -39.8079 H         1 UNK         0.0600 
    174 H174       -0.3052  -14.5589  -40.5574 H         1 UNK         0.3000 
    175 H175        0.8627  -17.8123  -40.0196 H         1 UNK         0.0600 
    176 H176       -1.8195  -16.7570  -38.9764 H         1 UNK         0.0600 
    177 H177       -1.4552  -18.4295  -39.4051 H         1 UNK         0.0600 
    178 H178       -0.6526  -17.6789  -38.0358 H         1 UNK         0.0600 
    179 H179       -1.4177  -16.9295  -41.4215 H         1 UNK         0.3000 
    180 H180       -0.6518  -17.4626  -44.0543 H         1 UNK         0.0600 
    181 H181       -1.7250  -14.7239  -43.1915 H         1 UNK         0.0600 
    182 H182       -2.4954  -16.2853  -42.9206 H         1 UNK         0.0600 
    183 H183       -2.3358  -15.6688  -44.5456 H         1 UNK         0.0600 
    184 H184        0.4505  -16.4283  -45.6223 H         1 UNK         0.3000 
    185 H185        1.7032  -13.1193  -46.1490 H         1 UNK         0.0600 
    186 H186        3.0486  -14.6967  -47.5798 H         1 UNK         0.0600 
    187 H187        3.4700  -14.8347  -45.8848 H         1 UNK         0.0600 
    188 H188        2.4621  -16.0608  -46.6377 H         1 UNK         0.0600 
    189 H189       -0.3361  -15.0147  -47.0668 H         1 UNK         0.3000 
    190 H190       -1.7150  -19.6723  -46.3003 H         1 UNK         0.3000 
    191 H191       -3.6599  -17.9718  -47.5699 H         1 UNK         0.0600 
    192 H192       -3.4349  -18.1832  -45.0901 H         1 UNK         0.0600 
    193 H193       -5.0594  -18.5809  -45.6276 H         1 UNK         0.0600 
    194 H194       -3.9482  -19.8696  -45.1845 H         1 UNK         0.0600 
    195 H195       -2.8447  -21.2676  -48.1651 H         1 UNK         0.3000 
    196 H196       -5.3868  -22.3449  -48.8380 H         1 UNK         0.0600 
    197 H197       -4.0669  -24.0006  -50.1138 H         1 UNK         0.0600 
    198 H198       -3.3135  -23.7097  -48.5570 H         1 UNK         0.0600 
    199 H199       -2.6315  -22.9904  -50.0135 H         1 UNK         0.0600 
    200 H200       -3.1231  -20.2805  -50.6735 H         1 UNK         0.3000 
    201 H201       -4.5262  -20.4019  -53.1761 H         1 UNK         0.0600 
    202 H202       -2.1853  -19.7311  -53.0701 H         1 UNK         0.0600 
    203 H203       -2.5612  -18.3455  -52.0439 H         1 UNK         0.0600 
    204 H204       -3.1203  -18.3912  -53.7152 H         1 UNK         0.0600 
    205 H205       -4.7276  -18.2392  -50.3453 H         1 UNK         0.3000 
    206 H206       -6.6527  -16.4106  -51.4517 H         1 UNK         0.0600 
    207 H207       -5.1503  -15.8109  -49.5610 H         1 UNK         0.0600 
    208 H208       -6.8369  -15.6121  -49.1108 H         1 UNK         0.0600 
    209 H209       -5.9384  -17.0061  -48.5304 H         1 UNK         0.0600 
    210 H210       -6.8919  -19.4419  -49.6237 H         1 UNK         0.3000 
    211 H211       -9.7694  -19.4728  -49.3928 H         1 UNK         0.0600 
    212 H212       -7.7204  -21.7388  -49.1641 H         1 UNK         0.0600 
    213 H213       -9.3793  -21.7780  -48.5850 H         1 UNK         0.0600 
    214 H214       -8.2209  -20.6884  -47.8400 H         1 UNK         0.0600 
    215 H215       -7.9243  -19.6698  -52.1351 H         1 UNK         0.3000 
    216 H216       -8.2685  -20.1428  -54.2350 H         1 UNK         0.0600 
    217 H217      -10.5761  -19.2358  -53.8645 H         1 UNK         0.0600 
    218 H218      -11.1666  -20.8753  -53.5912 H         1 UNK         0.0600 
    219 H219      -10.5111  -20.4222  -55.1560 H         1 UNK         0.0600 
    220 H220       -7.2897  -22.2536  -52.3981 H         1 UNK         0.3000 
    221 H221       -7.9185  -24.7397  -53.8770 H         1 UNK         0.0600 
    222 H222       -5.9026  -24.2396  -51.6330 H         1 UNK         0.0600 
    223 H223       -7.5652  -24.7680  -51.3801 H         1 UNK         0.0600 
    224 H224       -6.4346  -25.7937  -52.2503 H         1 UNK         0.0600 
    225 H225       -6.0440  -22.0310  -54.3756 H         1 UNK         0.3000 
    226 H226       -4.4387  -21.3846  -55.7415 H         1 UNK         0.0600 
    227 H227       -5.6933  -22.6822  -57.4791 H         1 UNK         0.0600 
    228 H228       -3.9770  -22.6167  -57.8212 H         1 UNK         0.0600 
    229 H229       -4.6880  -24.0912  -57.1669 H         1 UNK         0.0600 
    230 H230       -2.5120  -23.7118  -56.8305 H         1 UNK         0.3000 
    231 H231       -0.4031  -23.1298  -54.9544 H         1 UNK         0.0600 
    232 H232        0.9904  -24.3531  -56.5941 H         1 UNK         0.0600 
    233 H233       -0.0539  -23.2084  -57.4150 H         1 UNK         0.0600 
    234 H234       -0.4484  -24.9276  -57.4301 H         1 UNK         0.0600 
    235 H235       -2.3638  -24.4578  -53.5422 H         1 UNK         0.3000 
    236 H236       -1.4473  -27.2249  -52.9857 H         1 UNK         0.0600 
    237 H237       -3.7271  -25.5265  -51.8448 H         1 UNK         0.0600 
    238 H238       -3.8826  -26.7750  -53.0748 H         1 UNK         0.0600 
    239 H239       -3.4192  -27.2118  -51.4386 H         1 UNK         0.0600 
    240 H240       -0.2860  -24.2649  -52.2678 H         1 UNK         0.3000 
    241 H241       -0.0567  -24.1765  -49.4756 H         1 UNK         0.0600 
    242 H242        1.6682  -26.4368  -51.3810 H         1 UNK         0.3800 
    243 H243        3.0156  -26.6448  -50.2922 H         1 UNK         0.3800 
    244 H244        1.8792  -22.7699  -51.3477 H         1 UNK         0.0800 
    245 H245        1.3284  -22.2455  -49.7819 H         1 UNK         0.0800 
    246 H246        1.4815  -21.4162  -53.0968 H         1 UNK         0.0800 
    247 H247       -0.0242  -20.7196  -53.6163 H         1 UNK         0.0800 
@<TRIPOS>BOND
     1    1    2 1    
     2    1  127 1    
     3    1  128 1    
     4    1  129 1    
     5    2    3 2    
     6    2    4 am   BACKBONE|DICT|INTERRES
     7    4    5 1    
     8    4  130 1    
     9    5    6 1    
    10    5   65 1    
    11    5  131 1    
    12    6    7 1    
    13    6  132 1    
    14    6  133 1    
    15    7    8 1    
    16    8    9 1    
    17    8  134 1    
    18    8  135 1    
    19    9   10 ar   
    20    9   14 ar   
    21   10   11 ar   
    22   10  136 1    
    23   11   12 ar   
    24   11  126 1    
    25   12   13 ar   
    26   12  137 1    
    27   13   14 ar   
    28   13   15 1    
    29   14  138 1    
    30   15   16 1    
    31   15  139 1    
    32   15  140 1    
    33   16   17 1    
    34   17   18 1    
    35   17  141 1    
    36   17  142 1    
    37   18   19 1    
    38   18   67 1    
    39   18  143 1    
    40   19   20 am   BACKBONE|DICT|INTERRES
    41   19  144 1    
    42   20   21 2    
    43   20   22 1    
    44   22   23 1    
    45   22   24 1    
    46   22  145 1    
    47   23  146 1    
    48   23  147 1    
    49   23  148 1    
    50   24   25 am   BACKBONE|DICT|INTERRES
    51   24  149 1    
    52   25   26 2    
    53   25   27 1    
    54   27   28 1    
    55   27   29 1    
    56   27  150 1    
    57   28  151 1    
    58   28  152 1    
    59   28  153 1    
    60   29   30 am   BACKBONE|DICT|INTERRES
    61   29  154 1    
    62   30   31 2    
    63   30   32 1    
    64   32   33 1    
    65   32   34 1    
    66   32  155 1    
    67   33  156 1    
    68   33  157 1    
    69   33  158 1    
    70   34   35 am   BACKBONE|DICT|INTERRES
    71   34  159 1    
    72   35   36 2    
    73   35   37 1    
    74   37   38 1    
    75   37   39 1    
    76   37  160 1    
    77   38  161 1    
    78   38  162 1    
    79   38  163 1    
    80   39   40 am   BACKBONE|DICT|INTERRES
    81   39  164 1    
    82   40   41 2    
    83   40   42 1    
    84   42   43 1    
    85   42   44 1    
    86   42  165 1    
    87   43  166 1    
    88   43  167 1    
    89   43  168 1    
    90   44   45 am   BACKBONE|DICT|INTERRES
    91   44  169 1    
    92   45   46 2    
    93   45   47 1    
    94   47   48 1    
    95   47   49 1    
    96   47  170 1    
    97   48  171 1    
    98   48  172 1    
    99   48  173 1    
   100   49   50 am   BACKBONE|DICT|INTERRES
   101   49  174 1    
   102   50   51 2    
   103   50   52 1    
   104   52   53 1    
   105   52   54 1    
   106   52  175 1    
   107   53  176 1    
   108   53  177 1    
   109   53  178 1    
   110   54   55 am   BACKBONE|DICT|INTERRES
   111   54  179 1    
   112   55   56 2    
   113   55   57 1    
   114   57   58 1    
   115   57   59 1    
   116   57  180 1    
   117   58  181 1    
   118   58  182 1    
   119   58  183 1    
   120   59   60 am   BACKBONE|DICT|INTERRES
   121   59  184 1    
   122   60   61 2    
   123   60   62 1    
   124   62   63 1    
   125   62   64 1    
   126   62  185 1    
   127   63  186 1    
   128   63  187 1    
   129   63  188 1    
   130   64   65 am   BACKBONE|DICT|INTERRES
   131   64  189 1    
   132   65   66 2    
   133   67   68 2    
   134   67   69 am   BACKBONE|DICT|INTERRES
   135   69   70 1    
   136   69  190 1    
   137   70   71 1    
   138   70   72 1    
   139   70  191 1    
   140   71  192 1    
   141   71  193 1    
   142   71  194 1    
   143   72   73 2    
   144   72   74 am   BACKBONE|DICT|INTERRES
   145   74   75 1    
   146   74  195 1    
   147   75   76 1    
   148   75   77 1    
   149   75  196 1    
   150   76  197 1    
   151   76  198 1    
   152   76  199 1    
   153   77   78 2    
   154   77   79 am   BACKBONE|DICT|INTERRES
   155   79   80 1    
   156   79  200 1    
   157   80   81 1    
   158   80   82 1    
   159   80  201 1    
   160   81  202 1    
   161   81  203 1    
   162   81  204 1    
   163   82   83 2    
   164   82   84 am   BACKBONE|DICT|INTERRES
   165   84   85 1    
   166   84  205 1    
   167   85   86 1    
   168   85   87 1    
   169   85  206 1    
   170   86  207 1    
   171   86  208 1    
   172   86  209 1    
   173   87   88 2    
   174   87   89 am   BACKBONE|DICT|INTERRES
   175   89   90 1    
   176   89  210 1    
   177   90   91 1    
   178   90   92 1    
   179   90  211 1    
   180   91  212 1    
   181   91  213 1    
   182   91  214 1    
   183   92   93 2    
   184   92   94 am   BACKBONE|DICT|INTERRES
   185   94   95 1    
   186   94  215 1    
   187   95   96 1    
   188   95   97 1    
   189   95  216 1    
   190   96  217 1    
   191   96  218 1    
   192   96  219 1    
   193   97   98 2    
   194   97   99 am   BACKBONE|DICT|INTERRES
   195   99  100 1    
   196   99  220 1    
   197  100  101 1    
   198  100  102 1    
   199  100  221 1    
   200  101  222 1    
   201  101  223 1    
   202  101  224 1    
   203  102  103 2    
   204  102  104 am   BACKBONE|DICT|INTERRES
   205  104  105 1    
   206  104  225 1    
   207  105  106 1    
   208  105  107 1    
   209  105  226 1    
   210  106  227 1    
   211  106  228 1    
   212  106  229 1    
   213  107  108 2    
   214  107  109 am   BACKBONE|DICT|INTERRES
   215  109  110 1    
   216  109  230 1    
   217  110  111 1    
   218  110  112 1    
   219  110  231 1    
   220  111  232 1    
   221  111  233 1    
   222  111  234 1    
   223  112  113 2    
   224  112  114 am   BACKBONE|DICT|INTERRES
   225  114  115 1    
   226  114  235 1    
   227  115  116 1    
   228  115  117 1    
   229  115  236 1    
   230  116  237 1    
   231  116  238 1    
   232  116  239 1    
   233  117  118 2    
   234  117  119 am   BACKBONE|DICT|INTERRES
   235  119  120 1    
   236  119  240 1    
   237  120  121 1    
   238  120  124 1    
   239  120  241 1    
   240  121  122 am   BACKBONE|DICT|INTERRES
   241  121  123 2    
   242  122  242 1    
   243  122  243 1    
   244  124  125 1    
   245  124  244 1    
   246  124  245 1    
   247  125  126 1    
   248  126  246 1    
   249  126  247 1    
@<TRIPOS>SUBSTRUCTURE
     1 UNK         1 GROUP             0       ****    0 ROOT    
