@<TRIPOS>MOLECULE
3R540
247   249    1
SMALL
USER_CHARGES


@<TRIPOS>ATOM
      1 CA          0.4538   -8.9571  -50.2092 C.3       0 UNK        -0.1800 
      2 C           0.9383   -9.9368  -49.1498 C.2       0 UNK         0.5000 
      3 O           1.3174   -9.5187  -48.0549 O.2       0 UNK        -0.5000 
      4 N           0.9273  -11.2375  -49.4675 N.am      1 UNK        -0.5000 
      5 CA          1.3153  -12.3307  -48.5717 C.3       1 UNK         0.1400 
      6 C6          1.8225  -13.5586  -49.3718 C.3       23 UNK        -0.0398 
      7 S7          2.9546  -14.6004  -48.3924 S.3       23 UNK        -0.2404 
      8 C8          3.7204  -15.6092  -49.6978 C.3       23 UNK        -0.0205 
      9 C9          2.7480  -16.6221  -50.2845 C.ar      23 UNK        -0.0193 
     10 C10         2.0667  -16.3460  -51.4758 C.ar      23 UNK        -0.1150 
     11 C11         1.1991  -17.2920  -52.0317 C.ar      23 UNK        -0.0193 
     12 C12         1.0205  -18.5193  -51.3913 C.ar      23 UNK        -0.1150 
     13 C13         1.7023  -18.8091  -50.2078 C.ar      23 UNK        -0.0193 
     14 C14         2.5564  -17.8538  -49.6509 C.ar      23 UNK        -0.1150 
     15 C15         1.5460  -20.1771  -49.5725 C.3       23 UNK        -0.0205 
     16 S16        -0.0464  -20.3433  -48.7126 S.3       23 UNK        -0.2404 
     17 C17        -0.1635  -22.1559  -48.6554 C.3       23 UNK        -0.0398 
     18 CA         -0.7535  -22.7637  -47.3647 C.3       11 UNK         0.1400 
     19 N           0.0421  -22.5159  -46.1578 N.am      11 UNK        -0.5000 
     20 C          -0.0011  -23.3324  -45.0934 C.2       10 UNK         0.5000 
     21 O          -0.7070  -24.3410  -45.0444 O.2       10 UNK        -0.5000 
     22 CA          0.8459  -22.9537  -43.8670 C.3       10 UNK         0.1400 
     23 CB          2.3342  -23.2479  -44.1074 C.3       10 UNK        -0.1800 
     24 N           0.6678  -21.5607  -43.4638 N.am      10 UNK        -0.5000 
     25 C          -0.4881  -21.0402  -43.0269 C.2       9 UNK         0.5000 
     26 O          -1.5289  -21.6875  -42.9068 O.2       9 UNK        -0.5000 
     27 CA         -0.4924  -19.5338  -42.7084 C.3       9 UNK         0.1400 
     28 CB          0.1271  -19.2709  -41.3279 C.3       9 UNK        -0.1800 
     29 N           0.2084  -18.7440  -43.7205 N.am      9 UNK        -0.5000 
     30 C          -0.1425  -18.6811  -45.0129 C.2       8 UNK         0.5000 
     31 O          -1.1317  -19.2399  -45.4804 O.2       8 UNK        -0.5000 
     32 CA          0.7944  -17.9015  -45.9473 C.3       8 UNK         0.1400 
     33 CB          0.5309  -16.3966  -45.8395 C.3       8 UNK        -0.1800 
     34 N           2.2037  -18.1807  -45.6777 N.am      8 UNK        -0.5000 
     35 C           2.7862  -19.3789  -45.8308 C.2       7 UNK         0.5000 
     36 O           2.2041  -20.3885  -46.2265 O.2       7 UNK        -0.5000 
     37 CA          4.2655  -19.4685  -45.4215 C.3       7 UNK         0.1400 
     38 CB          5.1659  -18.8317  -46.4919 C.3       7 UNK        -0.1800 
     39 N           4.5147  -18.8338  -44.1266 N.am      7 UNK        -0.5000 
     40 C           4.0093  -19.2691  -42.9633 C.2       6 UNK         0.5000 
     41 O           3.3155  -20.2798  -42.8525 O.2       6 UNK        -0.5000 
     42 CA          4.2932  -18.4050  -41.7210 C.3       6 UNK         0.1400 
     43 CB          5.6424  -18.7867  -41.0939 C.3       6 UNK        -0.1800 
     44 N           4.2715  -16.9637  -41.9908 N.am      6 UNK        -0.5000 
     45 C           3.1962  -16.2890  -42.4181 C.2       5 UNK         0.5000 
     46 O           2.1228  -16.8243  -42.7023 O.2       5 UNK        -0.5000 
     47 CA          3.3583  -14.7694  -42.5918 C.3       5 UNK         0.1400 
     48 CB          3.6183  -14.4202  -44.0659 C.3       5 UNK        -0.1800 
     49 N           2.1599  -14.0706  -42.1314 N.am      5 UNK        -0.5000 
     50 C           1.8378  -13.8957  -40.8400 C.2       4 UNK         0.5000 
     51 O           2.5820  -14.2035  -39.9075 O.2       4 UNK        -0.5000 
     52 CA          0.4580  -13.2786  -40.5245 C.3       4 UNK         0.1400 
     53 CB          0.5821  -11.7621  -40.3119 C.3       4 UNK        -0.1800 
     54 N          -0.5298  -13.5291  -41.5726 N.am      4 UNK        -0.5000 
     55 C          -1.0433  -14.7296  -41.8708 C.2       3 UNK         0.5000 
     56 O          -0.8876  -15.7235  -41.1622 O.2       3 UNK        -0.5000 
     57 CA         -1.8578  -14.8552  -43.1781 C.3       3 UNK         0.1400 
     58 CB         -3.3163  -15.2351  -42.8759 C.3       3 UNK        -0.1800 
     59 N          -1.8534  -13.6749  -44.0555 N.am      3 UNK        -0.5000 
     60 C          -0.7835  -13.1158  -44.6380 C.2       2 UNK         0.5000 
     61 O           0.3786  -13.4606  -44.4152 O.2       2 UNK        -0.5000 
     62 CA         -1.0624  -11.9227  -45.5691 C.3       2 UNK         0.1400 
     63 CB         -1.1091  -10.6170  -44.7604 C.3       2 UNK        -0.1800 
     64 N          -0.0458  -11.7921  -46.6114 N.am      2 UNK        -0.5000 
     65 C           0.1468  -12.6569  -47.6150 C.2       1 UNK         0.5000 
     66 O          -0.5858  -13.6250  -47.8276 O.2       1 UNK        -0.5000 
     67 C          -2.2568  -22.4737  -47.1745 C.2       11 UNK         0.5000 
     68 O          -3.0669  -23.0902  -47.8668 O.2       11 UNK        -0.5000 
     69 N          -2.6258  -21.6014  -46.2253 N.am      12 UNK        -0.5000 
     70 CA         -4.0104  -21.4069  -45.7906 C.3       12 UNK         0.1400 
     71 CB         -4.1355  -20.1377  -44.9358 C.3       12 UNK        -0.1800 
     72 C          -4.5589  -22.6346  -45.0466 C.2       12 UNK         0.5000 
     73 O          -5.6737  -23.0648  -45.3417 O.2       12 UNK        -0.5000 
     74 N          -3.7532  -23.2132  -44.1439 N.am      13 UNK        -0.5000 
     75 CA         -4.0712  -24.4494  -43.4230 C.3       13 UNK         0.1400 
     76 CB         -3.0182  -24.6959  -42.3321 C.3       13 UNK        -0.1800 
     77 C          -4.1970  -25.6718  -44.3541 C.2       13 UNK         0.5000 
     78 O          -5.0629  -26.5188  -44.1328 O.2       13 UNK        -0.5000 
     79 N          -3.3608  -25.7188  -45.4003 N.am      14 UNK        -0.5000 
     80 CA         -3.4023  -26.7285  -46.4618 C.3       14 UNK         0.1400 
     81 CB         -2.0420  -26.7447  -47.1767 C.3       14 UNK        -0.1800 
     82 C          -4.5359  -26.5078  -47.4879 C.2       14 UNK         0.5000 
     83 O          -4.7757  -27.3938  -48.3083 O.2       14 UNK        -0.5000 
     84 N          -5.1803  -25.3307  -47.4515 N.am      15 UNK        -0.5000 
     85 CA         -6.2127  -24.8268  -48.3683 C.3       15 UNK         0.1400 
     86 CB         -7.4620  -25.7303  -48.3684 C.3       15 UNK        -0.1800 
     87 C          -5.7028  -24.5262  -49.7955 C.2       15 UNK         0.5000 
     88 O          -6.5070  -24.2633  -50.6898 O.2       15 UNK        -0.5000 
     89 N          -4.3783  -24.5027  -49.9830 N.am      16 UNK        -0.5000 
     90 CA         -3.7094  -24.1269  -51.2271 C.3       16 UNK         0.1400 
     91 CB         -2.2527  -24.6091  -51.1810 C.3       16 UNK        -0.1800 
     92 C          -3.8023  -22.6151  -51.5094 C.2       16 UNK         0.5000 
     93 O          -3.8510  -22.2178  -52.6743 O.2       16 UNK        -0.5000 
     94 N          -3.8818  -21.7979  -50.4478 N.am      17 UNK        -0.5000 
     95 CA         -4.1593  -20.3623  -50.5495 C.3       17 UNK         0.1400 
     96 CB         -3.9001  -19.6733  -49.2025 C.3       17 UNK        -0.1800 
     97 C          -5.6025  -20.0920  -51.0141 C.2       17 UNK         0.5000 
     98 O          -5.8196  -19.1977  -51.8305 O.2       17 UNK        -0.5000 
     99 N          -6.5547  -20.8971  -50.5177 N.am      18 UNK        -0.5000 
    100 CA        -7.9699  -20.8497  -50.8957 C.3       18 UNK         0.1400 
    101 CB        -8.7989  -21.6650  -49.8911 C.3       18 UNK        -0.1800 
    102 C         -8.2063  -21.3400  -52.3365 C.2       18 UNK         0.5000 
    103 O         -9.0456  -20.7791  -53.0413 O.2       18 UNK        -0.5000 
    104 N         -7.4244  -22.3423  -52.7623 N.am      19 UNK        -0.5000 
    105 CA        -7.3600  -22.8361  -54.1404 C.3       19 UNK         0.1400 
    106 CB        -6.6615  -24.2046  -54.1436 C.3       19 UNK        -0.1800 
    107 C         -6.6469  -21.8679  -55.1103 C.2       19 UNK         0.5000 
    108 O         -6.7310  -22.0703  -56.3222 O.2       19 UNK        -0.5000 
    109 N         -5.9668  -20.8474  -54.5649 N.am      20 UNK        -0.5000 
    110 CA        -5.2020  -19.8029  -55.2472 C.3       20 UNK         0.1400 
    111 CB        -6.1277  -18.9050  -56.0943 C.3       20 UNK        -0.1800 
    112 C         -4.0129  -20.3769  -56.0399 C.2       20 UNK         0.5000 
    113 O         -3.8847  -20.1246  -57.2396 O.2       20 UNK        -0.5000 
    114 N         -3.1556  -21.1385  -55.3437 N.am      21 UNK        -0.5000 
    115 CA        -1.9740  -21.8222  -55.8857 C.3       21 UNK         0.1400 
    116 CB        -1.2719  -22.5807  -54.7488 C.3       21 UNK        -0.1800 
    117 C         -0.9661  -20.9235  -56.6368 C.2       21 UNK         0.5000 
    118 O         -0.2775  -21.4175  -57.5311 O.2       21 UNK        -0.5000 
    119 N         -0.9099  -19.6306  -56.2883 N.am      22 UNK        -0.5000 
    120 CA        -0.1357  -18.6062  -57.0134 C.3       22 UNK         0.1400 
    121 C         -0.7763  -18.1410  -58.3570 C.2       22 UNK         0.5000 
    122 N         -1.9994  -18.5280  -58.6993 N.am      22 UNK        -0.7600 
    123 O         -0.1407  -17.4155  -59.1174 O.2       22 UNK        -0.5000 
    124 C124        0.2072  -17.3871  -56.1176 C.3       23 UNK        -0.0398 
    125 S125        1.3005  -17.8318  -54.7273 S.3       23 UNK        -0.2404 
    126 C126        0.4676  -17.0118  -53.3342 C.3       23 UNK        -0.0205 
    127 H127        1.2451   -8.2490  -50.4550 H         1 UNK         0.0600 
    128 H128        0.1555   -9.4656  -51.1264 H         1 UNK         0.0600 
    129 H129       -0.4036   -8.3963  -49.8369 H         1 UNK         0.0600 
    130 H130        0.5726  -11.5186  -50.3706 H         1 UNK         0.3000 
    131 H131        2.1481  -11.9759  -47.9596 H         1 UNK         0.0600 
    132 H132        1.0032  -14.1649  -49.7617 H         1 UNK         0.0800 
    133 H133        2.3809  -13.2178  -50.2448 H         1 UNK         0.0800 
    134 H134        4.1197  -14.9611  -50.4794 H         1 UNK         0.0800 
    135 H135        4.5784  -16.1336  -49.2745 H         1 UNK         0.0800 
    136 H136        2.2193  -15.3995  -51.9750 H         1 UNK         0.1150 
    137 H137        0.3636  -19.2601  -51.8259 H         1 UNK         0.1150 
    138 H138        3.0863  -18.0739  -48.7352 H         1 UNK         0.1150 
    139 H139        2.3604  -20.3783  -48.8758 H         1 UNK         0.0800 
    140 H140        1.6205  -20.9319  -50.3569 H         1 UNK         0.0800 
    141 H141        0.8292  -22.5817  -48.8077 H         1 UNK         0.0800 
    142 H142       -0.7471  -22.4620  -49.5227 H         1 UNK         0.0800 
    143 H143       -0.7051  -23.8401  -47.5378 H         1 UNK         0.0600 
    144 H144        0.6439  -21.6966  -46.1520 H         1 UNK         0.3000 
    145 H145        0.5141  -23.5794  -43.0358 H         1 UNK         0.0600 
    146 H146        2.9203  -23.0704  -43.2056 H         1 UNK         0.0600 
    147 H147        2.4848  -24.2896  -44.3931 H         1 UNK         0.0600 
    148 H148        2.7486  -22.6269  -44.9013 H         1 UNK         0.0600 
    149 H149        1.4893  -20.9667  -43.5062 H         1 UNK         0.3000 
    150 H150       -1.5306  -19.1969  -42.6868 H         1 UNK         0.0600 
    151 H151        1.1677  -19.5918  -41.2843 H         1 UNK         0.0600 
    152 H152       -0.4156  -19.8072  -40.5487 H         1 UNK         0.0600 
    153 H153        0.0965  -18.2113  -41.0761 H         1 UNK         0.0600 
    154 H154        1.0096  -18.2028  -43.4049 H         1 UNK         0.3000 
    155 H155        0.5839  -18.2015  -46.9736 H         1 UNK         0.0600 
    156 H156        0.7355  -16.0280  -44.8355 H         1 UNK         0.0600 
    157 H157       -0.5087  -16.1628  -46.0721 H         1 UNK         0.0600 
    158 H158        1.1484  -15.8333  -46.5356 H         1 UNK         0.0600 
    159 H159        2.7470  -17.4236  -45.2929 H         1 UNK         0.3000 
    160 H160        4.5270  -20.5256  -45.3381 H         1 UNK         0.0600 
    161 H161        4.9670  -17.7655  -46.6094 H         1 UNK         0.0600 
    162 H162        5.0089  -19.3035  -47.4628 H         1 UNK         0.0600 
    163 H163        6.2201  -18.9508  -46.2413 H         1 UNK         0.0600 
    164 H164        5.0747  -17.9944  -44.1248 H         1 UNK         0.3000 
    165 H165        3.5088  -18.6153  -40.9910 H         1 UNK         0.0600 
    166 H166        5.8094  -18.2499  -40.1599 H         1 UNK         0.0600 
    167 H167        6.4754  -18.5662  -41.7626 H         1 UNK         0.0600 
    168 H168        5.6785  -19.8527  -40.8649 H         1 UNK         0.0600 
    169 H169        5.1205  -16.4562  -41.7874 H         1 UNK         0.3000 
    170 H170        4.2113  -14.4285  -42.0014 H         1 UNK         0.0600 
    171 H171        4.5293  -14.8982  -44.4277 H         1 UNK         0.0600 
    172 H172        2.8010  -14.7437  -44.7106 H         1 UNK         0.0600 
    173 H173        3.7394  -13.3453  -44.2003 H         1 UNK         0.0600 
    174 H174        1.4799  -13.8337  -42.8484 H         1 UNK         0.3000 
    175 H175        0.0965  -13.7281  -39.5973 H         1 UNK         0.0600 
    176 H176        0.9257  -11.2561  -41.2153 H         1 UNK         0.0600 
    177 H177       -0.3737  -11.3241  -40.0237 H         1 UNK         0.0600 
    178 H178        1.2949  -11.5363  -39.5176 H         1 UNK         0.0600 
    179 H179       -0.7094  -12.7711  -42.2133 H         1 UNK         0.3000 
    180 H180       -1.4106  -15.6779  -43.7379 H         1 UNK         0.0600 
    181 H181       -3.8324  -14.4426  -42.3326 H         1 UNK         0.0600 
    182 H182       -3.3701  -16.1393  -42.2680 H         1 UNK         0.0600 
    183 H183       -3.8715  -15.4330  -43.7931 H         1 UNK         0.0600 
    184 H184       -2.7636  -13.2926  -44.2681 H         1 UNK         0.3000 
    185 H185       -2.0293  -12.0731  -46.0538 H         1 UNK         0.0600 
    186 H186       -1.3330   -9.7640  -45.4015 H         1 UNK         0.0600 
    187 H187       -1.8832  -10.6564  -43.9929 H         1 UNK         0.0600 
    188 H188       -0.1599  -10.4198  -44.2600 H         1 UNK         0.0600 
    189 H189        0.5725  -10.9934  -46.5473 H         1 UNK         0.3000 
    190 H190       -1.9176  -21.0418  -45.7599 H         1 UNK         0.3000 
    191 H191       -4.6310  -21.2738  -46.6766 H         1 UNK         0.0600 
    192 H192       -5.1619  -19.9938  -44.5964 H         1 UNK         0.0600 
    193 H193       -3.8566  -19.2522  -45.5070 H         1 UNK         0.0600 
    194 H194       -3.4997  -20.1805  -44.0517 H         1 UNK         0.0600 
    195 H195       -2.8640  -22.7741  -43.9236 H         1 UNK         0.3000 
    196 H196       -5.0371  -24.3084  -42.9336 H         1 UNK         0.0600 
    197 H197       -2.0206  -24.8204  -42.7534 H         1 UNK         0.0600 
    198 H198       -2.9806  -23.8654  -41.6269 H         1 UNK         0.0600 
    199 H199       -3.2493  -25.5967  -41.7624 H         1 UNK         0.0600 
    200 H200       -2.6222  -25.0255  -45.4558 H         1 UNK         0.3000 
    201 H201       -3.5583  -27.7071  -46.0033 H         1 UNK         0.0600 
    202 H202       -1.8675  -25.8193  -47.7244 H         1 UNK         0.0600 
    203 H203       -1.9887  -27.5628  -47.8960 H         1 UNK         0.0600 
    204 H204       -1.2224  -26.8794  -46.4704 H         1 UNK         0.0600 
    205 H205       -4.9015  -24.6744  -46.7333 H         1 UNK         0.3000 
    206 H206       -6.5147  -23.8616  -47.9598 H         1 UNK         0.0600 
    207 H207       -7.8109  -25.9200  -47.3533 H         1 UNK         0.0600 
    208 H208       -8.2836  -25.2600  -48.9099 H         1 UNK         0.0600 
    209 H209       -7.2698  -26.6918  -48.8445 H         1 UNK         0.0600 
    210 H210       -3.7909  -24.6122  -49.1664 H         1 UNK         0.3000 
    211 H211       -4.2037  -24.6414  -52.0525 H         1 UNK         0.0600 
    212 H212       -1.6756  -24.2208  -52.0210 H         1 UNK         0.0600 
    213 H213       -2.2047  -25.6970  -51.2301 H         1 UNK         0.0600 
    214 H214       -1.7547  -24.3035  -50.2630 H         1 UNK         0.0600 
    215 H215       -3.7925  -22.1975  -49.5196 H         1 UNK         0.3000 
    216 H216       -3.4752  -19.9360  -51.2866 H         1 UNK         0.0600 
    217 H217       -4.6496  -19.9441  -48.4608 H         1 UNK         0.0600 
    218 H218       -3.9344  -18.5889  -49.3124 H         1 UNK         0.0600 
    219 H219       -2.9203  -19.9259  -48.8017 H         1 UNK         0.0600 
    220 H220       -6.2830  -21.6235  -49.8738 H         1 UNK         0.3000 
    221 H221       -8.2998  -19.8100  -50.8410 H         1 UNK         0.0600 
    222 H222       -8.6665  -21.2924  -48.8752 H         1 UNK         0.0600 
    223 H223       -8.5275  -22.7205  -49.8998 H         1 UNK         0.0600 
    224 H224       -9.8625  -21.6007  -50.1240 H         1 UNK         0.0600 
    225 H225       -6.8301  -22.8112  -52.0873 H         1 UNK         0.3000 
    226 H226       -8.3810  -22.9723  -54.5025 H         1 UNK         0.0600 
    227 H227       -5.6147  -24.1184  -53.8536 H         1 UNK         0.0600 
    228 H228       -7.1460  -24.9007  -53.4585 H         1 UNK         0.0600 
    229 H229       -6.6882  -24.6541  -55.1370 H         1 UNK         0.0600 
    230 H230       -5.9505  -20.7951  -53.5557 H         1 UNK         0.3000 
    231 H231       -4.7725  -19.1775  -54.4633 H         1 UNK         0.0600 
    232 H232       -6.5744  -19.4482  -56.9275 H         1 UNK         0.0600 
    233 H233       -5.5754  -18.0630  -56.5133 H         1 UNK         0.0600 
    234 H234       -6.9364  -18.4942  -55.4897 H         1 UNK         0.0600 
    235 H235       -3.3778  -21.3474  -54.3739 H         1 UNK         0.3000 
    236 H236       -2.3370  -22.5571  -56.6068 H         1 UNK         0.0600 
    237 H237       -1.9255  -23.3441  -54.3274 H         1 UNK         0.0600 
    238 H238       -0.3745  -23.0874  -55.1065 H         1 UNK         0.0600 
    239 H239       -0.9732  -21.9096  -53.9424 H         1 UNK         0.0600 
    240 H240       -1.5044  -19.3053  -55.5417 H         1 UNK         0.3000 
    241 H241        0.8141  -19.0617  -57.3009 H         1 UNK         0.0600 
    242 H242       -2.3835  -18.2158  -59.5768 H         1 UNK         0.3800 
    243 H243       -2.5579  -19.1343  -58.1033 H         1 UNK         0.3800 
    244 H244       -0.7075  -16.9227  -55.7458 H         1 UNK         0.0800 
    245 H245        0.7257  -16.6168  -56.6914 H         1 UNK         0.0800 
    246 H246        0.4161  -15.9379  -53.5208 H         1 UNK         0.0800 
    247 H247       -0.5614  -17.3672  -53.2603 H         1 UNK         0.0800 
@<TRIPOS>BOND
     1    1    2 1    
     2    1  127 1    
     3    1  128 1    
     4    1  129 1    
     5    2    3 2    
     6    2    4 am   BACKBONE|DICT|INTERRES
     7    4    5 1    
     8    4  130 1    
     9    5    6 1    
    10    5   65 1    
    11    5  131 1    
    12    6    7 1    
    13    6  132 1    
    14    6  133 1    
    15    7    8 1    
    16    8    9 1    
    17    8  134 1    
    18    8  135 1    
    19    9   10 ar   
    20    9   14 ar   
    21   10   11 ar   
    22   10  136 1    
    23   11   12 ar   
    24   11  126 1    
    25   12   13 ar   
    26   12  137 1    
    27   13   14 ar   
    28   13   15 1    
    29   14  138 1    
    30   15   16 1    
    31   15  139 1    
    32   15  140 1    
    33   16   17 1    
    34   17   18 1    
    35   17  141 1    
    36   17  142 1    
    37   18   19 1    
    38   18   67 1    
    39   18  143 1    
    40   19   20 am   BACKBONE|DICT|INTERRES
    41   19  144 1    
    42   20   21 2    
    43   20   22 1    
    44   22   23 1    
    45   22   24 1    
    46   22  145 1    
    47   23  146 1    
    48   23  147 1    
    49   23  148 1    
    50   24   25 am   BACKBONE|DICT|INTERRES
    51   24  149 1    
    52   25   26 2    
    53   25   27 1    
    54   27   28 1    
    55   27   29 1    
    56   27  150 1    
    57   28  151 1    
    58   28  152 1    
    59   28  153 1    
    60   29   30 am   BACKBONE|DICT|INTERRES
    61   29  154 1    
    62   30   31 2    
    63   30   32 1    
    64   32   33 1    
    65   32   34 1    
    66   32  155 1    
    67   33  156 1    
    68   33  157 1    
    69   33  158 1    
    70   34   35 am   BACKBONE|DICT|INTERRES
    71   34  159 1    
    72   35   36 2    
    73   35   37 1    
    74   37   38 1    
    75   37   39 1    
    76   37  160 1    
    77   38  161 1    
    78   38  162 1    
    79   38  163 1    
    80   39   40 am   BACKBONE|DICT|INTERRES
    81   39  164 1    
    82   40   41 2    
    83   40   42 1    
    84   42   43 1    
    85   42   44 1    
    86   42  165 1    
    87   43  166 1    
    88   43  167 1    
    89   43  168 1    
    90   44   45 am   BACKBONE|DICT|INTERRES
    91   44  169 1    
    92   45   46 2    
    93   45   47 1    
    94   47   48 1    
    95   47   49 1    
    96   47  170 1    
    97   48  171 1    
    98   48  172 1    
    99   48  173 1    
   100   49   50 am   BACKBONE|DICT|INTERRES
   101   49  174 1    
   102   50   51 2    
   103   50   52 1    
   104   52   53 1    
   105   52   54 1    
   106   52  175 1    
   107   53  176 1    
   108   53  177 1    
   109   53  178 1    
   110   54   55 am   BACKBONE|DICT|INTERRES
   111   54  179 1    
   112   55   56 2    
   113   55   57 1    
   114   57   58 1    
   115   57   59 1    
   116   57  180 1    
   117   58  181 1    
   118   58  182 1    
   119   58  183 1    
   120   59   60 am   BACKBONE|DICT|INTERRES
   121   59  184 1    
   122   60   61 2    
   123   60   62 1    
   124   62   63 1    
   125   62   64 1    
   126   62  185 1    
   127   63  186 1    
   128   63  187 1    
   129   63  188 1    
   130   64   65 am   BACKBONE|DICT|INTERRES
   131   64  189 1    
   132   65   66 2    
   133   67   68 2    
   134   67   69 am   BACKBONE|DICT|INTERRES
   135   69   70 1    
   136   69  190 1    
   137   70   71 1    
   138   70   72 1    
   139   70  191 1    
   140   71  192 1    
   141   71  193 1    
   142   71  194 1    
   143   72   73 2    
   144   72   74 am   BACKBONE|DICT|INTERRES
   145   74   75 1    
   146   74  195 1    
   147   75   76 1    
   148   75   77 1    
   149   75  196 1    
   150   76  197 1    
   151   76  198 1    
   152   76  199 1    
   153   77   78 2    
   154   77   79 am   BACKBONE|DICT|INTERRES
   155   79   80 1    
   156   79  200 1    
   157   80   81 1    
   158   80   82 1    
   159   80  201 1    
   160   81  202 1    
   161   81  203 1    
   162   81  204 1    
   163   82   83 2    
   164   82   84 am   BACKBONE|DICT|INTERRES
   165   84   85 1    
   166   84  205 1    
   167   85   86 1    
   168   85   87 1    
   169   85  206 1    
   170   86  207 1    
   171   86  208 1    
   172   86  209 1    
   173   87   88 2    
   174   87   89 am   BACKBONE|DICT|INTERRES
   175   89   90 1    
   176   89  210 1    
   177   90   91 1    
   178   90   92 1    
   179   90  211 1    
   180   91  212 1    
   181   91  213 1    
   182   91  214 1    
   183   92   93 2    
   184   92   94 am   BACKBONE|DICT|INTERRES
   185   94   95 1    
   186   94  215 1    
   187   95   96 1    
   188   95   97 1    
   189   95  216 1    
   190   96  217 1    
   191   96  218 1    
   192   96  219 1    
   193   97   98 2    
   194   97   99 am   BACKBONE|DICT|INTERRES
   195   99  100 1    
   196   99  220 1    
   197  100  101 1    
   198  100  102 1    
   199  100  221 1    
   200  101  222 1    
   201  101  223 1    
   202  101  224 1    
   203  102  103 2    
   204  102  104 am   BACKBONE|DICT|INTERRES
   205  104  105 1    
   206  104  225 1    
   207  105  106 1    
   208  105  107 1    
   209  105  226 1    
   210  106  227 1    
   211  106  228 1    
   212  106  229 1    
   213  107  108 2    
   214  107  109 am   BACKBONE|DICT|INTERRES
   215  109  110 1    
   216  109  230 1    
   217  110  111 1    
   218  110  112 1    
   219  110  231 1    
   220  111  232 1    
   221  111  233 1    
   222  111  234 1    
   223  112  113 2    
   224  112  114 am   BACKBONE|DICT|INTERRES
   225  114  115 1    
   226  114  235 1    
   227  115  116 1    
   228  115  117 1    
   229  115  236 1    
   230  116  237 1    
   231  116  238 1    
   232  116  239 1    
   233  117  118 2    
   234  117  119 am   BACKBONE|DICT|INTERRES
   235  119  120 1    
   236  119  240 1    
   237  120  121 1    
   238  120  124 1    
   239  120  241 1    
   240  121  122 am   BACKBONE|DICT|INTERRES
   241  121  123 2    
   242  122  242 1    
   243  122  243 1    
   244  124  125 1    
   245  124  244 1    
   246  124  245 1    
   247  125  126 1    
   248  126  246 1    
   249  126  247 1    
@<TRIPOS>SUBSTRUCTURE
     1 UNK         1 GROUP             0       ****    0 ROOT    
