@<TRIPOS>MOLECULE
3R540
247   249    1
SMALL
USER_CHARGES


@<TRIPOS>ATOM
      1 CA         -1.9593  -11.7026  -51.9897 C.3       0 UNK        -0.1800 
      2 C          -0.7746  -11.9573  -51.0682 C.2       0 UNK         0.5000 
      3 O           0.3431  -12.1552  -51.5441 O.2       0 UNK        -0.5000 
      4 N          -1.0131  -11.9447  -49.7536 N.am      1 UNK        -0.5000 
      5 CA         -0.0028  -12.1010  -48.7104 C.3       1 UNK         0.1400 
      6 C6          0.3466  -13.5961  -48.4324 C.3       23 UNK        -0.0398 
      7 S7         -0.5511  -14.4674  -47.0942 S.3       23 UNK        -0.2404 
      8 C8         -2.1550  -14.8547  -47.8654 C.3       23 UNK        -0.0205 
      9 C9         -2.0507  -15.7946  -49.0608 C.ar      23 UNK        -0.0193 
     10 C10        -2.2766  -15.3095  -50.3529 C.ar      23 UNK        -0.1150 
     11 C11        -2.2413  -16.1679  -51.4551 C.ar      23 UNK        -0.0193 
     12 C12        -1.9881  -17.5248  -51.2545 C.ar      23 UNK        -0.1150 
     13 C13        -1.7646  -18.0281  -49.9715 C.ar      23 UNK        -0.0193 
     14 C14        -1.7863  -17.1564  -48.8771 C.ar      23 UNK        -0.1150 
     15 C15        -1.5169  -19.5163  -49.7870 C.3       23 UNK        -0.0205 
     16 S16        -3.0229  -20.3787  -49.2370 S.3       23 UNK        -0.2404 
     17 C17        -2.6892  -20.5812  -47.4588 C.3       23 UNK        -0.0398 
     18 CA         -2.0675  -21.9730  -47.1533 C.3       11 UNK         0.1400 
     19 N          -0.6903  -21.8909  -46.6568 N.am      11 UNK        -0.5000 
     20 C           0.1208  -22.9452  -46.4816 C.2       10 UNK         0.5000 
     21 O          -0.1888  -24.0985  -46.7742 O.2       10 UNK        -0.5000 
     22 CA          1.4808  -22.6822  -45.8097 C.3       10 UNK         0.1400 
     23 CB          2.5068  -22.1566  -46.8240 C.3       10 UNK        -0.1800 
     24 N           1.3715  -21.7570  -44.6819 N.am      10 UNK        -0.5000 
     25 C           0.6671  -22.0021  -43.5674 C.2       9 UNK         0.5000 
     26 O           0.1016  -23.0713  -43.3380 O.2       9 UNK        -0.5000 
     27 CA          0.5154  -20.8368  -42.5733 C.3       9 UNK         0.1400 
     28 CB          1.7344  -20.7353  -41.6444 C.3       9 UNK        -0.1800 
     29 N           0.3011  -19.5594  -43.2550 N.am      9 UNK        -0.5000 
     30 C          -0.7952  -19.2565  -43.9652 C.2       8 UNK         0.5000 
     31 O          -1.7681  -20.0028  -44.0760 O.2       8 UNK        -0.5000 
     32 CA         -0.7747  -17.9208  -44.7271 C.3       8 UNK         0.1400 
     33 CB         -1.1890  -16.7627  -43.8143 C.3       8 UNK        -0.1800 
     34 N           0.5363  -17.6416  -45.3145 N.am      8 UNK        -0.5000 
     35 C           1.0463  -18.3305  -46.3459 C.2       7 UNK         0.5000 
     36 O           0.4526  -19.2545  -46.8960 O.2       7 UNK        -0.5000 
     37 CA          2.4713  -17.9767  -46.8102 C.3       7 UNK         0.1400 
     38 CB          2.4344  -16.8320  -47.8327 C.3       7 UNK        -0.1800 
     39 N           3.3606  -17.6123  -45.7086 N.am      7 UNK        -0.5000 
     40 C           3.6612  -18.3992  -44.6656 C.2       6 UNK         0.5000 
     41 O           3.2982  -19.5713  -44.5718 O.2       6 UNK        -0.5000 
     42 CA          4.4507  -17.7545  -43.5080 C.3       6 UNK         0.1400 
     43 CB          5.9358  -18.1353  -43.5946 C.3       6 UNK        -0.1800 
     44 N           4.3308  -16.2922  -43.4467 N.am      6 UNK        -0.5000 
     45 C           3.1866  -15.6184  -43.2642 C.2       5 UNK         0.5000 
     46 O           2.0860  -16.1603  -43.1386 O.2       5 UNK        -0.5000 
     47 CA          3.2884  -14.0848  -43.3337 C.3       5 UNK         0.1400 
     48 CB          3.2072  -13.6256  -44.7998 C.3       5 UNK        -0.1800 
     49 N           2.2287  -13.4183  -42.5802 N.am      5 UNK        -0.5000 
     50 C           2.0883  -13.4254  -41.2467 C.2       4 UNK         0.5000 
     51 O           2.8886  -13.9619  -40.4792 O.2       4 UNK        -0.5000 
     52 CA          0.8610  -12.6868  -40.6698 C.3       4 UNK         0.1400 
     53 CB          1.2924  -11.3811  -39.9837 C.3       4 UNK        -0.1800 
     54 N          -0.1271  -12.3649  -41.7008 N.am      4 UNK        -0.5000 
     55 C          -1.0471  -13.2069  -42.1834 C.2       3 UNK         0.5000 
     56 O          -1.2786  -14.3095  -41.6900 O.2       3 UNK        -0.5000 
     57 CA         -1.8024  -12.7733  -43.4576 C.3       3 UNK         0.1400 
     58 CB         -3.1365  -12.0848  -43.1130 C.3       3 UNK        -0.1800 
     59 N          -1.0002  -11.9732  -44.3999 N.am      3 UNK        -0.5000 
     60 C          -0.5531  -10.7145  -44.2698 C.2       2 UNK         0.5000 
     61 O          -0.7432  -10.0313  -43.2633 O.2       2 UNK        -0.5000 
     62 CA          0.3010  -10.1265  -45.4134 C.3       2 UNK         0.1400 
     63 CB          1.6861   -9.7099  -44.8897 C.3       2 UNK        -0.1800 
     64 N           0.4867  -11.0123  -46.5683 N.am      2 UNK        -0.5000 
     65 C          -0.4487  -11.2707  -47.4908 C.2       1 UNK         0.5000 
     66 O          -1.6137  -10.8691  -47.4114 O.2       1 UNK        -0.5000 
     67 C          -2.9703  -22.8023  -46.2215 C.2       11 UNK         0.5000 
     68 O          -3.7209  -23.6453  -46.7107 O.2       11 UNK        -0.5000 
     69 N          -2.8596  -22.5817  -44.9041 N.am      12 UNK        -0.5000 
     70 CA         -3.5743  -23.3441  -43.8794 C.3       12 UNK         0.1400 
     71 CB         -3.3419  -22.7103  -42.4998 C.3       12 UNK        -0.1800 
     72 C          -3.1924  -24.8362  -43.8806 C.2       12 UNK         0.5000 
     73 O          -4.0819  -25.6870  -43.8464 O.2       12 UNK        -0.5000 
     74 N          -1.8871  -25.1273  -43.9812 N.am      13 UNK        -0.5000 
     75 CA         -1.3400  -26.4820  -44.0996 C.3       13 UNK         0.1400 
     76 CB          0.1913  -26.4250  -43.9948 C.3       13 UNK        -0.1800 
     77 C          -1.7734  -27.1998  -45.3938 C.2       13 UNK         0.5000 
     78 O          -2.0436  -28.4007  -45.3629 O.2       13 UNK        -0.5000 
     79 N          -1.8683  -26.4449  -46.4961 N.am      14 UNK        -0.5000 
     80 CA         -2.3525  -26.9016  -47.8002 C.3       14 UNK         0.1400 
     81 CB         -1.8218  -25.9482  -48.8853 C.3       14 UNK        -0.1800 
     82 C          -3.8890  -27.0100  -47.8921 C.2       14 UNK         0.5000 
     83 O          -4.3902  -27.4088  -48.9430 O.2       14 UNK        -0.5000 
     84 N          -4.6157  -26.6206  -46.8328 N.am      15 UNK        -0.5000 
     85 CA         -6.0798  -26.5532  -46.7437 C.3       15 UNK         0.1400 
     86 CB         -6.6938  -27.9684  -46.7529 C.3       15 UNK        -0.1800 
     87 C          -6.6942  -25.6156  -47.8072 C.2       15 UNK         0.5000 
     88 O          -7.7209  -25.9366  -48.4075 O.2       15 UNK        -0.5000 
     89 N          -6.0187  -24.4793  -48.0286 N.am      16 UNK        -0.5000 
     90 CA         -6.3089  -23.4086  -48.9851 C.3       16 UNK         0.1400 
     91 CB         -7.6949  -22.7827  -48.7296 C.3       16 UNK        -0.1800 
     92 C          -6.0995  -23.7869  -50.4658 C.2       16 UNK         0.5000 
     93 O          -6.4082  -22.9708  -51.3332 O.2       16 UNK        -0.5000 
     94 N          -5.5346  -24.9692  -50.7598 N.am      17 UNK        -0.5000 
     95 CA         -5.2296  -25.4080  -52.1287 C.3       17 UNK         0.1400 
     96 CB         -4.8203  -26.8874  -52.1184 C.3       17 UNK        -0.1800 
     97 C          -4.1408  -24.5541  -52.8095 C.2       17 UNK         0.5000 
     98 O          -4.1590  -24.3952  -54.0305 O.2       17 UNK        -0.5000 
     99 N          -3.2347  -23.9889  -52.0001 N.am      18 UNK        -0.5000 
    100 CA        -2.1628  -23.0923  -52.4310 C.3       18 UNK         0.1400 
    101 CB        -1.0867  -23.0429  -51.3351 C.3       18 UNK        -0.1800 
    102 C         -2.6442  -21.6727  -52.7959 C.2       18 UNK         0.5000 
    103 O         -1.8544  -20.9059  -53.3494 O.2       18 UNK        -0.5000 
    104 N         -3.9119  -21.3339  -52.5079 N.am      19 UNK        -0.5000 
    105 CA        -4.5046  -20.0214  -52.7887 C.3       19 UNK         0.1400 
    106 CB        -5.8953  -19.9271  -52.1465 C.3       19 UNK        -0.1800 
    107 C         -4.5790  -19.6972  -54.2917 C.2       19 UNK         0.5000 
    108 O         -4.4648  -18.5316  -54.6708 O.2       19 UNK        -0.5000 
    109 N         -4.7386  -20.7405  -55.1172 N.am      20 UNK        -0.5000 
    110 CA        -4.7252  -20.6558  -56.5765 C.3       20 UNK         0.1400 
    111 CB        -5.3650  -21.9294  -57.1503 C.3       20 UNK        -0.1800 
    112 C         -3.3096  -20.4580  -57.1539 C.2       20 UNK         0.5000 
    113 O         -3.1814  -19.9289  -58.2586 O.2       20 UNK        -0.5000 
    114 N         -2.2802  -20.8924  -56.4134 N.am      21 UNK        -0.5000 
    115 CA        -0.8760  -20.7649  -56.7945 C.3       21 UNK         0.1400 
    116 CB        -0.0660  -21.9224  -56.1862 C.3       21 UNK        -0.1800 
    117 C         -0.3141  -19.4011  -56.3652 C.2       21 UNK         0.5000 
    118 O          0.2168  -18.6745  -57.2059 O.2       21 UNK        -0.5000 
    119 N         -0.4571  -19.0760  -55.0714 N.am      22 UNK        -0.5000 
    120 CA         0.0128  -17.8254  -54.4474 C.3       22 UNK         0.1400 
    121 C          1.5629  -17.6269  -54.4793 C.2       22 UNK         0.5000 
    122 N          2.3515  -18.6947  -54.5211 N.am      22 UNK        -0.7600 
    123 O          2.0676  -16.5080  -54.4521 O.2       22 UNK        -0.5000 
    124 C124       -0.8048  -16.5977  -54.9436 C.3       23 UNK        -0.0398 
    125 S125       -0.9438  -15.2465  -53.7187 S.3       23 UNK        -0.2404 
    126 C126       -2.5008  -15.6367  -52.8565 C.3       23 UNK        -0.0205 
    127 H127       -2.0049  -12.4669  -52.7648 H         1 UNK         0.0600 
    128 H128       -1.8547  -10.7322  -52.4746 H         1 UNK         0.0600 
    129 H129       -2.9045  -11.7141  -51.4463 H         1 UNK         0.0600 
    130 H130       -1.9278  -11.6988  -49.3952 H         1 UNK         0.3000 
    131 H131        0.9061  -11.6144  -49.0721 H         1 UNK         0.0600 
    132 H132        1.4002  -13.6455  -48.1558 H         1 UNK         0.0800 
    133 H133        0.2808  -14.1849  -49.3482 H         1 UNK         0.0800 
    134 H134       -2.6450  -13.9222  -48.1491 H         1 UNK         0.0800 
    135 H135       -2.7971  -15.3134  -47.1123 H         1 UNK         0.0800 
    136 H136       -2.4963  -14.2631  -50.5012 H         1 UNK         0.1150 
    137 H137       -1.9728  -18.1942  -52.1009 H         1 UNK         0.1150 
    138 H138       -1.6170  -17.5393  -47.8819 H         1 UNK         0.1150 
    139 H139       -1.1922  -19.9577  -50.7298 H         1 UNK         0.0800 
    140 H140       -0.6961  -19.6841  -49.0921 H         1 UNK         0.0800 
    141 H141       -3.6375  -20.4255  -46.9402 H         1 UNK         0.0800 
    142 H142       -2.0525  -19.7704  -47.1105 H         1 UNK         0.0800 
    143 H143       -2.0081  -22.5472  -48.0793 H         1 UNK         0.0600 
    144 H144       -0.3303  -20.9621  -46.4586 H         1 UNK         0.3000 
    145 H145        1.8490  -23.6337  -45.4209 H         1 UNK         0.0600 
    146 H146        3.4759  -21.9875  -46.3540 H         1 UNK         0.0600 
    147 H147        2.6561  -22.8744  -47.6314 H         1 UNK         0.0600 
    148 H148        2.1866  -21.2194  -47.2770 H         1 UNK         0.0600 
    149 H149        1.8628  -20.8717  -44.7634 H         1 UNK         0.3000 
    150 H150       -0.3625  -21.0390  -41.9562 H         1 UNK         0.0600 
    151 H151        1.8761  -21.6633  -41.0892 H         1 UNK         0.0600 
    152 H152        1.6083  -19.9359  -40.9141 H         1 UNK         0.0600 
    153 H153        2.6540  -20.5429  -42.1967 H         1 UNK         0.0600 
    154 H154        1.0648  -18.8989  -43.2438 H         1 UNK         0.3000 
    155 H155       -1.5054  -17.9833  -45.5351 H         1 UNK         0.0600 
    156 H156       -0.5285  -16.6709  -42.9517 H         1 UNK         0.0600 
    157 H157       -2.2024  -16.9038  -43.4372 H         1 UNK         0.0600 
    158 H158       -1.1686  -15.8171  -44.3534 H         1 UNK         0.0600 
    159 H159        1.1000  -16.9374  -44.8533 H         1 UNK         0.3000 
    160 H160        2.8883  -18.8594  -47.2986 H         1 UNK         0.0600 
    161 H161        2.1184  -15.8967  -47.3714 H         1 UNK         0.0600 
    162 H162        1.7379  -17.0503  -48.6440 H         1 UNK         0.0600 
    163 H163        3.4152  -16.6705  -48.2799 H         1 UNK         0.0600 
    164 H164        3.7123  -16.6673  -45.7050 H         1 UNK         0.3000 
    165 H165        4.0464  -18.1594  -42.5779 H         1 UNK         0.0600 
    166 H166        6.4903  -17.7623  -42.7332 H         1 UNK         0.0600 
    167 H167        6.0608  -19.2189  -43.6145 H         1 UNK         0.0600 
    168 H168        6.4024  -17.7345  -44.4953 H         1 UNK         0.0600 
    169 H169        5.1891  -15.7721  -43.5617 H         1 UNK         0.3000 
    170 H170        4.2500  -13.7783  -42.9168 H         1 UNK         0.0600 
    171 H171        3.9704  -14.1109  -45.4096 H         1 UNK         0.0600 
    172 H172        2.2375  -13.8577  -45.2431 H         1 UNK         0.0600 
    173 H173        3.3703  -12.5522  -44.8857 H         1 UNK         0.0600 
    174 H174        1.4976  -12.9854  -43.1211 H         1 UNK         0.3000 
    175 H175        0.4036  -13.3360  -39.9203 H         1 UNK         0.0600 
    176 H176        1.7606  -10.6922  -40.6882 H         1 UNK         0.0600 
    177 H177        0.4396  -10.8723  -39.5339 H         1 UNK         0.0600 
    178 H178        2.0110  -11.5758  -39.1865 H         1 UNK         0.0600 
    179 H179       -0.0712  -11.4446  -42.1262 H         1 UNK         0.3000 
    180 H180       -2.0488  -13.6880  -43.9975 H         1 UNK         0.0600 
    181 H181       -3.6844  -11.8135  -44.0155 H         1 UNK         0.0600 
    182 H182       -2.9918  -11.1803  -42.5220 H         1 UNK         0.0600 
    183 H183       -3.7758  -12.7506  -42.5322 H         1 UNK         0.0600 
    184 H184       -0.7681  -12.4457  -45.2626 H         1 UNK         0.3000 
    185 H185       -0.2113   -9.2254  -45.7571 H         1 UNK         0.0600 
    186 H186        2.2957   -9.2741  -45.6815 H         1 UNK         0.0600 
    187 H187        1.5988   -8.9584  -44.1038 H         1 UNK         0.0600 
    188 H188        2.2304  -10.5554  -44.4702 H         1 UNK         0.0600 
    189 H189        1.4176  -11.3813  -46.6981 H         1 UNK         0.3000 
    190 H190       -2.2586  -21.8293  -44.5805 H         1 UNK         0.3000 
    191 H191       -4.6408  -23.2765  -44.1043 H         1 UNK         0.0600 
    192 H192       -3.9087  -23.2352  -41.7300 H         1 UNK         0.0600 
    193 H193       -3.6616  -21.6681  -42.4864 H         1 UNK         0.0600 
    194 H194       -2.2918  -22.7404  -42.2105 H         1 UNK         0.0600 
    195 H195       -1.2150  -24.3649  -43.9643 H         1 UNK         0.3000 
    196 H196       -1.7160  -27.0657  -43.2570 H         1 UNK         0.0600 
    197 H197        0.6285  -25.8365  -44.8017 H         1 UNK         0.0600 
    198 H198        0.5054  -25.9809  -43.0501 H         1 UNK         0.0600 
    199 H199        0.6242  -27.4248  -44.0452 H         1 UNK         0.0600 
    200 H200       -1.5526  -25.4805  -46.4497 H         1 UNK         0.3000 
    201 H201       -1.9462  -27.8962  -47.9938 H         1 UNK         0.0600 
    202 H202       -2.2109  -24.9381  -48.7558 H         1 UNK         0.0600 
    203 H203       -2.1050  -26.2852  -49.8830 H         1 UNK         0.0600 
    204 H204       -0.7334  -25.8921  -48.8629 H         1 UNK         0.0600 
    205 H205       -4.1176  -26.2755  -46.0219 H         1 UNK         0.3000 
    206 H206       -6.3047  -26.1027  -45.7760 H         1 UNK         0.0600 
    207 H207       -6.2460  -28.5960  -45.9824 H         1 UNK         0.0600 
    208 H208       -7.7659  -27.9301  -46.5569 H         1 UNK         0.0600 
    209 H209       -6.5551  -28.4657  -47.7133 H         1 UNK         0.0600 
    210 H210       -5.1710  -24.3254  -47.4820 H         1 UNK         0.3000 
    211 H211       -5.5672  -22.6351  -48.7796 H         1 UNK         0.0600 
    212 H212       -7.8305  -21.8784  -49.3242 H         1 UNK         0.0600 
    213 H213       -7.8140  -22.5011  -47.6834 H         1 UNK         0.0600 
    214 H214       -8.5041  -23.4652  -48.9898 H         1 UNK         0.0600 
    215 H215       -5.3154  -25.6155  -50.0117 H         1 UNK         0.3000 
    216 H216       -6.1417  -25.3131  -52.7216 H         1 UNK         0.0600 
    217 H217       -3.8878  -27.0437  -51.5754 H         1 UNK         0.0600 
    218 H218       -4.6728  -27.2577  -53.1337 H         1 UNK         0.0600 
    219 H219       -5.5874  -27.5074  -51.6540 H         1 UNK         0.0600 
    220 H220       -3.3077  -24.1661  -51.0099 H         1 UNK         0.3000 
    221 H221       -1.7058  -23.5111  -53.3300 H         1 UNK         0.0600 
    222 H222       -0.6661  -24.0317  -51.1514 H         1 UNK         0.0600 
    223 H223       -1.4870  -22.6711  -50.3932 H         1 UNK         0.0600 
    224 H224       -0.2615  -22.3896  -51.6217 H         1 UNK         0.0600 
    225 H225       -4.5182  -22.0142  -52.0679 H         1 UNK         0.3000 
    226 H226       -3.8771  -19.2679  -52.3172 H         1 UNK         0.0600 
    227 H227       -6.5961  -20.6297  -52.5985 H         1 UNK         0.0600 
    228 H228       -5.8516  -20.1334  -51.0767 H         1 UNK         0.0600 
    229 H229       -6.3119  -18.9264  -52.2675 H         1 UNK         0.0600 
    230 H230       -4.8249  -21.6634  -54.7147 H         1 UNK         0.3000 
    231 H231       -5.3313  -19.8003  -56.8822 H         1 UNK         0.0600 
    232 H232       -4.8112  -22.8236  -56.8604 H         1 UNK         0.0600 
    233 H233       -5.3912  -21.8974  -58.2403 H         1 UNK         0.0600 
    234 H234       -6.3926  -22.0445  -56.8048 H         1 UNK         0.0600 
    235 H235       -2.4667  -21.2501  -55.4873 H         1 UNK         0.3000 
    236 H236       -0.7883  -20.8388  -57.8807 H         1 UNK         0.0600 
    237 H237       -0.4378  -22.8859  -56.5350 H         1 UNK         0.0600 
    238 H238        0.9832  -21.8558  -56.4764 H         1 UNK         0.0600 
    239 H239       -0.1040  -21.9263  -55.0969 H         1 UNK         0.0600 
    240 H240       -0.9151  -19.7381  -54.4487 H         1 UNK         0.3000 
    241 H241       -0.2025  -17.9558  -53.3895 H         1 UNK         0.0600 
    242 H242        3.3516  -18.5711  -54.5395 H         1 UNK         0.3800 
    243 H243        1.9600  -19.6226  -54.5386 H         1 UNK         0.3800 
    244 H244       -1.8135  -16.9044  -55.2238 H         1 UNK         0.0800 
    245 H245       -0.3662  -16.1948  -55.8578 H         1 UNK         0.0800 
    246 H246       -3.1067  -14.7313  -52.8032 H         1 UNK         0.0800 
    247 H247       -3.0929  -16.3566  -53.4232 H         1 UNK         0.0800 
@<TRIPOS>BOND
     1    1    2 1    
     2    1  127 1    
     3    1  128 1    
     4    1  129 1    
     5    2    3 2    
     6    2    4 am   BACKBONE|DICT|INTERRES
     7    4    5 1    
     8    4  130 1    
     9    5    6 1    
    10    5   65 1    
    11    5  131 1    
    12    6    7 1    
    13    6  132 1    
    14    6  133 1    
    15    7    8 1    
    16    8    9 1    
    17    8  134 1    
    18    8  135 1    
    19    9   10 ar   
    20    9   14 ar   
    21   10   11 ar   
    22   10  136 1    
    23   11   12 ar   
    24   11  126 1    
    25   12   13 ar   
    26   12  137 1    
    27   13   14 ar   
    28   13   15 1    
    29   14  138 1    
    30   15   16 1    
    31   15  139 1    
    32   15  140 1    
    33   16   17 1    
    34   17   18 1    
    35   17  141 1    
    36   17  142 1    
    37   18   19 1    
    38   18   67 1    
    39   18  143 1    
    40   19   20 am   BACKBONE|DICT|INTERRES
    41   19  144 1    
    42   20   21 2    
    43   20   22 1    
    44   22   23 1    
    45   22   24 1    
    46   22  145 1    
    47   23  146 1    
    48   23  147 1    
    49   23  148 1    
    50   24   25 am   BACKBONE|DICT|INTERRES
    51   24  149 1    
    52   25   26 2    
    53   25   27 1    
    54   27   28 1    
    55   27   29 1    
    56   27  150 1    
    57   28  151 1    
    58   28  152 1    
    59   28  153 1    
    60   29   30 am   BACKBONE|DICT|INTERRES
    61   29  154 1    
    62   30   31 2    
    63   30   32 1    
    64   32   33 1    
    65   32   34 1    
    66   32  155 1    
    67   33  156 1    
    68   33  157 1    
    69   33  158 1    
    70   34   35 am   BACKBONE|DICT|INTERRES
    71   34  159 1    
    72   35   36 2    
    73   35   37 1    
    74   37   38 1    
    75   37   39 1    
    76   37  160 1    
    77   38  161 1    
    78   38  162 1    
    79   38  163 1    
    80   39   40 am   BACKBONE|DICT|INTERRES
    81   39  164 1    
    82   40   41 2    
    83   40   42 1    
    84   42   43 1    
    85   42   44 1    
    86   42  165 1    
    87   43  166 1    
    88   43  167 1    
    89   43  168 1    
    90   44   45 am   BACKBONE|DICT|INTERRES
    91   44  169 1    
    92   45   46 2    
    93   45   47 1    
    94   47   48 1    
    95   47   49 1    
    96   47  170 1    
    97   48  171 1    
    98   48  172 1    
    99   48  173 1    
   100   49   50 am   BACKBONE|DICT|INTERRES
   101   49  174 1    
   102   50   51 2    
   103   50   52 1    
   104   52   53 1    
   105   52   54 1    
   106   52  175 1    
   107   53  176 1    
   108   53  177 1    
   109   53  178 1    
   110   54   55 am   BACKBONE|DICT|INTERRES
   111   54  179 1    
   112   55   56 2    
   113   55   57 1    
   114   57   58 1    
   115   57   59 1    
   116   57  180 1    
   117   58  181 1    
   118   58  182 1    
   119   58  183 1    
   120   59   60 am   BACKBONE|DICT|INTERRES
   121   59  184 1    
   122   60   61 2    
   123   60   62 1    
   124   62   63 1    
   125   62   64 1    
   126   62  185 1    
   127   63  186 1    
   128   63  187 1    
   129   63  188 1    
   130   64   65 am   BACKBONE|DICT|INTERRES
   131   64  189 1    
   132   65   66 2    
   133   67   68 2    
   134   67   69 am   BACKBONE|DICT|INTERRES
   135   69   70 1    
   136   69  190 1    
   137   70   71 1    
   138   70   72 1    
   139   70  191 1    
   140   71  192 1    
   141   71  193 1    
   142   71  194 1    
   143   72   73 2    
   144   72   74 am   BACKBONE|DICT|INTERRES
   145   74   75 1    
   146   74  195 1    
   147   75   76 1    
   148   75   77 1    
   149   75  196 1    
   150   76  197 1    
   151   76  198 1    
   152   76  199 1    
   153   77   78 2    
   154   77   79 am   BACKBONE|DICT|INTERRES
   155   79   80 1    
   156   79  200 1    
   157   80   81 1    
   158   80   82 1    
   159   80  201 1    
   160   81  202 1    
   161   81  203 1    
   162   81  204 1    
   163   82   83 2    
   164   82   84 am   BACKBONE|DICT|INTERRES
   165   84   85 1    
   166   84  205 1    
   167   85   86 1    
   168   85   87 1    
   169   85  206 1    
   170   86  207 1    
   171   86  208 1    
   172   86  209 1    
   173   87   88 2    
   174   87   89 am   BACKBONE|DICT|INTERRES
   175   89   90 1    
   176   89  210 1    
   177   90   91 1    
   178   90   92 1    
   179   90  211 1    
   180   91  212 1    
   181   91  213 1    
   182   91  214 1    
   183   92   93 2    
   184   92   94 am   BACKBONE|DICT|INTERRES
   185   94   95 1    
   186   94  215 1    
   187   95   96 1    
   188   95   97 1    
   189   95  216 1    
   190   96  217 1    
   191   96  218 1    
   192   96  219 1    
   193   97   98 2    
   194   97   99 am   BACKBONE|DICT|INTERRES
   195   99  100 1    
   196   99  220 1    
   197  100  101 1    
   198  100  102 1    
   199  100  221 1    
   200  101  222 1    
   201  101  223 1    
   202  101  224 1    
   203  102  103 2    
   204  102  104 am   BACKBONE|DICT|INTERRES
   205  104  105 1    
   206  104  225 1    
   207  105  106 1    
   208  105  107 1    
   209  105  226 1    
   210  106  227 1    
   211  106  228 1    
   212  106  229 1    
   213  107  108 2    
   214  107  109 am   BACKBONE|DICT|INTERRES
   215  109  110 1    
   216  109  230 1    
   217  110  111 1    
   218  110  112 1    
   219  110  231 1    
   220  111  232 1    
   221  111  233 1    
   222  111  234 1    
   223  112  113 2    
   224  112  114 am   BACKBONE|DICT|INTERRES
   225  114  115 1    
   226  114  235 1    
   227  115  116 1    
   228  115  117 1    
   229  115  236 1    
   230  116  237 1    
   231  116  238 1    
   232  116  239 1    
   233  117  118 2    
   234  117  119 am   BACKBONE|DICT|INTERRES
   235  119  120 1    
   236  119  240 1    
   237  120  121 1    
   238  120  124 1    
   239  120  241 1    
   240  121  122 am   BACKBONE|DICT|INTERRES
   241  121  123 2    
   242  122  242 1    
   243  122  243 1    
   244  124  125 1    
   245  124  244 1    
   246  124  245 1    
   247  125  126 1    
   248  126  246 1    
   249  126  247 1    
@<TRIPOS>SUBSTRUCTURE
     1 UNK         1 GROUP             0       ****    0 ROOT    
