@<TRIPOS>MOLECULE
3R540
247   249    1
SMALL
USER_CHARGES


@<TRIPOS>ATOM
      1 CA         -3.2329  -14.4374  -45.2543 C.3       0 UNK        -0.1800 
      2 C          -3.7971  -13.0322  -45.4669 C.2       0 UNK         0.5000 
      3 O          -4.1655  -12.3908  -44.4859 O.2       0 UNK        -0.5000 
      4 N          -3.9027  -12.4970  -46.6940 N.am      1 UNK        -0.5000 
      5 CA         -3.4943  -13.0422  -47.9992 C.3       1 UNK         0.1400 
      6 C6         -4.2389  -14.3409  -48.4208 C.3       23 UNK        -0.0398 
      7 S7         -6.0449  -14.1044  -48.5326 S.3       23 UNK        -0.2404 
      8 C8         -6.6599  -15.0566  -47.0997 C.3       23 UNK        -0.0205 
      9 C9         -6.4392  -16.5667  -47.1859 C.ar      23 UNK        -0.0193 
     10 C10        -6.5410  -17.2523  -48.4013 C.ar      23 UNK        -0.1150 
     11 C11        -6.3963  -18.6412  -48.4543 C.ar      23 UNK        -0.0193 
     12 C12        -6.1462  -19.3537  -47.2778 C.ar      23 UNK        -0.1150 
     13 C13        -6.0482  -18.6857  -46.0540 C.ar      23 UNK        -0.0193 
     14 C14        -6.1904  -17.2943  -46.0170 C.ar      23 UNK        -0.1150 
     15 C15        -5.8398  -19.4659  -44.7632 C.3       23 UNK        -0.0205 
     16 S16        -4.0949  -19.5051  -44.2523 S.3       23 UNK        -0.2404 
     17 C17        -3.4559  -20.9198  -45.2105 C.3       23 UNK        -0.0398 
     18 CA         -1.9953  -21.2651  -44.8133 C.3       11 UNK         0.1400 
     19 N          -1.8083  -21.6450  -43.4071 N.am      11 UNK        -0.5000 
     20 C          -2.2939  -22.7342  -42.7917 C.2       10 UNK         0.5000 
     21 O          -3.1332  -23.4848  -43.2895 O.2       10 UNK        -0.5000 
     22 CA         -1.7241  -23.0751  -41.4017 C.3       10 UNK         0.1400 
     23 CB         -0.6240  -24.1420  -41.5287 C.3       10 UNK        -0.1800 
     24 N          -1.1683  -21.9049  -40.7203 N.am      10 UNK        -0.5000 
     25 C          -1.4537  -21.5357  -39.4639 C.2       9 UNK         0.5000 
     26 O          -2.1693  -22.1865  -38.7011 O.2       9 UNK        -0.5000 
     27 CA         -0.8527  -20.1986  -38.9767 C.3       9 UNK         0.1400 
     28 CB          0.4807  -20.4402  -38.2533 C.3       9 UNK        -0.1800 
     29 N          -0.6382  -19.2380  -40.0615 N.am      9 UNK        -0.5000 
     30 C          -1.6093  -18.7214  -40.8261 C.2       8 UNK         0.5000 
     31 O          -2.8076  -18.8703  -40.5850 O.2       8 UNK        -0.5000 
     32 CA         -1.1919  -17.9325  -42.0852 C.3       8 UNK         0.1400 
     33 CB         -1.5480  -16.4503  -41.9184 C.3       8 UNK        -0.1800 
     34 N           0.2115  -18.0408  -42.5129 N.am      8 UNK        -0.5000 
     35 C           0.8880  -19.1643  -42.7928 C.2       7 UNK         0.5000 
     36 O           0.4490  -20.2997  -42.5982 O.2       7 UNK        -0.5000 
     37 CA          2.2677  -18.9616  -43.4409 C.3       7 UNK         0.1400 
     38 CB          3.0706  -20.2692  -43.5902 C.3       7 UNK        -0.1800 
     39 N           2.1244  -18.2663  -44.7213 N.am      7 UNK        -0.5000 
     40 C           1.5034  -18.6980  -45.8306 C.2       6 UNK         0.5000 
     41 O           1.0486  -19.8326  -45.9869 O.2       6 UNK        -0.5000 
     42 CA          1.3371  -17.6690  -46.9617 C.3       6 UNK         0.1400 
     43 CB         -0.0628  -17.0413  -46.8966 C.3       6 UNK        -0.1800 
     44 N           2.3428  -16.6079  -46.9449 N.am      6 UNK        -0.5000 
     45 C           3.6390  -16.7721  -47.2446 C.2       5 UNK         0.5000 
     46 O           4.1360  -17.8475  -47.5797 O.2       5 UNK        -0.5000 
     47 CA          4.5296  -15.5240  -47.1354 C.3       5 UNK         0.1400 
     48 CB          4.4349  -14.6755  -48.4134 C.3       5 UNK        -0.1800 
     49 N           4.1530  -14.7071  -45.9821 N.am      5 UNK        -0.5000 
     50 C           4.6253  -14.8829  -44.7411 C.2       4 UNK         0.5000 
     51 O           5.4720  -15.7263  -44.4448 O.2       4 UNK        -0.5000 
     52 CA          4.0555  -13.9680  -43.6398 C.3       4 UNK         0.1400 
     53 CB          4.9179  -12.7054  -43.4913 C.3       4 UNK        -0.1800 
     54 N           2.6664  -13.5722  -43.8774 N.am      4 UNK        -0.5000 
     55 C           1.6160  -14.3948  -43.7659 C.2       3 UNK         0.5000 
     56 O           1.6986  -15.5812  -43.4409 O.2       3 UNK        -0.5000 
     57 CA          0.2338  -13.8014  -44.0922 C.3       3 UNK         0.1400 
     58 CB         -0.3652  -13.1311  -42.8462 C.3       3 UNK        -0.1800 
     59 N           0.1716  -12.8545  -45.2099 N.am      3 UNK        -0.5000 
     60 C           0.6797  -13.0223  -46.4385 C.2       2 UNK         0.5000 
     61 O           1.4341  -13.9424  -46.7527 O.2       2 UNK        -0.5000 
     62 CA          0.2004  -12.0059  -47.4915 C.3       2 UNK         0.1400 
     63 CB          0.9436  -12.1300  -48.8388 C.3       2 UNK        -0.1800 
     64 N          -1.2566  -12.0955  -47.6640 N.am      2 UNK        -0.5000 
     65 C          -1.9580  -13.1506  -48.1137 C.2       1 UNK         0.5000 
     66 O          -1.4500  -14.1787  -48.5590 O.2       1 UNK        -0.5000 
     67 C          -1.3376  -22.3269  -45.7189 C.2       11 UNK         0.5000 
     68 O          -1.9699  -22.8626  -46.6309 O.2       11 UNK        -0.5000 
     69 N          -0.0661  -22.6325  -45.4180 N.am      12 UNK        -0.5000 
     70 CA          0.7387  -23.6689  -46.0660 C.3       12 UNK         0.1400 
     71 CB          2.1148  -23.7473  -45.3904 C.3       12 UNK        -0.1800 
     72 C           0.8955  -23.4756  -47.5840 C.2       12 UNK         0.5000 
     73 O           0.9334  -24.4660  -48.3128 O.2       12 UNK        -0.5000 
     74 N           0.9279  -22.2161  -48.0438 N.am      13 UNK        -0.5000 
     75 CA          0.9493  -21.8756  -49.4680 C.3       13 UNK         0.1400 
     76 CB          1.1977  -20.3733  -49.6416 C.3       13 UNK        -0.1800 
     77 C          -0.3388  -22.2864  -50.2034 C.2       13 UNK         0.5000 
     78 O          -0.2651  -22.6889  -51.3629 O.2       13 UNK        -0.5000 
     79 N          -1.4892  -22.2071  -49.5201 N.am      14 UNK        -0.5000 
     80 CA         -2.7805  -22.6452  -50.0483 C.3       14 UNK         0.1400 
     81 CB         -3.9221  -21.9949  -49.2560 C.3       14 UNK        -0.1800 
     82 C          -2.9070  -24.1756  -50.0446 C.2       14 UNK         0.5000 
     83 O          -3.4476  -24.7352  -50.9977 O.2       14 UNK        -0.5000 
     84 N          -2.3639  -24.8256  -49.0051 N.am      15 UNK        -0.5000 
     85 CA         -2.2791  -26.2841  -48.8933 C.3       15 UNK         0.1400 
     86 CB         -1.7978  -26.6648  -47.4852 C.3       15 UNK        -0.1800 
     87 C          -1.3728  -26.9062  -49.9748 C.2       15 UNK         0.5000 
     88 O          -1.7221  -27.9416  -50.5425 O.2       15 UNK        -0.5000 
     89 N          -0.2467  -26.2405  -50.2653 N.am      16 UNK        -0.5000 
     90 CA          0.6870  -26.5924  -51.3371 C.3       16 UNK         0.1400 
     91 CB          2.0309  -25.8991  -51.0617 C.3       16 UNK        -0.1800 
     92 C           0.1812  -26.2157  -52.7451 C.2       16 UNK         0.5000 
     93 O           0.7286  -26.7157  -53.7284 O.2       16 UNK        -0.5000 
     94 N          -0.8228  -25.3277  -52.8155 N.am      17 UNK        -0.5000 
     95 CA         -1.3792  -24.6928  -54.0163 C.3       17 UNK         0.1400 
     96 CB         -2.0896  -25.7272  -54.9130 C.3       17 UNK        -0.1800 
     97 C          -0.3293  -23.8479  -54.7711 C.2       17 UNK         0.5000 
     98 O          -0.3007  -23.8288  -56.0032 O.2       17 UNK        -0.5000 
     99 N           0.5203  -23.1518  -54.0070 N.am      18 UNK        -0.5000 
    100 CA         1.6574  -22.3587  -54.4685 C.3       18 UNK         0.1400 
    101 CB         2.7190  -22.3449  -53.3530 C.3       18 UNK        -0.1800 
    102 C          1.2283  -20.9427  -54.9036 C.2       18 UNK         0.5000 
    103 O          1.7623  -19.9525  -54.4005 O.2       18 UNK        -0.5000 
    104 N          0.2568  -20.8802  -55.8264 N.am      19 UNK        -0.5000 
    105 CA        -0.3357  -19.6725  -56.4173 C.3       19 UNK         0.1400 
    106 CB         0.6893  -18.9525  -57.3187 C.3       19 UNK        -0.1800 
    107 C         -0.9867  -18.7354  -55.3748 C.2       19 UNK         0.5000 
    108 O         -0.8793  -17.5118  -55.4826 O.2       19 UNK        -0.5000 
    109 N         -1.6458  -19.3355  -54.3742 N.am      20 UNK        -0.5000 
    110 CA        -2.3750  -18.6415  -53.3131 C.3       20 UNK         0.1400 
    111 CB        -2.7327  -19.6584  -52.2180 C.3       20 UNK        -0.1800 
    112 C         -3.6447  -17.9402  -53.8340 C.2       20 UNK         0.5000 
    113 O         -4.1763  -18.3132  -54.8837 O.2       20 UNK        -0.5000 
    114 N         -4.1364  -16.9674  -53.0543 N.am      21 UNK        -0.5000 
    115 CA        -5.3008  -16.1231  -53.3557 C.3       21 UNK         0.1400 
    116 CB        -5.4723  -15.1032  -52.2192 C.3       21 UNK        -0.1800 
    117 C         -6.6219  -16.8866  -53.5893 C.2       21 UNK         0.5000 
    118 O         -7.5106  -16.3662  -54.2650 O.2       21 UNK        -0.5000 
    119 N         -6.7177  -18.1036  -53.0425 N.am      22 UNK        -0.5000 
    120 CA        -7.8301  -19.0425  -53.2535 C.3       22 UNK         0.1400 
    121 C         -7.7940  -19.7710  -54.6310 C.2       22 UNK         0.5000 
    122 N         -6.7309  -19.6714  -55.4220 N.am      22 UNK        -0.7600 
    123 O         -8.7592  -20.4373  -54.9949 O.2       22 UNK        -0.5000 
    124 C124       -7.9431  -20.0660  -52.0938 C.3       23 UNK        -0.0398 
    125 S125       -8.1931  -19.2705  -50.4696 S.3       23 UNK        -0.2404 
    126 C126       -6.5093  -19.3631  -49.7868 C.3       23 UNK        -0.0205 
    127 H127       -2.9139  -14.5540  -44.2194 H         1 UNK         0.0600 
    128 H128       -2.3718  -14.6508  -45.8833 H         1 UNK         0.0600 
    129 H129       -3.9967  -15.1903  -45.4409 H         1 UNK         0.0600 
    130 H130       -4.3121  -11.5752  -46.7526 H         1 UNK         0.3000 
    131 H131       -3.7701  -12.2779  -48.7277 H         1 UNK         0.0600 
    132 H132       -4.0054  -15.1765  -47.7626 H         1 UNK         0.0800 
    133 H133       -3.9075  -14.6535  -49.4123 H         1 UNK         0.0800 
    134 H134       -6.2124  -14.6531  -46.1916 H         1 UNK         0.0800 
    135 H135       -7.7323  -14.8798  -47.0110 H         1 UNK         0.0800 
    136 H136       -6.7548  -16.7114  -49.3119 H         1 UNK         0.1150 
    137 H137       -6.0418  -20.4292  -47.3107 H         1 UNK         0.1150 
    138 H138       -6.1277  -16.7804  -45.0678 H         1 UNK         0.1150 
    139 H139       -6.4223  -19.0020  -43.9659 H         1 UNK         0.0800 
    140 H140       -6.2231  -20.4828  -44.8597 H         1 UNK         0.0800 
    141 H141       -3.5094  -20.6546  -46.2676 H         1 UNK         0.0800 
    142 H142       -4.1122  -21.7800  -45.0732 H         1 UNK         0.0800 
    143 H143       -1.4066  -20.3577  -44.9559 H         1 UNK         0.0600 
    144 H144       -1.0764  -21.1185  -42.9395 H         1 UNK         0.3000 
    145 H145       -2.5483  -23.4955  -40.8218 H         1 UNK         0.0600 
    146 H146       -0.2591  -24.4492  -40.5485 H         1 UNK         0.0600 
    147 H147       -0.9987  -25.0349  -42.0308 H         1 UNK         0.0600 
    148 H148        0.2271  -23.7738  -42.1034 H         1 UNK         0.0600 
    149 H149       -0.5486  -21.3128  -41.2632 H         1 UNK         0.3000 
    150 H150       -1.5558  -19.7569  -38.2676 H         1 UNK         0.0600 
    151 H151        0.3533  -21.1346  -37.4217 H         1 UNK         0.0600 
    152 H152        0.8810  -19.5131  -37.8426 H         1 UNK         0.0600 
    153 H153        1.2305  -20.8638  -38.9229 H         1 UNK         0.0600 
    154 H154        0.3185  -19.0645  -40.3314 H         1 UNK         0.3000 
    155 H155       -1.7931  -18.3286  -42.9040 H         1 UNK         0.0600 
    156 H156       -1.4465  -15.9230  -42.8630 H         1 UNK         0.0600 
    157 H157       -0.9074  -15.9666  -41.1806 H         1 UNK         0.0600 
    158 H158       -2.5817  -16.3213  -41.5943 H         1 UNK         0.0600 
    159 H159        0.6753  -17.1619  -42.7225 H         1 UNK         0.3000 
    160 H160        2.8344  -18.2980  -42.7860 H         1 UNK         0.0600 
    161 H161        2.5343  -21.0112  -44.1788 H         1 UNK         0.0600 
    162 H162        3.2704  -20.7140  -42.6148 H         1 UNK         0.0600 
    163 H163        4.0318  -20.0892  -44.0715 H         1 UNK         0.0600 
    164 H164        2.3988  -17.2923  -44.7050 H         1 UNK         0.3000 
    165 H165        1.4316  -18.1952  -47.9096 H         1 UNK         0.0600 
    166 H166       -0.2055  -16.4690  -45.9797 H         1 UNK         0.0600 
    167 H167       -0.2282  -16.3711  -47.7393 H         1 UNK         0.0600 
    168 H168       -0.8403  -17.8057  -46.9325 H         1 UNK         0.0600 
    169 H169        2.0080  -15.6663  -46.7510 H         1 UNK         0.3000 
    170 H170        5.5649  -15.8545  -47.0271 H         1 UNK         0.0600 
    171 H171        4.7382  -15.2534  -49.2872 H         1 UNK         0.0600 
    172 H172        3.4191  -14.3210  -48.5920 H         1 UNK         0.0600 
    173 H173        5.0880  -13.8046  -48.3567 H         1 UNK         0.0600 
    174 H174        3.3969  -14.0490  -46.1288 H         1 UNK         0.3000 
    175 H175        4.0968  -14.5204  -42.6985 H         1 UNK         0.0600 
    176 H176        4.9024  -12.0979  -44.3971 H         1 UNK         0.0600 
    177 H177        4.5709  -12.0856  -42.6643 H         1 UNK         0.0600 
    178 H178        5.9578  -12.9645  -43.2875 H         1 UNK         0.0600 
    179 H179        2.5030  -12.6161  -44.1567 H         1 UNK         0.3000 
    180 H180       -0.3999  -14.6416  -44.3726 H         1 UNK         0.0600 
    181 H181        0.1599  -12.2079  -42.5980 H         1 UNK         0.0600 
    182 H182       -0.3024  -13.7811  -41.9735 H         1 UNK         0.0600 
    183 H183       -1.4176  -12.8879  -42.9937 H         1 UNK         0.0600 
    184 H184       -0.4218  -12.0519  -45.0594 H         1 UNK         0.3000 
    185 H185        0.4117  -11.0126  -47.0926 H         1 UNK         0.0600 
    186 H186        0.5805  -11.3961  -49.5580 H         1 UNK         0.0600 
    187 H187        2.0121  -11.9559  -48.7071 H         1 UNK         0.0600 
    188 H188        0.8319  -13.1191  -49.2838 H         1 UNK         0.0600 
    189 H189       -1.7815  -11.3072  -47.3115 H         1 UNK         0.3000 
    190 H190        0.3876  -22.1050  -44.6855 H         1 UNK         0.3000 
    191 H191        0.2265  -24.6188  -45.9044 H         1 UNK         0.0600 
    192 H192        2.0234  -23.8814  -44.3123 H         1 UNK         0.0600 
    193 H193        2.6869  -24.5923  -45.7757 H         1 UNK         0.0600 
    194 H194        2.7031  -22.8479  -45.5728 H         1 UNK         0.0600 
    195 H195        0.9030  -21.4521  -47.3764 H         1 UNK         0.3000 
    196 H196        1.7800  -22.4134  -49.9297 H         1 UNK         0.0600 
    197 H197        1.2663  -20.1085  -50.6979 H         1 UNK         0.0600 
    198 H198        2.1339  -20.0731  -49.1705 H         1 UNK         0.0600 
    199 H199        0.3878  -19.7849  -49.2092 H         1 UNK         0.0600 
    200 H200       -1.4646  -21.9501  -48.5422 H         1 UNK         0.3000 
    201 H201       -2.8626  -22.3146  -51.0850 H         1 UNK         0.0600 
    202 H202       -3.8478  -20.9076  -49.2776 H         1 UNK         0.0600 
    203 H203       -3.9323  -22.3112  -48.2137 H         1 UNK         0.0600 
    204 H204       -4.8854  -22.2723  -49.6844 H         1 UNK         0.0600 
    205 H205       -1.9765  -24.2792  -48.2445 H         1 UNK         0.3000 
    206 H206       -3.2851  -26.6870  -49.0282 H         1 UNK         0.0600 
    207 H207       -2.4372  -26.2298  -46.7166 H         1 UNK         0.0600 
    208 H208       -1.8139  -27.7468  -47.3495 H         1 UNK         0.0600 
    209 H209       -0.7774  -26.3293  -47.3024 H         1 UNK         0.0600 
    210 H210        0.0116  -25.4455  -49.6867 H         1 UNK         0.3000 
    211 H211        0.8470  -27.6724  -51.3203 H         1 UNK         0.0600 
    212 H212        1.9280  -24.8131  -51.0611 H         1 UNK         0.0600 
    213 H213        2.7708  -26.1586  -51.8198 H         1 UNK         0.0600 
    214 H214        2.4378  -26.1969  -50.0952 H         1 UNK         0.0600 
    215 H215       -1.1851  -24.9768  -51.9399 H         1 UNK         0.3000 
    216 H216       -2.1352  -23.9903  -53.6626 H         1 UNK         0.0600 
    217 H217       -2.8246  -26.2989  -54.3463 H         1 UNK         0.0600 
    218 H218       -1.3866  -26.4315  -55.3585 H         1 UNK         0.0600 
    219 H219       -2.6203  -25.2361  -55.7294 H         1 UNK         0.0600 
    220 H220        0.3466  -23.1346  -53.0034 H         1 UNK         0.3000 
    221 H221        2.0987  -22.8449  -55.3409 H         1 UNK         0.0600 
    222 H222        2.3460  -21.8612  -52.4496 H         1 UNK         0.0600 
    223 H223        3.0246  -23.3572  -53.0880 H         1 UNK         0.0600 
    224 H224        3.6145  -21.8087  -53.6694 H         1 UNK         0.0600 
    225 H225       -0.1116  -21.7650  -56.1600 H         1 UNK         0.3000 
    226 H226       -1.1489  -20.0157  -57.0584 H         1 UNK         0.0600 
    227 H227        1.5135  -18.5335  -56.7407 H         1 UNK         0.0600 
    228 H228        1.1105  -19.6333  -58.0584 H         1 UNK         0.0600 
    229 H229        0.2225  -18.1318  -57.8646 H         1 UNK         0.0600 
    230 H230       -1.6951  -20.3426  -54.3726 H         1 UNK         0.3000 
    231 H231       -1.7134  -17.8849  -52.8860 H         1 UNK         0.0600 
    232 H232       -3.2281  -19.1771  -51.3740 H         1 UNK         0.0600 
    233 H233       -1.8370  -20.1429  -51.8296 H         1 UNK         0.0600 
    234 H234       -3.4010  -20.4344  -52.5937 H         1 UNK         0.0600 
    235 H235       -3.6430  -16.7406  -52.2032 H         1 UNK         0.3000 
    236 H236       -5.0787  -15.5782  -54.2754 H         1 UNK         0.0600 
    237 H237       -4.5849  -14.4803  -52.1063 H         1 UNK         0.0600 
    238 H238       -6.3127  -14.4353  -52.4130 H         1 UNK         0.0600 
    239 H239       -5.6608  -15.5972  -51.2655 H         1 UNK         0.0600 
    240 H240       -5.9304  -18.4514  -52.5201 H         1 UNK         0.3000 
    241 H241       -8.7531  -18.4594  -53.2569 H         1 UNK         0.0600 
    242 H242       -5.9157  -19.1277  -55.1540 H         1 UNK         0.3800 
    243 H243       -6.7347  -20.1470  -56.3101 H         1 UNK         0.3800 
    244 H244       -7.0625  -20.7098  -52.0605 H         1 UNK         0.0800 
    245 H245       -8.7935  -20.7303  -52.2577 H         1 UNK         0.0800 
    246 H246       -6.2451  -20.4132  -49.6761 H         1 UNK         0.0800 
    247 H247       -5.7946  -18.9286  -50.4855 H         1 UNK         0.0800 
@<TRIPOS>BOND
     1    1    2 1    
     2    1  127 1    
     3    1  128 1    
     4    1  129 1    
     5    2    3 2    
     6    2    4 am   BACKBONE|DICT|INTERRES
     7    4    5 1    
     8    4  130 1    
     9    5    6 1    
    10    5   65 1    
    11    5  131 1    
    12    6    7 1    
    13    6  132 1    
    14    6  133 1    
    15    7    8 1    
    16    8    9 1    
    17    8  134 1    
    18    8  135 1    
    19    9   10 ar   
    20    9   14 ar   
    21   10   11 ar   
    22   10  136 1    
    23   11   12 ar   
    24   11  126 1    
    25   12   13 ar   
    26   12  137 1    
    27   13   14 ar   
    28   13   15 1    
    29   14  138 1    
    30   15   16 1    
    31   15  139 1    
    32   15  140 1    
    33   16   17 1    
    34   17   18 1    
    35   17  141 1    
    36   17  142 1    
    37   18   19 1    
    38   18   67 1    
    39   18  143 1    
    40   19   20 am   BACKBONE|DICT|INTERRES
    41   19  144 1    
    42   20   21 2    
    43   20   22 1    
    44   22   23 1    
    45   22   24 1    
    46   22  145 1    
    47   23  146 1    
    48   23  147 1    
    49   23  148 1    
    50   24   25 am   BACKBONE|DICT|INTERRES
    51   24  149 1    
    52   25   26 2    
    53   25   27 1    
    54   27   28 1    
    55   27   29 1    
    56   27  150 1    
    57   28  151 1    
    58   28  152 1    
    59   28  153 1    
    60   29   30 am   BACKBONE|DICT|INTERRES
    61   29  154 1    
    62   30   31 2    
    63   30   32 1    
    64   32   33 1    
    65   32   34 1    
    66   32  155 1    
    67   33  156 1    
    68   33  157 1    
    69   33  158 1    
    70   34   35 am   BACKBONE|DICT|INTERRES
    71   34  159 1    
    72   35   36 2    
    73   35   37 1    
    74   37   38 1    
    75   37   39 1    
    76   37  160 1    
    77   38  161 1    
    78   38  162 1    
    79   38  163 1    
    80   39   40 am   BACKBONE|DICT|INTERRES
    81   39  164 1    
    82   40   41 2    
    83   40   42 1    
    84   42   43 1    
    85   42   44 1    
    86   42  165 1    
    87   43  166 1    
    88   43  167 1    
    89   43  168 1    
    90   44   45 am   BACKBONE|DICT|INTERRES
    91   44  169 1    
    92   45   46 2    
    93   45   47 1    
    94   47   48 1    
    95   47   49 1    
    96   47  170 1    
    97   48  171 1    
    98   48  172 1    
    99   48  173 1    
   100   49   50 am   BACKBONE|DICT|INTERRES
   101   49  174 1    
   102   50   51 2    
   103   50   52 1    
   104   52   53 1    
   105   52   54 1    
   106   52  175 1    
   107   53  176 1    
   108   53  177 1    
   109   53  178 1    
   110   54   55 am   BACKBONE|DICT|INTERRES
   111   54  179 1    
   112   55   56 2    
   113   55   57 1    
   114   57   58 1    
   115   57   59 1    
   116   57  180 1    
   117   58  181 1    
   118   58  182 1    
   119   58  183 1    
   120   59   60 am   BACKBONE|DICT|INTERRES
   121   59  184 1    
   122   60   61 2    
   123   60   62 1    
   124   62   63 1    
   125   62   64 1    
   126   62  185 1    
   127   63  186 1    
   128   63  187 1    
   129   63  188 1    
   130   64   65 am   BACKBONE|DICT|INTERRES
   131   64  189 1    
   132   65   66 2    
   133   67   68 2    
   134   67   69 am   BACKBONE|DICT|INTERRES
   135   69   70 1    
   136   69  190 1    
   137   70   71 1    
   138   70   72 1    
   139   70  191 1    
   140   71  192 1    
   141   71  193 1    
   142   71  194 1    
   143   72   73 2    
   144   72   74 am   BACKBONE|DICT|INTERRES
   145   74   75 1    
   146   74  195 1    
   147   75   76 1    
   148   75   77 1    
   149   75  196 1    
   150   76  197 1    
   151   76  198 1    
   152   76  199 1    
   153   77   78 2    
   154   77   79 am   BACKBONE|DICT|INTERRES
   155   79   80 1    
   156   79  200 1    
   157   80   81 1    
   158   80   82 1    
   159   80  201 1    
   160   81  202 1    
   161   81  203 1    
   162   81  204 1    
   163   82   83 2    
   164   82   84 am   BACKBONE|DICT|INTERRES
   165   84   85 1    
   166   84  205 1    
   167   85   86 1    
   168   85   87 1    
   169   85  206 1    
   170   86  207 1    
   171   86  208 1    
   172   86  209 1    
   173   87   88 2    
   174   87   89 am   BACKBONE|DICT|INTERRES
   175   89   90 1    
   176   89  210 1    
   177   90   91 1    
   178   90   92 1    
   179   90  211 1    
   180   91  212 1    
   181   91  213 1    
   182   91  214 1    
   183   92   93 2    
   184   92   94 am   BACKBONE|DICT|INTERRES
   185   94   95 1    
   186   94  215 1    
   187   95   96 1    
   188   95   97 1    
   189   95  216 1    
   190   96  217 1    
   191   96  218 1    
   192   96  219 1    
   193   97   98 2    
   194   97   99 am   BACKBONE|DICT|INTERRES
   195   99  100 1    
   196   99  220 1    
   197  100  101 1    
   198  100  102 1    
   199  100  221 1    
   200  101  222 1    
   201  101  223 1    
   202  101  224 1    
   203  102  103 2    
   204  102  104 am   BACKBONE|DICT|INTERRES
   205  104  105 1    
   206  104  225 1    
   207  105  106 1    
   208  105  107 1    
   209  105  226 1    
   210  106  227 1    
   211  106  228 1    
   212  106  229 1    
   213  107  108 2    
   214  107  109 am   BACKBONE|DICT|INTERRES
   215  109  110 1    
   216  109  230 1    
   217  110  111 1    
   218  110  112 1    
   219  110  231 1    
   220  111  232 1    
   221  111  233 1    
   222  111  234 1    
   223  112  113 2    
   224  112  114 am   BACKBONE|DICT|INTERRES
   225  114  115 1    
   226  114  235 1    
   227  115  116 1    
   228  115  117 1    
   229  115  236 1    
   230  116  237 1    
   231  116  238 1    
   232  116  239 1    
   233  117  118 2    
   234  117  119 am   BACKBONE|DICT|INTERRES
   235  119  120 1    
   236  119  240 1    
   237  120  121 1    
   238  120  124 1    
   239  120  241 1    
   240  121  122 am   BACKBONE|DICT|INTERRES
   241  121  123 2    
   242  122  242 1    
   243  122  243 1    
   244  124  125 1    
   245  124  244 1    
   246  124  245 1    
   247  125  126 1    
   248  126  246 1    
   249  126  247 1    
@<TRIPOS>SUBSTRUCTURE
     1 UNK         1 GROUP             0       ****    0 ROOT    
