@<TRIPOS>MOLECULE
3R540
247   249    1
SMALL
USER_CHARGES


@<TRIPOS>ATOM
      1 CA          2.4892  -11.2331  -47.8396 C.3       0 UNK        -0.1800 
      2 C           1.1113  -11.4252  -48.4567 C.2       0 UNK         0.5000 
      3 O           0.9876  -11.4397  -49.6810 O.2       0 UNK        -0.5000 
      4 N           0.0772  -11.5700  -47.6160 N.am      1 UNK        -0.5000 
      5 CA         -1.3199  -11.7757  -48.0239 C.3       1 UNK         0.1400 
      6 C6         -2.3062  -11.5038  -46.8627 C.3       23 UNK        -0.0398 
      7 S7         -2.0601  -12.5509  -45.3821 S.3       23 UNK        -0.2404 
      8 C8         -3.7684  -13.0342  -44.9802 C.3       23 UNK        -0.0205 
      9 C9         -4.1821  -14.3109  -45.6956 C.ar      23 UNK        -0.0193 
     10 C10        -4.5916  -14.2782  -47.0315 C.ar      23 UNK        -0.1150 
     11 C11        -4.9690  -15.4503  -47.6913 C.ar      23 UNK        -0.0193 
     12 C12        -4.9646  -16.6607  -46.9922 C.ar      23 UNK        -0.1150 
     13 C13        -4.5550  -16.7085  -45.6570 C.ar      23 UNK        -0.0193 
     14 C14        -4.1659  -15.5304  -45.0140 C.ar      23 UNK        -0.1150 
     15 C15        -4.5248  -18.0295  -44.9086 C.3       23 UNK        -0.0205 
     16 S16        -2.8208  -18.6330  -44.7337 S.3       23 UNK        -0.2404 
     17 C17        -3.0963  -20.2233  -43.8844 C.3       23 UNK        -0.0398 
     18 CA         -2.7146  -21.4265  -44.7774 C.3       11 UNK         0.1400 
     19 N          -1.3278  -21.3464  -45.2335 N.am      11 UNK        -0.5000 
     20 C          -0.8117  -22.0550  -46.2410 C.2       10 UNK         0.5000 
     21 O          -1.4523  -22.8581  -46.9140 O.2       10 UNK        -0.5000 
     22 CA          0.6821  -21.8528  -46.5185 C.3       10 UNK         0.1400 
     23 CB          0.8974  -20.5809  -47.3482 C.3       10 UNK        -0.1800 
     24 N           1.4593  -21.7787  -45.2816 N.am      10 UNK        -0.5000 
     25 C           1.6235  -22.8084  -44.4398 C.2       9 UNK         0.5000 
     26 O           1.1437  -23.9265  -44.6275 O.2       9 UNK        -0.5000 
     27 CA          2.4213  -22.5421  -43.1513 C.3       9 UNK         0.1400 
     28 CB          3.9163  -22.8034  -43.3865 C.3       9 UNK        -0.1800 
     29 N           2.2503  -21.2031  -42.5794 N.am      9 UNK        -0.5000 
     30 C           1.0868  -20.6329  -42.2347 C.2       8 UNK         0.5000 
     31 O          -0.0145  -21.1283  -42.4823 O.2       8 UNK        -0.5000 
     32 CA          1.1557  -19.3061  -41.4606 C.3       8 UNK         0.1400 
     33 CB          2.5747  -18.7210  -41.3017 C.3       8 UNK        -0.1800 
     34 N           0.3020  -18.3153  -42.1046 N.am      8 UNK        -0.5000 
     35 C          -0.5042  -17.4624  -41.4594 C.2       7 UNK         0.5000 
     36 O          -0.6814  -17.4865  -40.2396 O.2       7 UNK        -0.5000 
     37 CA         -1.2274  -16.3969  -42.3149 C.3       7 UNK         0.1400 
     38 CB         -1.5593  -15.1144  -41.5237 C.3       7 UNK        -0.1800 
     39 N          -0.5284  -16.0607  -43.5618 N.am      7 UNK        -0.5000 
     40 C           0.7067  -15.5506  -43.6803 C.2       6 UNK         0.5000 
     41 O           1.4537  -15.2968  -42.7329 O.2       6 UNK        -0.5000 
     42 CA          1.1895  -15.2796  -45.1155 C.3       6 UNK         0.1400 
     43 CB          1.5910  -13.8044  -45.2708 C.3       6 UNK        -0.1800 
     44 N           2.3250  -16.1086  -45.5252 N.am      6 UNK        -0.5000 
     45 C           2.4553  -17.4360  -45.4116 C.2       5 UNK         0.5000 
     46 O           1.5991  -18.1883  -44.9372 O.2       5 UNK        -0.5000 
     47 CA          3.7591  -18.0130  -45.9849 C.3       5 UNK         0.1400 
     48 CB          4.1358  -19.3582  -45.3242 C.3       5 UNK        -0.1800 
     49 N           3.6132  -18.1404  -47.4373 N.am      5 UNK        -0.5000 
     50 C           4.5567  -18.5656  -48.2897 C.2       4 UNK         0.5000 
     51 O           5.7026  -18.8652  -47.9527 O.2       4 UNK        -0.5000 
     52 CA          4.1680  -18.6706  -49.7775 C.3       4 UNK         0.1400 
     53 CB          3.4323  -19.9849  -50.0826 C.3       4 UNK        -0.1800 
     54 N           3.3592  -17.5481  -50.2482 N.am      4 UNK        -0.5000 
     55 C           3.8453  -16.3280  -50.5087 C.2       3 UNK         0.5000 
     56 O           5.0234  -16.0091  -50.3434 O.2       3 UNK        -0.5000 
     57 CA          2.8546  -15.2930  -51.0727 C.3       3 UNK         0.1400 
     58 CB          2.9099  -15.2838  -52.6080 C.3       3 UNK        -0.1800 
     59 N           1.4657  -15.4915  -50.6505 N.am      3 UNK        -0.5000 
     60 C           1.0340  -15.3295  -49.3965 C.2       2 UNK         0.5000 
     61 O           1.7852  -15.1379  -48.4383 O.2       2 UNK        -0.5000 
     62 CA         -0.4827  -15.3319  -49.1663 C.3       2 UNK         0.1400 
     63 CB         -0.9381  -16.5896  -48.4056 C.3       2 UNK        -0.1800 
     64 N          -0.7403  -14.1370  -48.3736 N.am      2 UNK        -0.5000 
     65 C          -1.5575  -13.1362  -48.7221 C.2       1 UNK         0.5000 
     66 O          -2.4179  -13.2221  -49.5989 O.2       1 UNK        -0.5000 
     67 C          -2.9787  -22.7564  -44.0472 C.2       11 UNK         0.5000 
     68 O          -4.0556  -23.3311  -44.2034 O.2       11 UNK        -0.5000 
     69 N          -1.9877  -23.2199  -43.2744 N.am      12 UNK        -0.5000 
     70 CA         -2.0467  -24.4569  -42.5033 C.3       12 UNK         0.1400 
     71 CB         -0.9136  -24.4632  -41.4650 C.3       12 UNK        -0.1800 
     72 C          -1.9960  -25.7198  -43.3823 C.2       12 UNK         0.5000 
     73 O          -2.8688  -26.5790  -43.2508 O.2       12 UNK        -0.5000 
     74 N          -0.9664  -25.8292  -44.2332 N.am      13 UNK        -0.5000 
     75 CA         -0.6638  -27.0516  -44.9785 C.3       13 UNK         0.1400 
     76 CB          0.8608  -27.2190  -45.0866 C.3       13 UNK        -0.1800 
     77 C          -1.3069  -27.0748  -46.3727 C.2       13 UNK         0.5000 
     78 O          -1.9237  -28.0769  -46.7368 O.2       13 UNK        -0.5000 
     79 N          -1.1285  -25.9919  -47.1398 N.am      14 UNK        -0.5000 
     80 CA         -1.5191  -25.9192  -48.5521 C.3       14 UNK         0.1400 
     81 CB         -0.4755  -25.0775  -49.3066 C.3       14 UNK        -0.1800 
     82 C          -2.9364  -25.3543  -48.7648 C.2       14 UNK         0.5000 
     83 O          -3.4515  -25.4327  -49.8801 O.2       14 UNK        -0.5000 
     84 N          -3.5239  -24.7752  -47.7075 N.am      15 UNK        -0.5000 
     85 CA         -4.7842  -24.0255  -47.6894 C.3       15 UNK         0.1400 
     86 CB         -5.9915  -24.9506  -47.9478 C.3       15 UNK        -0.1800 
     87 C          -4.7500  -22.7579  -48.5746 C.2       15 UNK         0.5000 
     88 O          -5.7805  -22.3588  -49.1192 O.2       15 UNK        -0.5000 
     89 N          -3.5561  -22.1483  -48.6626 N.am      16 UNK        -0.5000 
     90 CA         -3.1800  -20.8734  -49.2803 C.3       16 UNK         0.1400 
     91 CB         -3.4078  -19.7285  -48.2796 C.3       16 UNK        -0.1800 
     92 C          -3.8137  -20.6020  -50.6567 C.2       16 UNK         0.5000 
     93 O          -3.2213  -20.9532  -51.6778 O.2       16 UNK        -0.5000 
     94 N          -5.0060  -19.9913  -50.6644 N.am      17 UNK        -0.5000 
     95 CA         -5.8032  -19.6820  -51.8517 C.3       17 UNK         0.1400 
     96 CB         -7.0726  -18.9315  -51.4234 C.3       17 UNK        -0.1800 
     97 C          -6.1667  -20.9192  -52.6948 C.2       17 UNK         0.5000 
     98 O          -6.2622  -20.8033  -53.9162 O.2       17 UNK        -0.5000 
     99 N          -6.2989  -22.0878  -52.0499 N.am      18 UNK        -0.5000 
    100 CA        -6.5155  -23.3801  -52.7079 C.3       18 UNK         0.1400 
    101 CB        -6.8486  -24.4336  -51.6445 C.3       18 UNK        -0.1800 
    102 C         -5.3095  -23.8436  -53.5514 C.2       18 UNK         0.5000 
    103 O         -5.4965  -24.5705  -54.5274 O.2       18 UNK        -0.5000 
    104 N         -4.1050  -23.3945  -53.1761 N.am      19 UNK        -0.5000 
    105 CA        -2.8488  -23.6150  -53.8932 C.3       19 UNK         0.1400 
    106 CB        -1.7555  -23.9367  -52.8616 C.3       19 UNK        -0.1800 
    107 C         -2.4602  -22.3976  -54.7587 C.2       19 UNK         0.5000 
    108 O         -1.3634  -22.3815  -55.3182 O.2       19 UNK        -0.5000 
    109 N         -3.3544  -21.3997  -54.8431 N.am      20 UNK        -0.5000 
    110 CA        -3.2251  -20.1242  -55.5528 C.3       20 UNK         0.1400 
    111 CB        -3.0788  -20.3464  -57.0725 C.3       20 UNK        -0.1800 
    112 C         -2.1398  -19.1873  -54.9802 C.2       20 UNK         0.5000 
    113 O         -1.7214  -18.2563  -55.6714 O.2       20 UNK        -0.5000 
    114 N         -1.7324  -19.3951  -53.7169 N.am      21 UNK        -0.5000 
    115 CA        -0.7265  -18.5754  -53.0279 C.3       21 UNK         0.1400 
    116 CB        -0.3249  -19.2478  -51.7056 C.3       21 UNK        -0.1800 
    117 C         -1.1963  -17.1308  -52.7698 C.2       21 UNK         0.5000 
    118 O         -0.3639  -16.2354  -52.6342 O.2       21 UNK        -0.5000 
    119 N         -2.5169  -16.9358  -52.7169 N.am      22 UNK        -0.5000 
    120 CA        -3.1857  -15.6311  -52.6043 C.3       22 UNK         0.1400 
    121 C         -3.3628  -14.8979  -53.9681 C.2       22 UNK         0.5000 
    122 N         -2.9442  -15.4592  -55.0980 N.am      22 UNK        -0.7600 
    123 O         -3.8853  -13.7875  -54.0046 O.2       22 UNK        -0.5000 
    124 C124       -4.5329  -15.7605  -51.8487 C.3       23 UNK        -0.0398 
    125 S125       -4.2889  -16.4506  -50.1774 S.3       23 UNK        -0.2404 
    126 C126       -5.3724  -15.4028  -49.1583 C.3       23 UNK        -0.0205 
    127 H127        2.4367  -11.1181  -46.7567 H         1 UNK         0.0600 
    128 H128        2.9651  -10.3432  -48.2514 H         1 UNK         0.0600 
    129 H129        3.1205  -12.0935  -48.0625 H         1 UNK         0.0600 
    130 H130        0.2345  -11.5338  -46.6190 H         1 UNK         0.3000 
    131 H131       -1.5291  -11.0192  -48.7836 H         1 UNK         0.0600 
    132 H132       -2.1987  -10.4665  -46.5428 H         1 UNK         0.0800 
    133 H133       -3.3322  -11.5786  -47.2205 H         1 UNK         0.0800 
    134 H134       -4.4600  -12.2252  -45.2196 H         1 UNK         0.0800 
    135 H135       -3.8386  -13.1750  -43.9005 H         1 UNK         0.0800 
    136 H136       -4.6099  -13.3417  -47.5673 H         1 UNK         0.1150 
    137 H137       -5.2648  -17.5660  -47.4983 H         1 UNK         0.1150 
    138 H138       -3.8484  -15.5655  -43.9816 H         1 UNK         0.1150 
    139 H139       -5.1232  -18.7788  -45.4294 H         1 UNK         0.0800 
    140 H140       -4.9712  -17.9011  -43.9214 H         1 UNK         0.0800 
    141 H141       -2.5060  -20.2188  -42.9665 H         1 UNK         0.0800 
    142 H142       -4.1397  -20.2955  -43.5725 H         1 UNK         0.0800 
    143 H143       -3.3611  -21.4095  -45.6575 H         1 UNK         0.0600 
    144 H144       -0.7185  -20.7451  -44.6968 H         1 UNK         0.3000 
    145 H145        1.0397  -22.7072  -47.0970 H         1 UNK         0.0600 
    146 H146        0.4021  -20.6586  -48.3170 H         1 UNK         0.0600 
    147 H147        1.9574  -20.4188  -47.5312 H         1 UNK         0.0600 
    148 H148        0.5016  -19.6957  -46.8493 H         1 UNK         0.0600 
    149 H149        1.8393  -20.8775  -45.0294 H         1 UNK         0.3000 
    150 H150        2.0713  -23.2549  -42.4031 H         1 UNK         0.0600 
    151 H151        4.3434  -22.0953  -44.0971 H         1 UNK         0.0600 
    152 H152        4.0798  -23.8059  -43.7846 H         1 UNK         0.0600 
    153 H153        4.4817  -22.7297  -42.4574 H         1 UNK         0.0600 
    154 H154        3.1003  -20.7164  -42.3361 H         1 UNK         0.3000 
    155 H155        0.7740  -19.5359  -40.4640 H         1 UNK         0.0600 
    156 H156        2.5508  -17.8119  -40.7002 H         1 UNK         0.0600 
    157 H157        3.0144  -18.4592  -42.2641 H         1 UNK         0.0600 
    158 H158        3.2446  -19.4165  -40.7948 H         1 UNK         0.0600 
    159 H159        0.3981  -18.2382  -43.1112 H         1 UNK         0.3000 
    160 H160       -2.1776  -16.8445  -42.6023 H         1 UNK         0.0600 
    161 H161       -0.6614  -14.6391  -41.1280 H         1 UNK         0.0600 
    162 H162       -2.2134  -15.3324  -40.6787 H         1 UNK         0.0600 
    163 H163       -2.0749  -14.3872  -42.1513 H         1 UNK         0.0600 
    164 H164       -1.0423  -16.2716  -44.4062 H         1 UNK         0.3000 
    165 H165        0.3673  -15.4780  -45.8030 H         1 UNK         0.0600 
    166 H166        1.8350  -13.5716  -46.3051 H         1 UNK         0.0600 
    167 H167        0.7841  -13.1402  -44.9631 H         1 UNK         0.0600 
    168 H168        2.4620  -13.5590  -44.6620 H         1 UNK         0.0600 
    169 H169        3.0726  -15.6047  -45.9792 H         1 UNK         0.3000 
    170 H170        4.5585  -17.2989  -45.7776 H         1 UNK         0.0600 
    171 H171        5.1790  -19.6135  -45.5070 H         1 UNK         0.0600 
    172 H172        3.5289  -20.1760  -45.7043 H         1 UNK         0.0600 
    173 H173        4.0111  -19.3209  -44.2425 H         1 UNK         0.0600 
    174 H174        2.7166  -17.8573  -47.8076 H         1 UNK         0.3000 
    175 H175        5.0999  -18.6825  -50.3476 H         1 UNK         0.0600 
    176 H176        3.9309  -20.8374  -49.6192 H         1 UNK         0.0600 
    177 H177        2.4031  -19.9663  -49.7283 H         1 UNK         0.0600 
    178 H178        3.4031  -20.1721  -51.1562 H         1 UNK         0.0600 
    179 H179        2.3801  -17.7177  -50.4172 H         1 UNK         0.3000 
    180 H180        3.1728  -14.3109  -50.7160 H         1 UNK         0.0600 
    181 H181        2.5755  -16.2338  -53.0271 H         1 UNK         0.0600 
    182 H182        3.9256  -15.1055  -52.9637 H         1 UNK         0.0600 
    183 H183        2.2785  -14.4964  -53.0202 H         1 UNK         0.0600 
    184 H184        0.7896  -15.6623  -51.3943 H         1 UNK         0.3000 
    185 H185       -1.0041  -15.2816  -50.1237 H         1 UNK         0.0600 
    186 H186       -0.8776  -17.4690  -49.0470 H         1 UNK         0.0600 
    187 H187       -0.3277  -16.7884  -47.5255 H         1 UNK         0.0600 
    188 H188       -1.9739  -16.4977  -48.0777 H         1 UNK         0.0600 
    189 H189       -0.0234  -13.9367  -47.6903 H         1 UNK         0.3000 
    190 H190       -1.1543  -22.6505  -43.1684 H         1 UNK         0.3000 
    191 H191       -2.9940  -24.4684  -41.9597 H         1 UNK         0.0600 
    192 H192       -0.9782  -23.5975  -40.8053 H         1 UNK         0.0600 
    193 H193       -0.9635  -25.3549  -40.8390 H         1 UNK         0.0600 
    194 H194        0.0680  -24.4497  -41.9378 H         1 UNK         0.0600 
    195 H195       -0.2855  -25.0759  -44.3009 H         1 UNK         0.3000 
    196 H196       -1.0410  -27.9158  -44.4269 H         1 UNK         0.0600 
    197 H197        1.1152  -28.1525  -45.5902 H         1 UNK         0.0600 
    198 H198        1.3248  -27.2446  -44.1005 H         1 UNK         0.0600 
    199 H199        1.3218  -26.4079  -45.6510 H         1 UNK         0.0600 
    200 H200       -0.6497  -25.1872  -46.7591 H         1 UNK         0.3000 
    201 H201       -1.5046  -26.9217  -48.9850 H         1 UNK         0.0600 
    202 H202       -0.6548  -25.1093  -50.3805 H         1 UNK         0.0600 
    203 H203        0.5330  -25.4560  -49.1399 H         1 UNK         0.0600 
    204 H204       -0.4946  -24.0306  -49.0059 H         1 UNK         0.0600 
    205 H205       -2.9776  -24.7282  -46.8583 H         1 UNK         0.3000 
    206 H206       -4.8931  -23.6492  -46.6729 H         1 UNK         0.0600 
    207 H207       -6.0528  -25.7259  -47.1842 H         1 UNK         0.0600 
    208 H208       -6.9307  -24.3972  -47.9184 H         1 UNK         0.0600 
    209 H209       -5.9321  -25.4485  -48.9134 H         1 UNK         0.0600 
    210 H210       -2.7960  -22.5947  -48.1543 H         1 UNK         0.3000 
    211 H211       -2.1051  -20.9356  -49.4557 H         1 UNK         0.0600 
    212 H212       -4.4259  -19.7222  -47.8908 H         1 UNK         0.0600 
    213 H213       -3.2103  -18.7576  -48.7326 H         1 UNK         0.0600 
    214 H214       -2.7296  -19.8205  -47.4331 H         1 UNK         0.0600 
    215 H215       -5.4329  -19.7817  -49.7743 H         1 UNK         0.3000 
    216 H216       -5.2078  -19.0194  -52.4824 H         1 UNK         0.0600 
    217 H217       -7.6737  -18.6538  -52.2902 H         1 UNK         0.0600 
    218 H218       -7.6981  -19.5421  -50.7710 H         1 UNK         0.0600 
    219 H219       -6.8305  -18.0124  -50.8902 H         1 UNK         0.0600 
    220 H220       -6.1843  -22.1030  -51.0395 H         1 UNK         0.3000 
    221 H221       -7.3739  -23.2798  -53.3753 H         1 UNK         0.0600 
    222 H222       -5.9908  -24.6138  -50.9976 H         1 UNK         0.0600 
    223 H223       -7.6860  -24.1227  -51.0195 H         1 UNK         0.0600 
    224 H224       -7.1170  -25.3847  -52.1057 H         1 UNK         0.0600 
    225 H225       -4.0443  -22.7692  -52.3812 H         1 UNK         0.3000 
    226 H226       -2.9434  -24.4707  -54.5645 H         1 UNK         0.0600 
    227 H227       -0.8016  -24.1472  -53.3463 H         1 UNK         0.0600 
    228 H228       -1.5980  -23.1113  -52.1663 H         1 UNK         0.0600 
    229 H229       -2.0241  -24.8186  -52.2805 H         1 UNK         0.0600 
    230 H230       -4.2301  -21.5212  -54.3505 H         1 UNK         0.3000 
    231 H231       -4.1705  -19.6041  -55.3940 H         1 UNK         0.0600 
    232 H232       -2.1152  -20.7874  -57.3282 H         1 UNK         0.0600 
    233 H233       -3.1588  -19.4041  -57.6157 H         1 UNK         0.0600 
    234 H234       -3.8611  -21.0038  -57.4520 H         1 UNK         0.0600 
    235 H235       -2.1538  -20.1472  -53.1804 H         1 UNK         0.3000 
    236 H236        0.1577  -18.5253  -53.6668 H         1 UNK         0.0600 
    237 H237       -1.1440  -19.2408  -50.9875 H         1 UNK         0.0600 
    238 H238       -0.0196  -20.2829  -51.8609 H         1 UNK         0.0600 
    239 H239        0.5140  -18.7262  -51.2446 H         1 UNK         0.0600 
    240 H240       -3.1186  -17.7371  -52.8230 H         1 UNK         0.3000 
    241 H241       -2.5479  -14.9742  -52.0099 H         1 UNK         0.0600 
    242 H242       -2.4882  -16.3630  -55.1051 H         1 UNK         0.3800 
    243 H243       -3.0660  -14.9613  -55.9656 H         1 UNK         0.3800 
    244 H244       -5.2251  -16.4016  -52.3961 H         1 UNK         0.0800 
    245 H245       -5.0163  -14.7860  -51.7674 H         1 UNK         0.0800 
    246 H246       -5.3298  -14.3757  -49.5235 H         1 UNK         0.0800 
    247 H247       -6.4057  -15.7345  -49.2662 H         1 UNK         0.0800 
@<TRIPOS>BOND
     1    1    2 1    
     2    1  127 1    
     3    1  128 1    
     4    1  129 1    
     5    2    3 2    
     6    2    4 am   BACKBONE|DICT|INTERRES
     7    4    5 1    
     8    4  130 1    
     9    5    6 1    
    10    5   65 1    
    11    5  131 1    
    12    6    7 1    
    13    6  132 1    
    14    6  133 1    
    15    7    8 1    
    16    8    9 1    
    17    8  134 1    
    18    8  135 1    
    19    9   10 ar   
    20    9   14 ar   
    21   10   11 ar   
    22   10  136 1    
    23   11   12 ar   
    24   11  126 1    
    25   12   13 ar   
    26   12  137 1    
    27   13   14 ar   
    28   13   15 1    
    29   14  138 1    
    30   15   16 1    
    31   15  139 1    
    32   15  140 1    
    33   16   17 1    
    34   17   18 1    
    35   17  141 1    
    36   17  142 1    
    37   18   19 1    
    38   18   67 1    
    39   18  143 1    
    40   19   20 am   BACKBONE|DICT|INTERRES
    41   19  144 1    
    42   20   21 2    
    43   20   22 1    
    44   22   23 1    
    45   22   24 1    
    46   22  145 1    
    47   23  146 1    
    48   23  147 1    
    49   23  148 1    
    50   24   25 am   BACKBONE|DICT|INTERRES
    51   24  149 1    
    52   25   26 2    
    53   25   27 1    
    54   27   28 1    
    55   27   29 1    
    56   27  150 1    
    57   28  151 1    
    58   28  152 1    
    59   28  153 1    
    60   29   30 am   BACKBONE|DICT|INTERRES
    61   29  154 1    
    62   30   31 2    
    63   30   32 1    
    64   32   33 1    
    65   32   34 1    
    66   32  155 1    
    67   33  156 1    
    68   33  157 1    
    69   33  158 1    
    70   34   35 am   BACKBONE|DICT|INTERRES
    71   34  159 1    
    72   35   36 2    
    73   35   37 1    
    74   37   38 1    
    75   37   39 1    
    76   37  160 1    
    77   38  161 1    
    78   38  162 1    
    79   38  163 1    
    80   39   40 am   BACKBONE|DICT|INTERRES
    81   39  164 1    
    82   40   41 2    
    83   40   42 1    
    84   42   43 1    
    85   42   44 1    
    86   42  165 1    
    87   43  166 1    
    88   43  167 1    
    89   43  168 1    
    90   44   45 am   BACKBONE|DICT|INTERRES
    91   44  169 1    
    92   45   46 2    
    93   45   47 1    
    94   47   48 1    
    95   47   49 1    
    96   47  170 1    
    97   48  171 1    
    98   48  172 1    
    99   48  173 1    
   100   49   50 am   BACKBONE|DICT|INTERRES
   101   49  174 1    
   102   50   51 2    
   103   50   52 1    
   104   52   53 1    
   105   52   54 1    
   106   52  175 1    
   107   53  176 1    
   108   53  177 1    
   109   53  178 1    
   110   54   55 am   BACKBONE|DICT|INTERRES
   111   54  179 1    
   112   55   56 2    
   113   55   57 1    
   114   57   58 1    
   115   57   59 1    
   116   57  180 1    
   117   58  181 1    
   118   58  182 1    
   119   58  183 1    
   120   59   60 am   BACKBONE|DICT|INTERRES
   121   59  184 1    
   122   60   61 2    
   123   60   62 1    
   124   62   63 1    
   125   62   64 1    
   126   62  185 1    
   127   63  186 1    
   128   63  187 1    
   129   63  188 1    
   130   64   65 am   BACKBONE|DICT|INTERRES
   131   64  189 1    
   132   65   66 2    
   133   67   68 2    
   134   67   69 am   BACKBONE|DICT|INTERRES
   135   69   70 1    
   136   69  190 1    
   137   70   71 1    
   138   70   72 1    
   139   70  191 1    
   140   71  192 1    
   141   71  193 1    
   142   71  194 1    
   143   72   73 2    
   144   72   74 am   BACKBONE|DICT|INTERRES
   145   74   75 1    
   146   74  195 1    
   147   75   76 1    
   148   75   77 1    
   149   75  196 1    
   150   76  197 1    
   151   76  198 1    
   152   76  199 1    
   153   77   78 2    
   154   77   79 am   BACKBONE|DICT|INTERRES
   155   79   80 1    
   156   79  200 1    
   157   80   81 1    
   158   80   82 1    
   159   80  201 1    
   160   81  202 1    
   161   81  203 1    
   162   81  204 1    
   163   82   83 2    
   164   82   84 am   BACKBONE|DICT|INTERRES
   165   84   85 1    
   166   84  205 1    
   167   85   86 1    
   168   85   87 1    
   169   85  206 1    
   170   86  207 1    
   171   86  208 1    
   172   86  209 1    
   173   87   88 2    
   174   87   89 am   BACKBONE|DICT|INTERRES
   175   89   90 1    
   176   89  210 1    
   177   90   91 1    
   178   90   92 1    
   179   90  211 1    
   180   91  212 1    
   181   91  213 1    
   182   91  214 1    
   183   92   93 2    
   184   92   94 am   BACKBONE|DICT|INTERRES
   185   94   95 1    
   186   94  215 1    
   187   95   96 1    
   188   95   97 1    
   189   95  216 1    
   190   96  217 1    
   191   96  218 1    
   192   96  219 1    
   193   97   98 2    
   194   97   99 am   BACKBONE|DICT|INTERRES
   195   99  100 1    
   196   99  220 1    
   197  100  101 1    
   198  100  102 1    
   199  100  221 1    
   200  101  222 1    
   201  101  223 1    
   202  101  224 1    
   203  102  103 2    
   204  102  104 am   BACKBONE|DICT|INTERRES
   205  104  105 1    
   206  104  225 1    
   207  105  106 1    
   208  105  107 1    
   209  105  226 1    
   210  106  227 1    
   211  106  228 1    
   212  106  229 1    
   213  107  108 2    
   214  107  109 am   BACKBONE|DICT|INTERRES
   215  109  110 1    
   216  109  230 1    
   217  110  111 1    
   218  110  112 1    
   219  110  231 1    
   220  111  232 1    
   221  111  233 1    
   222  111  234 1    
   223  112  113 2    
   224  112  114 am   BACKBONE|DICT|INTERRES
   225  114  115 1    
   226  114  235 1    
   227  115  116 1    
   228  115  117 1    
   229  115  236 1    
   230  116  237 1    
   231  116  238 1    
   232  116  239 1    
   233  117  118 2    
   234  117  119 am   BACKBONE|DICT|INTERRES
   235  119  120 1    
   236  119  240 1    
   237  120  121 1    
   238  120  124 1    
   239  120  241 1    
   240  121  122 am   BACKBONE|DICT|INTERRES
   241  121  123 2    
   242  122  242 1    
   243  122  243 1    
   244  124  125 1    
   245  124  244 1    
   246  124  245 1    
   247  125  126 1    
   248  126  246 1    
   249  126  247 1    
@<TRIPOS>SUBSTRUCTURE
     1 UNK         1 GROUP             0       ****    0 ROOT    
