@<TRIPOS>MOLECULE
3R540
247   249    1
SMALL
USER_CHARGES


@<TRIPOS>ATOM
      1 CA         -1.5724  -12.4270  -44.4559 C.3       0 UNK        -0.1800 
      2 C          -0.4757  -12.6216  -45.4928 C.2       0 UNK         0.5000 
      3 O           0.3533  -13.5187  -45.3459 O.2       0 UNK        -0.5000 
      4 N          -0.4897  -11.7974  -46.5494 N.am      1 UNK        -0.5000 
      5 CA          0.4466  -11.8204  -47.6835 C.3       1 UNK         0.1400 
      6 C6          0.3560  -13.1134  -48.5414 C.3       23 UNK        -0.0398 
      7 S7         -1.2752  -13.2596  -49.3556 S.3       23 UNK        -0.2404 
      8 C8         -2.1451  -14.4483  -48.2854 C.3       23 UNK        -0.0205 
      9 C9         -2.1415  -15.8527  -48.8668 C.ar      23 UNK        -0.0193 
     10 C10        -3.3115  -16.3966  -49.4066 C.ar      23 UNK        -0.1150 
     11 C11        -3.3263  -17.7063  -49.8956 C.ar      23 UNK        -0.0193 
     12 C12        -2.1571  -18.4700  -49.8489 C.ar      23 UNK        -0.1150 
     13 C13        -0.9823  -17.9384  -49.3109 C.ar      23 UNK        -0.0193 
     14 C14        -0.9795  -16.6265  -48.8287 C.ar      23 UNK        -0.1150 
     15 C15         0.2745  -18.7890  -49.2258 C.3       23 UNK        -0.0205 
     16 S16         0.7923  -19.0026  -47.4947 S.3       23 UNK        -0.2404 
     17 C17         1.4607  -20.6967  -47.4910 C.3       23 UNK        -0.0398 
     18 CA          0.5253  -21.7363  -46.8292 C.3       11 UNK         0.1400 
     19 N           0.2354  -21.4470  -45.4222 N.am      11 UNK        -0.5000 
     20 C          -0.2219  -22.3665  -44.5614 C.2       10 UNK         0.5000 
     21 O          -0.4232  -23.5445  -44.8622 O.2       10 UNK        -0.5000 
     22 CA         -0.5548  -21.8763  -43.1436 C.3       10 UNK         0.1400 
     23 CB          0.7233  -21.6085  -42.3343 C.3       10 UNK        -0.1800 
     24 N          -1.4071  -20.6854  -43.1460 N.am      10 UNK        -0.5000 
     25 C          -2.6785  -20.6767  -43.5744 C.2       9 UNK         0.5000 
     26 O          -3.2294  -21.6536  -44.0799 O.2       9 UNK        -0.5000 
     27 CA         -3.4868  -19.3761  -43.4078 C.3       9 UNK         0.1400 
     28 CB         -4.3354  -19.4371  -42.1289 C.3       9 UNK        -0.1800 
     29 N          -2.6686  -18.1659  -43.3765 N.am      9 UNK        -0.5000 
     30 C          -1.9947  -17.6756  -44.4239 C.2       8 UNK         0.5000 
     31 O          -1.9820  -18.2157  -45.5306 O.2       8 UNK        -0.5000 
     32 CA         -1.2060  -16.3648  -44.2041 C.3       8 UNK         0.1400 
     33 CB         -1.2908  -15.8024  -42.7674 C.3       8 UNK        -0.1800 
     34 N           0.1947  -16.4776  -44.6131 N.am      8 UNK        -0.5000 
     35 C           1.0801  -17.4081  -44.2269 C.2       7 UNK         0.5000 
     36 O           0.8176  -18.3037  -43.4215 O.2       7 UNK        -0.5000 
     37 CA          2.4851  -17.3491  -44.8632 C.3       7 UNK         0.1400 
     38 CB          2.6832  -16.1801  -45.8525 C.3       7 UNK        -0.1800 
     39 N           3.5135  -17.2705  -43.8337 N.am      7 UNK        -0.5000 
     40 C           4.0913  -18.3102  -43.2190 C.2       6 UNK         0.5000 
     41 O           3.8365  -19.4884  -43.4717 O.2       6 UNK        -0.5000 
     42 CA          5.1513  -17.9829  -42.1533 C.3       6 UNK         0.1400 
     43 CB          6.5281  -17.8012  -42.8123 C.3       6 UNK        -0.1800 
     44 N           4.8188  -16.7644  -41.4135 N.am      6 UNK        -0.5000 
     45 C           4.5083  -16.7130  -40.1112 C.2       5 UNK         0.5000 
     46 O           4.4875  -17.6979  -39.3717 O.2       5 UNK        -0.5000 
     47 CA          4.1702  -15.3271  -39.5215 C.3       5 UNK         0.1400 
     48 CB          5.4154  -14.7032  -38.8727 C.3       5 UNK        -0.1800 
     49 N           3.6314  -14.3899  -40.5082 N.am      5 UNK        -0.5000 
     50 C           2.4299  -14.5030  -41.0893 C.2       4 UNK         0.5000 
     51 O           1.6068  -15.3653  -40.7840 O.2       4 UNK        -0.5000 
     52 CA          2.0883  -13.4986  -42.2084 C.3       4 UNK         0.1400 
     53 CB          1.1762  -12.3886  -41.6657 C.3       4 UNK        -0.1800 
     54 N           3.2303  -12.8700  -42.8830 N.am      4 UNK        -0.5000 
     55 C           4.2381  -13.4920  -43.5081 C.2       3 UNK         0.5000 
     56 O           4.4374  -14.7036  -43.4249 O.2       3 UNK        -0.5000 
     57 CA          5.1639  -12.6182  -44.3786 C.3       3 UNK         0.1400 
     58 CB          6.0928  -13.4605  -45.2718 C.3       3 UNK        -0.1800 
     59 N           4.4064  -11.7003  -45.2315 N.am      3 UNK        -0.5000 
     60 C           3.9090  -10.5164  -44.8612 C.2       2 UNK         0.5000 
     61 O           3.9925  -10.0780  -43.7134 O.2       2 UNK        -0.5000 
     62 CA          3.1714   -9.6981  -45.9349 C.3       2 UNK         0.1400 
     63 CB          4.1243   -9.2377  -47.0559 C.3       2 UNK        -0.1800 
     64 N           1.9770  -10.3591  -46.4741 N.am      2 UNK        -0.5000 
     65 C           1.8821  -11.4590  -47.2378 C.2       1 UNK         0.5000 
     66 O           2.8445  -12.1472  -47.5842 O.2       1 UNK        -0.5000 
     67 C          -0.7646  -21.9743  -47.6398 C.2       11 UNK         0.5000 
     68 O          -0.7585  -22.8215  -48.5306 O.2       11 UNK        -0.5000 
     69 N          -1.8529  -21.2682  -47.2936 N.am      12 UNK        -0.5000 
     70 CA         -3.1757  -21.4416  -47.8943 C.3       12 UNK         0.1400 
     71 CB         -4.1347  -20.3632  -47.3702 C.3       12 UNK        -0.1800 
     72 C          -3.7481  -22.8472  -47.6483 C.2       12 UNK         0.5000 
     73 O          -4.2495  -23.4651  -48.5873 O.2       12 UNK        -0.5000 
     74 N          -3.6211  -23.3404  -46.4080 N.am      13 UNK        -0.5000 
     75 CA         -4.0039  -24.6928  -46.0067 C.3       13 UNK         0.1400 
     76 CB         -3.9325  -24.8208  -44.4779 C.3       13 UNK        -0.1800 
     77 C          -3.1457  -25.7734  -46.6855 C.2       13 UNK         0.5000 
     78 O          -3.6974  -26.7647  -47.1630 O.2       13 UNK        -0.5000 
     79 N          -1.8247  -25.5489  -46.7558 N.am      14 UNK        -0.5000 
     80 CA         -0.8683  -26.4355  -47.4268 C.3       14 UNK         0.1400 
     81 CB          0.5632  -25.9628  -47.1339 C.3       14 UNK        -0.1800 
     82 C          -1.1087  -26.5396  -48.9460 C.2       14 UNK         0.5000 
     83 O          -1.0094  -27.6305  -49.5080 O.2       14 UNK        -0.5000 
     84 N          -1.4556  -25.4079  -49.5716 N.am      15 UNK        -0.5000 
     85 CA         -1.8322  -25.2977  -50.9810 C.3       15 UNK         0.1400 
     86 CB         -1.7031  -23.8236  -51.3949 C.3       15 UNK        -0.1800 
     87 C          -3.2590  -25.7973  -51.2847 C.2       15 UNK         0.5000 
     88 O          -3.6159  -25.9097  -52.4598 O.2       15 UNK        -0.5000 
     89 N          -4.0619  -26.0227  -50.2320 N.am      16 UNK        -0.5000 
     90 CA         -5.4962  -26.3323  -50.2464 C.3       16 UNK         0.1400 
     91 CB         -5.7323  -27.7581  -50.7844 C.3       16 UNK        -0.1800 
     92 C          -6.3176  -25.2616  -50.9975 C.2       16 UNK         0.5000 
     93 O          -7.2674  -25.5954  -51.7086 O.2       16 UNK        -0.5000 
     94 N          -5.8813  -23.9976  -50.8767 N.am      17 UNK        -0.5000 
     95 CA         -6.2744  -22.7903  -51.6153 C.3       17 UNK         0.1400 
     96 CB         -7.7468  -22.4267  -51.3499 C.3       17 UNK        -0.1800 
     97 C          -5.9803  -22.8362  -53.1307 C.2       17 UNK         0.5000 
     98 O          -5.4945  -21.8475  -53.6818 O.2       17 UNK        -0.5000 
     99 N          -6.2775  -23.9700  -53.7746 N.am      18 UNK        -0.5000 
    100 CA        -6.2022  -24.2151  -55.2122 C.3       18 UNK         0.1400 
    101 CB        -6.6919  -25.6414  -55.5040 C.3       18 UNK        -0.1800 
    102 C         -4.8110  -23.9844  -55.8225 C.2       18 UNK         0.5000 
    103 O         -4.7119  -23.2980  -56.8399 O.2       18 UNK        -0.5000 
    104 N         -3.7573  -24.5204  -55.1879 N.am      19 UNK        -0.5000 
    105 CA        -2.3793  -24.4016  -55.6826 C.3       19 UNK         0.1400 
    106 CB        -1.4929  -25.4680  -55.0221 C.3       19 UNK        -0.1800 
    107 C         -1.7835  -22.9895  -55.5065 C.2       19 UNK         0.5000 
    108 O         -0.8104  -22.6559  -56.1831 O.2       19 UNK        -0.5000 
    109 N         -2.3902  -22.1808  -54.6277 N.am      20 UNK        -0.5000 
    110 CA        -2.0677  -20.7688  -54.4204 C.3       20 UNK         0.1400 
    111 CB        -2.2751  -20.4333  -52.9344 C.3       20 UNK        -0.1800 
    112 C         -2.9132  -19.8397  -55.3168 C.2       20 UNK         0.5000 
    113 O         -2.6787  -18.6310  -55.3138 O.2       20 UNK        -0.5000 
    114 N         -3.8796  -20.4123  -56.0541 N.am      21 UNK        -0.5000 
    115 CA        -4.8879  -19.7483  -56.8864 C.3       21 UNK         0.1400 
    116 CB        -4.2341  -18.9928  -58.0625 C.3       21 UNK        -0.1800 
    117 C         -5.8683  -18.8764  -56.0712 C.2       21 UNK         0.5000 
    118 O         -6.4043  -17.8981  -56.5955 O.2       21 UNK        -0.5000 
    119 N         -6.0993  -19.2570  -54.8085 N.am      22 UNK        -0.5000 
    120 CA        -7.0245  -18.5896  -53.8793 C.3       22 UNK         0.1400 
    121 C         -8.4909  -19.1027  -53.9837 C.2       22 UNK         0.5000 
    122 N         -8.7817  -20.1484  -54.7487 N.am      22 UNK        -0.7600 
    123 O         -9.3862  -18.5342  -53.3649 O.2       22 UNK        -0.5000 
    124 C124       -6.5205  -18.6690  -52.4161 C.3       23 UNK        -0.0398 
    125 S125       -4.9011  -17.8701  -52.1677 S.3       23 UNK        -0.2404 
    126 C126       -4.6156  -18.3103  -50.4287 C.3       23 UNK        -0.0205 
    127 H127       -1.1595  -12.4740  -43.4497 H         1 UNK         0.0600 
    128 H128       -2.0705  -11.4642  -44.5718 H         1 UNK         0.0600 
    129 H129       -2.3212  -13.2126  -44.5524 H         1 UNK         0.0600 
    130 H130       -1.2140  -11.0953  -46.6082 H         1 UNK         0.3000 
    131 H131        0.1456  -10.9938  -48.3294 H         1 UNK         0.0600 
    132 H132        1.1035  -13.0948  -49.3361 H         1 UNK         0.0800 
    133 H133        0.5743  -14.0005  -47.9469 H         1 UNK         0.0800 
    134 H134       -3.1697  -14.0999  -48.1475 H         1 UNK         0.0800 
    135 H135       -1.7012  -14.4707  -47.2910 H         1 UNK         0.0800 
    136 H136       -4.2175  -15.8077  -49.4331 H         1 UNK         0.1150 
    137 H137       -2.1672  -19.4861  -50.2142 H         1 UNK         0.1150 
    138 H138       -0.0755  -16.2193  -48.4001 H         1 UNK         0.1150 
    139 H139        0.1016  -19.7618  -49.6884 H         1 UNK         0.0800 
    140 H140        1.0785  -18.3132  -49.7884 H         1 UNK         0.0800 
    141 H141        1.7162  -21.0015  -48.5073 H         1 UNK         0.0800 
    142 H142        2.4079  -20.6733  -46.9506 H         1 UNK         0.0800 
    143 H143        1.0714  -22.6817  -46.8480 H         1 UNK         0.0600 
    144 H144        0.3450  -20.4901  -45.1155 H         1 UNK         0.3000 
    145 H145       -1.1045  -22.6752  -42.6410 H         1 UNK         0.0600 
    146 H146        0.4890  -21.3051  -41.3139 H         1 UNK         0.0600 
    147 H147        1.3392  -22.5066  -42.2732 H         1 UNK         0.0600 
    148 H148        1.3345  -20.8259  -42.7843 H         1 UNK         0.0600 
    149 H149       -0.9965  -19.8264  -42.8045 H         1 UNK         0.3000 
    150 H150       -4.1658  -19.2996  -44.2590 H         1 UNK         0.0600 
    151 H151       -4.9829  -20.3152  -42.1314 H         1 UNK         0.0600 
    152 H152       -4.9789  -18.5617  -42.0394 H         1 UNK         0.0600 
    153 H153       -3.7130  -19.4910  -41.2349 H         1 UNK         0.0600 
    154 H154       -2.6162  -17.6755  -42.4957 H         1 UNK         0.3000 
    155 H155       -1.6584  -15.6326  -44.8733 H         1 UNK         0.0600 
    156 H156       -0.7585  -14.8551  -42.6914 H         1 UNK         0.0600 
    157 H157       -0.8510  -16.4808  -42.0351 H         1 UNK         0.0600 
    158 H158       -2.3229  -15.6072  -42.4742 H         1 UNK         0.0600 
    159 H159        0.5044  -15.7592  -45.2556 H         1 UNK         0.3000 
    160 H160        2.6240  -18.2775  -45.4183 H         1 UNK         0.0600 
    161 H161        2.5420  -15.2100  -45.3753 H         1 UNK         0.0600 
    162 H162        1.9872  -16.2439  -46.6897 H         1 UNK         0.0600 
    163 H163        3.6882  -16.1933  -46.2745 H         1 UNK         0.0600 
    164 H164        3.8151  -16.3299  -43.5902 H         1 UNK         0.3000 
    165 H165        5.2099  -18.8397  -41.4789 H         1 UNK         0.0600 
    166 H166        6.5363  -16.9548  -43.5007 H         1 UNK         0.0600 
    167 H167        7.3022  -17.6312  -42.0639 H         1 UNK         0.0600 
    168 H168        6.8116  -18.6895  -43.3782 H         1 UNK         0.0600 
    169 H169        4.7780  -15.9080  -41.9572 H         1 UNK         0.3000 
    170 H170        3.4173  -15.4742  -38.7443 H         1 UNK         0.0600 
    171 H171        5.8302  -15.3629  -38.1094 H         1 UNK         0.0600 
    172 H172        6.2004  -14.5161  -39.6065 H         1 UNK         0.0600 
    173 H173        5.1757  -13.7571  -38.3870 H         1 UNK         0.0600 
    174 H174        4.2435  -13.6498  -40.8182 H         1 UNK         0.3000 
    175 H175        1.5394  -14.0531  -42.9713 H         1 UNK         0.0600 
    176 H176        1.6740  -11.8064  -40.8893 H         1 UNK         0.0600 
    177 H177        0.8765  -11.7010  -42.4565 H         1 UNK         0.0600 
    178 H178        0.2659  -12.8055  -41.2326 H         1 UNK         0.0600 
    179 H179        3.1893  -11.8626  -42.9839 H         1 UNK         0.3000 
    180 H180        5.7910  -12.0384  -43.6983 H         1 UNK         0.0600 
    181 H181        5.5252  -14.0849  -45.9631 H         1 UNK         0.0600 
    182 H182        6.7236  -14.1197  -44.6738 H         1 UNK         0.0600 
    183 H183        6.7558  -12.8261  -45.8601 H         1 UNK         0.0600 
    184 H184        4.1817  -12.0234  -46.1683 H         1 UNK         0.3000 
    185 H185        2.8066   -8.7972  -45.4388 H         1 UNK         0.0600 
    186 H186        4.9633   -8.6753  -46.6445 H         1 UNK         0.0600 
    187 H187        4.5401  -10.0752  -47.6164 H         1 UNK         0.0600 
    188 H188        3.6121   -8.5848  -47.7627 H         1 UNK         0.0600 
    189 H189        1.1064   -9.9130  -46.2207 H         1 UNK         0.3000 
    190 H190       -1.7678  -20.5657  -46.5711 H         1 UNK         0.3000 
    191 H191       -3.0697  -21.3106  -48.9726 H         1 UNK         0.0600 
    192 H192       -5.0873  -20.4002  -47.8998 H         1 UNK         0.0600 
    193 H193       -3.7229  -19.3632  -47.5054 H         1 UNK         0.0600 
    194 H194       -4.3467  -20.4930  -46.3098 H         1 UNK         0.0600 
    195 H195       -3.2443  -22.7441  -45.6762 H         1 UNK         0.3000 
    196 H196       -5.0404  -24.8511  -46.3121 H         1 UNK         0.0600 
    197 H197       -4.2123  -25.8242  -44.1548 H         1 UNK         0.0600 
    198 H198       -4.6138  -24.1214  -43.9931 H         1 UNK         0.0600 
    199 H199       -2.9279  -24.6212  -44.1030 H         1 UNK         0.0600 
    200 H200       -1.4444  -24.7244  -46.3040 H         1 UNK         0.3000 
    201 H201       -0.9888  -27.4345  -47.0027 H         1 UNK         0.0600 
    202 H202        0.7560  -25.9256  -46.0616 H         1 UNK         0.0600 
    203 H203        0.7503  -24.9703  -47.5432 H         1 UNK         0.0600 
    204 H204        1.2951  -26.6415  -47.5735 H         1 UNK         0.0600 
    205 H205       -1.4357  -24.5366  -49.0477 H         1 UNK         0.3000 
    206 H206       -1.1385  -25.8922  -51.5784 H         1 UNK         0.0600 
    207 H207       -0.6776  -23.4702  -51.2874 H         1 UNK         0.0600 
    208 H208       -1.9887  -23.6779  -52.4338 H         1 UNK         0.0600 
    209 H209       -2.3451  -23.1799  -50.7922 H         1 UNK         0.0600 
    210 H210       -3.6671  -25.8780  -49.3120 H         1 UNK         0.3000 
    211 H211       -5.8291  -26.3046  -49.2080 H         1 UNK         0.0600 
    212 H212       -5.4671  -27.8417  -51.8389 H         1 UNK         0.0600 
    213 H213       -6.7796  -28.0456  -50.6858 H         1 UNK         0.0600 
    214 H214       -5.1423  -28.4889  -50.2312 H         1 UNK         0.0600 
    215 H215       -5.1263  -23.8530  -50.2093 H         1 UNK         0.3000 
    216 H216       -5.6588  -21.9871  -51.2072 H         1 UNK         0.0600 
    217 H217       -8.4293  -23.1971  -51.7091 H         1 UNK         0.0600 
    218 H218       -8.0204  -21.4984  -51.8517 H         1 UNK         0.0600 
    219 H219       -7.9303  -22.2871  -50.2846 H         1 UNK         0.0600 
    220 H220       -6.6703  -24.7188  -53.2095 H         1 UNK         0.3000 
    221 H221       -6.8893  -23.5162  -55.6933 H         1 UNK         0.0600 
    222 H222       -6.0789  -26.3880  -54.9971 H         1 UNK         0.0600 
    223 H223       -7.7227  -25.7782  -55.1763 H         1 UNK         0.0600 
    224 H224       -6.6594  -25.8572  -56.5728 H         1 UNK         0.0600 
    225 H225       -3.8981  -25.0500  -54.3325 H         1 UNK         0.3000 
    226 H226       -2.3901  -24.6087  -56.7550 H         1 UNK         0.0600 
    227 H227       -1.9010  -26.4679  -55.1703 H         1 UNK         0.0600 
    228 H228       -0.4902  -25.4596  -55.4510 H         1 UNK         0.0600 
    229 H229       -1.3879  -25.3056  -53.9519 H         1 UNK         0.0600 
    230 H230       -3.2067  -22.5265  -54.1425 H         1 UNK         0.3000 
    231 H231       -1.0186  -20.5884  -54.6635 H         1 UNK         0.0600 
    232 H232       -3.3024  -20.6135  -52.6170 H         1 UNK         0.0600 
    233 H233       -1.6168  -21.0261  -52.3000 H         1 UNK         0.0600 
    234 H234       -2.0521  -19.3839  -52.7373 H         1 UNK         0.0600 
    235 H235       -3.9790  -21.4181  -55.9967 H         1 UNK         0.3000 
    236 H236       -5.4916  -20.5502  -57.3134 H         1 UNK         0.0600 
    237 H237       -3.5471  -19.6368  -58.6114 H         1 UNK         0.0600 
    238 H238       -4.9876  -18.6464  -58.7707 H         1 UNK         0.0600 
    239 H239       -3.6785  -18.1174  -57.7256 H         1 UNK         0.0600 
    240 H240       -5.6518  -20.0990  -54.4572 H         1 UNK         0.3000 
    241 H241       -7.0683  -17.5312  -54.1428 H         1 UNK         0.0600 
    242 H242       -8.0579  -20.6190  -55.2662 H         1 UNK         0.3800 
    243 H243       -9.7362  -20.4652  -54.8147 H         1 UNK         0.3800 
    244 H244       -7.2301  -18.1898  -51.7391 H         1 UNK         0.0800 
    245 H245       -6.4451  -19.7089  -52.0991 H         1 UNK         0.0800 
    246 H246       -4.5895  -19.3968  -50.3343 H         1 UNK         0.0800 
    247 H247       -5.4564  -17.9685  -49.8233 H         1 UNK         0.0800 
@<TRIPOS>BOND
     1    1    2 1    
     2    1  127 1    
     3    1  128 1    
     4    1  129 1    
     5    2    3 2    
     6    2    4 am   BACKBONE|DICT|INTERRES
     7    4    5 1    
     8    4  130 1    
     9    5    6 1    
    10    5   65 1    
    11    5  131 1    
    12    6    7 1    
    13    6  132 1    
    14    6  133 1    
    15    7    8 1    
    16    8    9 1    
    17    8  134 1    
    18    8  135 1    
    19    9   10 ar   
    20    9   14 ar   
    21   10   11 ar   
    22   10  136 1    
    23   11   12 ar   
    24   11  126 1    
    25   12   13 ar   
    26   12  137 1    
    27   13   14 ar   
    28   13   15 1    
    29   14  138 1    
    30   15   16 1    
    31   15  139 1    
    32   15  140 1    
    33   16   17 1    
    34   17   18 1    
    35   17  141 1    
    36   17  142 1    
    37   18   19 1    
    38   18   67 1    
    39   18  143 1    
    40   19   20 am   BACKBONE|DICT|INTERRES
    41   19  144 1    
    42   20   21 2    
    43   20   22 1    
    44   22   23 1    
    45   22   24 1    
    46   22  145 1    
    47   23  146 1    
    48   23  147 1    
    49   23  148 1    
    50   24   25 am   BACKBONE|DICT|INTERRES
    51   24  149 1    
    52   25   26 2    
    53   25   27 1    
    54   27   28 1    
    55   27   29 1    
    56   27  150 1    
    57   28  151 1    
    58   28  152 1    
    59   28  153 1    
    60   29   30 am   BACKBONE|DICT|INTERRES
    61   29  154 1    
    62   30   31 2    
    63   30   32 1    
    64   32   33 1    
    65   32   34 1    
    66   32  155 1    
    67   33  156 1    
    68   33  157 1    
    69   33  158 1    
    70   34   35 am   BACKBONE|DICT|INTERRES
    71   34  159 1    
    72   35   36 2    
    73   35   37 1    
    74   37   38 1    
    75   37   39 1    
    76   37  160 1    
    77   38  161 1    
    78   38  162 1    
    79   38  163 1    
    80   39   40 am   BACKBONE|DICT|INTERRES
    81   39  164 1    
    82   40   41 2    
    83   40   42 1    
    84   42   43 1    
    85   42   44 1    
    86   42  165 1    
    87   43  166 1    
    88   43  167 1    
    89   43  168 1    
    90   44   45 am   BACKBONE|DICT|INTERRES
    91   44  169 1    
    92   45   46 2    
    93   45   47 1    
    94   47   48 1    
    95   47   49 1    
    96   47  170 1    
    97   48  171 1    
    98   48  172 1    
    99   48  173 1    
   100   49   50 am   BACKBONE|DICT|INTERRES
   101   49  174 1    
   102   50   51 2    
   103   50   52 1    
   104   52   53 1    
   105   52   54 1    
   106   52  175 1    
   107   53  176 1    
   108   53  177 1    
   109   53  178 1    
   110   54   55 am   BACKBONE|DICT|INTERRES
   111   54  179 1    
   112   55   56 2    
   113   55   57 1    
   114   57   58 1    
   115   57   59 1    
   116   57  180 1    
   117   58  181 1    
   118   58  182 1    
   119   58  183 1    
   120   59   60 am   BACKBONE|DICT|INTERRES
   121   59  184 1    
   122   60   61 2    
   123   60   62 1    
   124   62   63 1    
   125   62   64 1    
   126   62  185 1    
   127   63  186 1    
   128   63  187 1    
   129   63  188 1    
   130   64   65 am   BACKBONE|DICT|INTERRES
   131   64  189 1    
   132   65   66 2    
   133   67   68 2    
   134   67   69 am   BACKBONE|DICT|INTERRES
   135   69   70 1    
   136   69  190 1    
   137   70   71 1    
   138   70   72 1    
   139   70  191 1    
   140   71  192 1    
   141   71  193 1    
   142   71  194 1    
   143   72   73 2    
   144   72   74 am   BACKBONE|DICT|INTERRES
   145   74   75 1    
   146   74  195 1    
   147   75   76 1    
   148   75   77 1    
   149   75  196 1    
   150   76  197 1    
   151   76  198 1    
   152   76  199 1    
   153   77   78 2    
   154   77   79 am   BACKBONE|DICT|INTERRES
   155   79   80 1    
   156   79  200 1    
   157   80   81 1    
   158   80   82 1    
   159   80  201 1    
   160   81  202 1    
   161   81  203 1    
   162   81  204 1    
   163   82   83 2    
   164   82   84 am   BACKBONE|DICT|INTERRES
   165   84   85 1    
   166   84  205 1    
   167   85   86 1    
   168   85   87 1    
   169   85  206 1    
   170   86  207 1    
   171   86  208 1    
   172   86  209 1    
   173   87   88 2    
   174   87   89 am   BACKBONE|DICT|INTERRES
   175   89   90 1    
   176   89  210 1    
   177   90   91 1    
   178   90   92 1    
   179   90  211 1    
   180   91  212 1    
   181   91  213 1    
   182   91  214 1    
   183   92   93 2    
   184   92   94 am   BACKBONE|DICT|INTERRES
   185   94   95 1    
   186   94  215 1    
   187   95   96 1    
   188   95   97 1    
   189   95  216 1    
   190   96  217 1    
   191   96  218 1    
   192   96  219 1    
   193   97   98 2    
   194   97   99 am   BACKBONE|DICT|INTERRES
   195   99  100 1    
   196   99  220 1    
   197  100  101 1    
   198  100  102 1    
   199  100  221 1    
   200  101  222 1    
   201  101  223 1    
   202  101  224 1    
   203  102  103 2    
   204  102  104 am   BACKBONE|DICT|INTERRES
   205  104  105 1    
   206  104  225 1    
   207  105  106 1    
   208  105  107 1    
   209  105  226 1    
   210  106  227 1    
   211  106  228 1    
   212  106  229 1    
   213  107  108 2    
   214  107  109 am   BACKBONE|DICT|INTERRES
   215  109  110 1    
   216  109  230 1    
   217  110  111 1    
   218  110  112 1    
   219  110  231 1    
   220  111  232 1    
   221  111  233 1    
   222  111  234 1    
   223  112  113 2    
   224  112  114 am   BACKBONE|DICT|INTERRES
   225  114  115 1    
   226  114  235 1    
   227  115  116 1    
   228  115  117 1    
   229  115  236 1    
   230  116  237 1    
   231  116  238 1    
   232  116  239 1    
   233  117  118 2    
   234  117  119 am   BACKBONE|DICT|INTERRES
   235  119  120 1    
   236  119  240 1    
   237  120  121 1    
   238  120  124 1    
   239  120  241 1    
   240  121  122 am   BACKBONE|DICT|INTERRES
   241  121  123 2    
   242  122  242 1    
   243  122  243 1    
   244  124  125 1    
   245  124  244 1    
   246  124  245 1    
   247  125  126 1    
   248  126  246 1    
   249  126  247 1    
@<TRIPOS>SUBSTRUCTURE
     1 UNK         1 GROUP             0       ****    0 ROOT    
