@<TRIPOS>MOLECULE
3R540
247   249    1
SMALL
USER_CHARGES


@<TRIPOS>ATOM
      1 CA          4.3891  -14.7346  -46.4539 C.3       0 UNK        -0.1800 
      2 C           2.9074  -14.4005  -46.5560 C.2       0 UNK         0.5000 
      3 O           2.0669  -15.2954  -46.4795 O.2       0 UNK        -0.5000 
      4 N           2.5932  -13.1147  -46.7367 N.am      1 UNK        -0.5000 
      5 CA          1.2388  -12.5784  -46.8784 C.3       1 UNK         0.1400 
      6 C6          0.8965  -12.2113  -48.3508 C.3       23 UNK        -0.0398 
      7 S7          1.2111  -13.5487  -49.5565 S.3       23 UNK        -0.2404 
      8 C8         -0.2738  -14.5741  -49.3500 C.3       23 UNK        -0.0205 
      9 C9         -0.1097  -15.9207  -50.0375 C.ar      23 UNK        -0.0193 
     10 C10        -0.4914  -16.0786  -51.3723 C.ar      23 UNK        -0.1150 
     11 C11        -0.3538  -17.3150  -52.0107 C.ar      23 UNK        -0.0193 
     12 C12         0.1719  -18.3989  -51.3010 C.ar      23 UNK        -0.1150 
     13 C13         0.5671  -18.2528  -49.9673 C.ar      23 UNK        -0.0193 
     14 C14         0.4266  -17.0095  -49.3420 C.ar      23 UNK        -0.1150 
     15 C15         1.1586  -19.4378  -49.2173 C.3       23 UNK        -0.0205 
     16 S16        -0.1482  -20.5441  -48.6101 S.3       23 UNK        -0.2404 
     17 C17         0.8149  -22.0167  -48.1254 C.3       23 UNK        -0.0398 
     18 CA          0.1405  -22.9681  -47.1005 C.3       11 UNK         0.1400 
     19 N           0.2336  -22.4984  -45.7123 N.am      11 UNK        -0.5000 
     20 C           0.0479  -23.2992  -44.6506 C.2       10 UNK         0.5000 
     21 O          -0.2312  -24.4931  -44.7464 O.2       10 UNK        -0.5000 
     22 CA          0.1505  -22.6763  -43.2479 C.3       10 UNK         0.1400 
     23 CB          1.6154  -22.4359  -42.8560 C.3       10 UNK        -0.1800 
     24 N          -0.6193  -21.4413  -43.1182 N.am      10 UNK        -0.5000 
     25 C          -1.9539  -21.3675  -43.2297 C.2       9 UNK         0.5000 
     26 O          -2.6802  -22.3431  -43.4224 O.2       9 UNK        -0.5000 
     27 CA         -2.5762  -19.9602  -43.1659 C.3       9 UNK         0.1400 
     28 CB         -2.7229  -19.4847  -41.7131 C.3       9 UNK        -0.1800 
     29 N          -1.8034  -18.9796  -43.9271 N.am      9 UNK        -0.5000 
     30 C          -1.6013  -19.0397  -45.2506 C.2       8 UNK         0.5000 
     31 O          -2.1149  -19.8860  -45.9798 O.2       8 UNK        -0.5000 
     32 CA         -0.6147  -18.0195  -45.8410 C.3       8 UNK         0.1400 
     33 CB         -1.2888  -16.6556  -46.0572 C.3       8 UNK        -0.1800 
     34 N           0.5782  -17.8744  -45.0047 N.am      8 UNK        -0.5000 
     35 C           1.4964  -18.8348  -44.8217 C.2       7 UNK         0.5000 
     36 O           1.4664  -19.9239  -45.3933 O.2       7 UNK        -0.5000 
     37 CA          2.6104  -18.5561  -43.7948 C.3       7 UNK         0.1400 
     38 CB          3.8138  -17.8842  -44.4650 C.3       7 UNK        -0.1800 
     39 N           2.1467  -17.7293  -42.6804 N.am      7 UNK        -0.5000 
     40 C           1.3226  -18.1671  -41.7154 C.2       6 UNK         0.5000 
     41 O           0.9286  -19.3303  -41.6357 O.2       6 UNK        -0.5000 
     42 CA          0.7978  -17.1169  -40.7124 C.3       6 UNK         0.1400 
     43 CB          1.7695  -16.9598  -39.5341 C.3       6 UNK        -0.1800 
     44 N           0.5797  -15.8106  -41.3380 N.am      6 UNK        -0.5000 
     45 C          -0.2622  -15.6002  -42.3578 C.2       5 UNK         0.5000 
     46 O          -1.0837  -16.4411  -42.7214 O.2       5 UNK        -0.5000 
     47 CA         -0.1369  -14.2839  -43.1564 C.3       5 UNK         0.1400 
     48 CB         -1.4566  -13.5001  -43.1189 C.3       5 UNK        -0.1800 
     49 N           0.9779  -13.3986  -42.7873 N.am      5 UNK        -0.5000 
     50 C           2.2856  -13.6995  -42.8607 C.2       4 UNK         0.5000 
     51 O           2.6983  -14.8161  -43.1775 O.2       4 UNK        -0.5000 
     52 CA          3.2980  -12.5922  -42.5017 C.3       4 UNK         0.1400 
     53 CB          4.5466  -12.6402  -43.3985 C.3       4 UNK        -0.1800 
     54 N           2.7088  -11.2570  -42.5998 N.am      4 UNK        -0.5000 
     55 C           2.3913  -10.4670  -41.5655 C.2       3 UNK         0.5000 
     56 O           2.5607  -10.7817  -40.3872 O.2       3 UNK        -0.5000 
     57 CA          1.7647   -9.0961  -41.8976 C.3       3 UNK         0.1400 
     58 CB          2.8334   -7.9933  -41.8545 C.3       3 UNK        -0.1800 
     59 N           1.0974   -9.0586  -43.2013 N.am      3 UNK        -0.5000 
     60 C          -0.0034   -9.7533  -43.5159 C.2       2 UNK         0.5000 
     61 O          -0.6053  -10.4634  -42.7112 O.2       2 UNK        -0.5000 
     62 CA         -0.4970   -9.6819  -44.9758 C.3       2 UNK         0.1400 
     63 CB         -0.0567   -8.3996  -45.7171 C.3       2 UNK        -0.1800 
     64 N          -0.1246  -10.8753  -45.7482 N.am      2 UNK        -0.5000 
     65 C           1.1141  -11.3445  -45.9623 C.2       1 UNK         0.5000 
     66 O           2.1314  -10.8339  -45.4819 O.2       1 UNK        -0.5000 
     67 C          -1.2964  -23.3853  -47.4873 C.2       11 UNK         0.5000 
     68 O          -1.4634  -24.3504  -48.2373 O.2       11 UNK        -0.5000 
     69 N          -2.3053  -22.6891  -46.9406 N.am      12 UNK        -0.5000 
     70 CA         -3.7201  -23.0329  -47.0722 C.3       12 UNK         0.1400 
     71 CB         -4.5949  -21.9026  -46.5126 C.3       12 UNK        -0.1800 
     72 C          -4.0591  -24.3765  -46.4053 C.2       12 UNK         0.5000 
     73 O          -4.7571  -25.1912  -47.0079 O.2       12 UNK        -0.5000 
     74 N          -3.5325  -24.6033  -45.1952 N.am      13 UNK        -0.5000 
     75 CA         -3.6819  -25.8609  -44.4645 C.3       13 UNK         0.1400 
     76 CB         -3.2102  -25.6693  -43.0148 C.3       13 UNK        -0.1800 
     77 C          -2.9353  -27.0311  -45.1329 C.2       13 UNK         0.5000 
     78 O          -3.4776  -28.1347  -45.2035 O.2       13 UNK        -0.5000 
     79 N          -1.7067  -26.7725  -45.5990 N.am      14 UNK        -0.5000 
     80 CA         -0.8144  -27.7766  -46.1721 C.3       14 UNK         0.1400 
     81 CB          0.6282  -27.2472  -46.1623 C.3       14 UNK        -0.1800 
     82 C          -1.2062  -28.2219  -47.5903 C.2       14 UNK         0.5000 
     83 O          -1.1767  -29.4227  -47.8652 O.2       14 UNK        -0.5000 
     84 N          -1.5174  -27.2648  -48.4760 N.am      15 UNK        -0.5000 
     85 CA         -1.6288  -27.5151  -49.9160 C.3       15 UNK         0.1400 
     86 CB         -0.2253  -27.4372  -50.5519 C.3       15 UNK        -0.1800 
     87 C          -2.6327  -26.5847  -50.6175 C.2       15 UNK         0.5000 
     88 O          -2.5013  -26.3605  -51.8222 O.2       15 UNK        -0.5000 
     89 N          -3.6051  -26.0368  -49.8714 N.am      16 UNK        -0.5000 
     90 CA         -4.6746  -25.1453  -50.3511 C.3       16 UNK         0.1400 
     91 CB         -5.6577  -25.9256  -51.2495 C.3       16 UNK        -0.1800 
     92 C          -4.1619  -23.8538  -51.0288 C.2       16 UNK         0.5000 
     93 O          -4.8614  -23.2941  -51.8725 O.2       16 UNK        -0.5000 
     94 N          -2.9411  -23.4260  -50.6646 N.am      17 UNK        -0.5000 
     95 CA         -2.1692  -22.3249  -51.2546 C.3       17 UNK         0.1400 
     96 CB         -2.8548  -20.9699  -50.9790 C.3       17 UNK        -0.1800 
     97 C          -1.8483  -22.5411  -52.7514 C.2       17 UNK         0.5000 
     98 O          -1.7061  -21.5702  -53.4950 O.2       17 UNK        -0.5000 
     99 N          -1.7778  -23.8147  -53.1737 N.am      18 UNK        -0.5000 
    100 CA        -1.7042  -24.3389  -54.5451 C.3       18 UNK         0.1400 
    101 CB        -0.5203  -23.7566  -55.3412 C.3       18 UNK        -0.1800 
    102 C         -3.0359  -24.2008  -55.3101 C.2       18 UNK         0.5000 
    103 O         -3.4602  -25.1523  -55.9669 O.2       18 UNK        -0.5000 
    104 N         -3.6908  -23.0461  -55.1760 N.am      19 UNK        -0.5000 
    105 CA        -5.0524  -22.7601  -55.5995 C.3       19 UNK         0.1400 
    106 CB        -5.0666  -22.3214  -57.0730 C.3       19 UNK        -0.1800 
    107 C         -5.5835  -21.6504  -54.6848 C.2       19 UNK         0.5000 
    108 O         -4.8051  -20.7917  -54.2649 O.2       19 UNK        -0.5000 
    109 N         -6.8958  -21.6515  -54.4192 N.am      20 UNK        -0.5000 
    110 CA        -7.5563  -20.7174  -53.4973 C.3       20 UNK         0.1400 
    111 CB        -9.0269  -21.1312  -53.3346 C.3       20 UNK        -0.1800 
    112 C         -7.4553  -19.2335  -53.9102 C.2       20 UNK         0.5000 
    113 O         -7.4800  -18.3591  -53.0435 O.2       20 UNK        -0.5000 
    114 N         -7.3271  -18.9859  -55.2194 N.am      21 UNK        -0.5000 
    115 CA        -7.1170  -17.6666  -55.8176 C.3       21 UNK         0.1400 
    116 CB        -8.0425  -17.5423  -57.0408 C.3       21 UNK        -0.1800 
    117 C         -5.6436  -17.4259  -56.2135 C.2       21 UNK         0.5000 
    118 O         -5.3587  -16.4121  -56.8522 O.2       21 UNK        -0.5000 
    119 N         -4.7418  -18.3582  -55.8681 N.am      22 UNK        -0.5000 
    120 CA        -3.3077  -18.3780  -56.2191 C.3       22 UNK         0.1400 
    121 C         -3.0028  -18.5850  -57.7369 C.2       22 UNK         0.5000 
    122 N         -3.9723  -18.9318  -58.5750 N.am      22 UNK        -0.7600 
    123 O         -1.8574  -18.4666  -58.1639 O.2       22 UNK        -0.5000 
    124 C124       -2.5117  -17.1863  -55.6144 C.3       23 UNK        -0.0398 
    125 S125       -2.4986  -17.1937  -53.7875 S.3       23 UNK        -0.2404 
    126 C126       -0.7231  -17.4619  -53.4795 C.3       23 UNK        -0.0205 
    127 H127        5.0117  -13.9172  -46.8183 H         1 UNK         0.0600 
    128 H128        4.6165  -15.6221  -47.0443 H         1 UNK         0.0600 
    129 H129        4.6603  -14.9328  -45.4177 H         1 UNK         0.0600 
    130 H130        3.3163  -12.4084  -46.7171 H         1 UNK         0.3000 
    131 H131        0.5137  -13.3109  -46.5186 H         1 UNK         0.0600 
    132 H132       -0.1468  -11.9043  -48.4398 H         1 UNK         0.0800 
    133 H133        1.4895  -11.3524  -48.6708 H         1 UNK         0.0800 
    134 H134       -0.4679  -14.7242  -48.2890 H         1 UNK         0.0800 
    135 H135       -1.1402  -14.0463  -49.7514 H         1 UNK         0.0800 
    136 H136       -0.8917  -15.2365  -51.9194 H         1 UNK         0.1150 
    137 H137        0.2833  -19.3579  -51.7879 H         1 UNK         0.1150 
    138 H138        0.7422  -16.8829  -48.3159 H         1 UNK         0.1150 
    139 H139        1.8277  -19.9903  -49.8787 H         1 UNK         0.0800 
    140 H140        1.7628  -19.0979  -48.3742 H         1 UNK         0.0800 
    141 H141        1.7827  -21.6940  -47.7386 H         1 UNK         0.0800 
    142 H142        1.0344  -22.5713  -49.0391 H         1 UNK         0.0800 
    143 H143        0.7270  -23.8888  -47.1363 H         1 UNK         0.0600 
    144 H144        0.4902  -21.5235  -45.5731 H         1 UNK         0.3000 
    145 H145       -0.2673  -23.3944  -42.5391 H         1 UNK         0.0600 
    146 H146        1.6942  -22.0336  -41.8460 H         1 UNK         0.0600 
    147 H147        2.1805  -23.3684  -42.8794 H         1 UNK         0.0600 
    148 H148        2.1079  -21.7409  -43.5344 H         1 UNK         0.0600 
    149 H149       -0.0980  -20.5976  -42.9075 H         1 UNK         0.3000 
    150 H150       -3.5727  -20.0157  -43.6087 H         1 UNK         0.0600 
    151 H151       -3.3305  -20.1817  -41.1348 H         1 UNK         0.0600 
    152 H152       -3.2089  -18.5100  -41.6650 H         1 UNK         0.0600 
    153 H153       -1.7569  -19.4001  -41.2153 H         1 UNK         0.0600 
    154 H154       -1.3922  -18.2089  -43.4080 H         1 UNK         0.3000 
    155 H155       -0.2882  -18.3853  -46.8123 H         1 UNK         0.0600 
    156 H156       -1.8246  -16.3117  -45.1735 H         1 UNK         0.0600 
    157 H157       -0.5599  -15.8921  -46.3220 H         1 UNK         0.0600 
    158 H158       -2.0131  -16.7133  -46.8704 H         1 UNK         0.0600 
    159 H159        0.6849  -17.0049  -44.5064 H         1 UNK         0.3000 
    160 H160        2.9445  -19.5148  -43.3942 H         1 UNK         0.0600 
    161 H161        3.5409  -16.9114  -44.8680 H         1 UNK         0.0600 
    162 H162        4.1932  -18.4889  -45.2897 H         1 UNK         0.0600 
    163 H163        4.6317  -17.7386  -43.7594 H         1 UNK         0.0600 
    164 H164        2.4027  -16.7465  -42.7082 H         1 UNK         0.3000 
    165 H165       -0.1599  -17.4721  -40.3264 H         1 UNK         0.0600 
    166 H166        1.3753  -16.2709  -38.7868 H         1 UNK         0.0600 
    167 H167        1.9370  -17.9164  -39.0372 H         1 UNK         0.0600 
    168 H168        2.7403  -16.5840  -39.8597 H         1 UNK         0.0600 
    169 H169        1.2316  -15.0778  -41.1020 H         1 UNK         0.3000 
    170 H170        0.0357  -14.5833  -44.1918 H         1 UNK         0.0600 
    171 H171       -2.3081  -14.1387  -43.3580 H         1 UNK         0.0600 
    172 H172       -1.6376  -13.0659  -42.1351 H         1 UNK         0.0600 
    173 H173       -1.4548  -12.6940  -43.8511 H         1 UNK         0.0600 
    174 H174        0.7213  -12.4643  -42.4963 H         1 UNK         0.3000 
    175 H175        3.6201  -12.7914  -41.4780 H         1 UNK         0.0600 
    176 H176        5.2719  -11.8836  -43.0991 H         1 UNK         0.0600 
    177 H177        4.2964  -12.4636  -44.4442 H         1 UNK         0.0600 
    178 H178        5.0467  -13.6071  -43.3330 H         1 UNK         0.0600 
    179 H179        2.5180  -10.9270  -43.5421 H         1 UNK         0.3000 
    180 H180        1.0190   -8.8812  -41.1293 H         1 UNK         0.0600 
    181 H181        3.5992   -8.1460  -42.6161 H         1 UNK         0.0600 
    182 H182        3.3337   -7.9711  -40.8854 H         1 UNK         0.0600 
    183 H183        2.3920   -7.0092  -42.0133 H         1 UNK         0.0600 
    184 H184        1.5557   -8.5313  -43.9306 H         1 UNK         0.3000 
    185 H185       -1.5869   -9.6709  -44.9260 H         1 UNK         0.0600 
    186 H186       -0.3409   -7.5065  -45.1589 H         1 UNK         0.0600 
    187 H187        1.0205   -8.3597  -45.8814 H         1 UNK         0.0600 
    188 H188       -0.5378   -8.3331  -46.6929 H         1 UNK         0.0600 
    189 H189       -0.9043  -11.3744  -46.1528 H         1 UNK         0.3000 
    190 H190       -2.0892  -21.8583  -46.3974 H         1 UNK         0.3000 
    191 H191       -3.9443  -23.1230  -48.1340 H         1 UNK         0.0600 
    192 H192       -4.4268  -20.9723  -47.0556 H         1 UNK         0.0600 
    193 H193       -5.6542  -22.1453  -46.6047 H         1 UNK         0.0600 
    194 H194       -4.3901  -21.7161  -45.4585 H         1 UNK         0.0600 
    195 H195       -3.0005  -23.8684  -44.7399 H         1 UNK         0.3000 
    196 H196       -4.7439  -26.1144  -44.4417 H         1 UNK         0.0600 
    197 H197       -3.3250  -26.5897  -42.4410 H         1 UNK         0.0600 
    198 H198       -3.7913  -24.8966  -42.5112 H         1 UNK         0.0600 
    199 H199       -2.1599  -25.3799  -42.9667 H         1 UNK         0.0600 
    200 H200       -1.3076  -25.8505  -45.4382 H         1 UNK         0.3000 
    201 H201       -0.8447  -28.6596  -45.5299 H         1 UNK         0.0600 
    202 H202        0.9570  -27.0183  -45.1484 H         1 UNK         0.0600 
    203 H203        0.7282  -26.3404  -46.7594 H         1 UNK         0.0600 
    204 H204        1.3199  -27.9862  -46.5687 H         1 UNK         0.0600 
    205 H205       -1.5143  -26.2888  -48.1902 H         1 UNK         0.3000 
    206 H206       -2.0188  -28.5217  -50.0791 H         1 UNK         0.0600 
    207 H207        0.4617  -28.1449  -50.0878 H         1 UNK         0.0600 
    208 H208       -0.2553  -27.6756  -51.6158 H         1 UNK         0.0600 
    209 H209        0.2021  -26.4391  -50.4482 H         1 UNK         0.0600 
    210 H210       -3.6329  -26.2532  -48.8834 H         1 UNK         0.3000 
    211 H211       -5.2342  -24.8183  -49.4764 H         1 UNK         0.0600 
    212 H212       -5.1979  -26.2195  -52.1937 H         1 UNK         0.0600 
    213 H213       -6.5350  -25.3231  -51.4880 H         1 UNK         0.0600 
    214 H214       -6.0132  -26.8286  -50.7532 H         1 UNK         0.0600 
    215 H215       -2.4571  -23.9531  -49.9443 H         1 UNK         0.3000 
    216 H216       -1.2075  -22.3226  -50.7420 H         1 UNK         0.0600 
    217 H217       -2.2142  -20.1393  -51.2767 H         1 UNK         0.0600 
    218 H218       -3.0707  -20.8459  -49.9177 H         1 UNK         0.0600 
    219 H219       -3.7908  -20.8683  -51.5290 H         1 UNK         0.0600 
    220 H220       -1.9640  -24.5365  -52.4840 H         1 UNK         0.3000 
    221 H221       -1.5209  -25.4085  -54.4305 H         1 UNK         0.0600 
    222 H222       -0.6621  -22.7023  -55.5792 H         1 UNK         0.0600 
    223 H223        0.4141  -23.8555  -54.7889 H         1 UNK         0.0600 
    224 H224       -0.3975  -24.2848  -56.2873 H         1 UNK         0.0600 
    225 H225       -3.2739  -22.3167  -54.6023 H         1 UNK         0.3000 
    226 H226       -5.6690  -23.6518  -55.4689 H         1 UNK         0.0600 
    227 H227       -4.7081  -23.1177  -57.7253 H         1 UNK         0.0600 
    228 H228       -6.0757  -22.0650  -57.3974 H         1 UNK         0.0600 
    229 H229       -4.4340  -21.4485  -57.2350 H         1 UNK         0.0600 
    230 H230       -7.4762  -22.3785  -54.8120 H         1 UNK         0.3000 
    231 H231       -7.0654  -20.8157  -52.5266 H         1 UNK         0.0600 
    232 H232       -9.5643  -21.0870  -54.2826 H         1 UNK         0.0600 
    233 H233       -9.5430  -20.4737  -52.6336 H         1 UNK         0.0600 
    234 H234       -9.1108  -22.1464  -52.9462 H         1 UNK         0.0600 
    235 H235       -7.3238  -19.7730  -55.8515 H         1 UNK         0.3000 
    236 H236       -7.3887  -16.8823  -55.1084 H         1 UNK         0.0600 
    237 H237       -9.0857  -17.6902  -56.7609 H         1 UNK         0.0600 
    238 H238       -7.9690  -16.5524  -57.4929 H         1 UNK         0.0600 
    239 H239       -7.7947  -18.2746  -57.8101 H         1 UNK         0.0600 
    240 H240       -5.0401  -19.1406  -55.2945 H         1 UNK         0.3000 
    241 H241       -2.9195  -19.2849  -55.7534 H         1 UNK         0.0600 
    242 H242       -3.7561  -19.0725  -59.5493 H         1 UNK         0.3800 
    243 H243       -4.9201  -19.0296  -58.2523 H         1 UNK         0.3800 
    244 H244       -1.4787  -17.2001  -55.9644 H         1 UNK         0.0800 
    245 H245       -2.9175  -16.2337  -55.9552 H         1 UNK         0.0800 
    246 H246       -0.4480  -18.4508  -53.8509 H         1 UNK         0.0800 
    247 H247       -0.1404  -16.7396  -54.0530 H         1 UNK         0.0800 
@<TRIPOS>BOND
     1    1    2 1    
     2    1  127 1    
     3    1  128 1    
     4    1  129 1    
     5    2    3 2    
     6    2    4 am   BACKBONE|DICT|INTERRES
     7    4    5 1    
     8    4  130 1    
     9    5    6 1    
    10    5   65 1    
    11    5  131 1    
    12    6    7 1    
    13    6  132 1    
    14    6  133 1    
    15    7    8 1    
    16    8    9 1    
    17    8  134 1    
    18    8  135 1    
    19    9   10 ar   
    20    9   14 ar   
    21   10   11 ar   
    22   10  136 1    
    23   11   12 ar   
    24   11  126 1    
    25   12   13 ar   
    26   12  137 1    
    27   13   14 ar   
    28   13   15 1    
    29   14  138 1    
    30   15   16 1    
    31   15  139 1    
    32   15  140 1    
    33   16   17 1    
    34   17   18 1    
    35   17  141 1    
    36   17  142 1    
    37   18   19 1    
    38   18   67 1    
    39   18  143 1    
    40   19   20 am   BACKBONE|DICT|INTERRES
    41   19  144 1    
    42   20   21 2    
    43   20   22 1    
    44   22   23 1    
    45   22   24 1    
    46   22  145 1    
    47   23  146 1    
    48   23  147 1    
    49   23  148 1    
    50   24   25 am   BACKBONE|DICT|INTERRES
    51   24  149 1    
    52   25   26 2    
    53   25   27 1    
    54   27   28 1    
    55   27   29 1    
    56   27  150 1    
    57   28  151 1    
    58   28  152 1    
    59   28  153 1    
    60   29   30 am   BACKBONE|DICT|INTERRES
    61   29  154 1    
    62   30   31 2    
    63   30   32 1    
    64   32   33 1    
    65   32   34 1    
    66   32  155 1    
    67   33  156 1    
    68   33  157 1    
    69   33  158 1    
    70   34   35 am   BACKBONE|DICT|INTERRES
    71   34  159 1    
    72   35   36 2    
    73   35   37 1    
    74   37   38 1    
    75   37   39 1    
    76   37  160 1    
    77   38  161 1    
    78   38  162 1    
    79   38  163 1    
    80   39   40 am   BACKBONE|DICT|INTERRES
    81   39  164 1    
    82   40   41 2    
    83   40   42 1    
    84   42   43 1    
    85   42   44 1    
    86   42  165 1    
    87   43  166 1    
    88   43  167 1    
    89   43  168 1    
    90   44   45 am   BACKBONE|DICT|INTERRES
    91   44  169 1    
    92   45   46 2    
    93   45   47 1    
    94   47   48 1    
    95   47   49 1    
    96   47  170 1    
    97   48  171 1    
    98   48  172 1    
    99   48  173 1    
   100   49   50 am   BACKBONE|DICT|INTERRES
   101   49  174 1    
   102   50   51 2    
   103   50   52 1    
   104   52   53 1    
   105   52   54 1    
   106   52  175 1    
   107   53  176 1    
   108   53  177 1    
   109   53  178 1    
   110   54   55 am   BACKBONE|DICT|INTERRES
   111   54  179 1    
   112   55   56 2    
   113   55   57 1    
   114   57   58 1    
   115   57   59 1    
   116   57  180 1    
   117   58  181 1    
   118   58  182 1    
   119   58  183 1    
   120   59   60 am   BACKBONE|DICT|INTERRES
   121   59  184 1    
   122   60   61 2    
   123   60   62 1    
   124   62   63 1    
   125   62   64 1    
   126   62  185 1    
   127   63  186 1    
   128   63  187 1    
   129   63  188 1    
   130   64   65 am   BACKBONE|DICT|INTERRES
   131   64  189 1    
   132   65   66 2    
   133   67   68 2    
   134   67   69 am   BACKBONE|DICT|INTERRES
   135   69   70 1    
   136   69  190 1    
   137   70   71 1    
   138   70   72 1    
   139   70  191 1    
   140   71  192 1    
   141   71  193 1    
   142   71  194 1    
   143   72   73 2    
   144   72   74 am   BACKBONE|DICT|INTERRES
   145   74   75 1    
   146   74  195 1    
   147   75   76 1    
   148   75   77 1    
   149   75  196 1    
   150   76  197 1    
   151   76  198 1    
   152   76  199 1    
   153   77   78 2    
   154   77   79 am   BACKBONE|DICT|INTERRES
   155   79   80 1    
   156   79  200 1    
   157   80   81 1    
   158   80   82 1    
   159   80  201 1    
   160   81  202 1    
   161   81  203 1    
   162   81  204 1    
   163   82   83 2    
   164   82   84 am   BACKBONE|DICT|INTERRES
   165   84   85 1    
   166   84  205 1    
   167   85   86 1    
   168   85   87 1    
   169   85  206 1    
   170   86  207 1    
   171   86  208 1    
   172   86  209 1    
   173   87   88 2    
   174   87   89 am   BACKBONE|DICT|INTERRES
   175   89   90 1    
   176   89  210 1    
   177   90   91 1    
   178   90   92 1    
   179   90  211 1    
   180   91  212 1    
   181   91  213 1    
   182   91  214 1    
   183   92   93 2    
   184   92   94 am   BACKBONE|DICT|INTERRES
   185   94   95 1    
   186   94  215 1    
   187   95   96 1    
   188   95   97 1    
   189   95  216 1    
   190   96  217 1    
   191   96  218 1    
   192   96  219 1    
   193   97   98 2    
   194   97   99 am   BACKBONE|DICT|INTERRES
   195   99  100 1    
   196   99  220 1    
   197  100  101 1    
   198  100  102 1    
   199  100  221 1    
   200  101  222 1    
   201  101  223 1    
   202  101  224 1    
   203  102  103 2    
   204  102  104 am   BACKBONE|DICT|INTERRES
   205  104  105 1    
   206  104  225 1    
   207  105  106 1    
   208  105  107 1    
   209  105  226 1    
   210  106  227 1    
   211  106  228 1    
   212  106  229 1    
   213  107  108 2    
   214  107  109 am   BACKBONE|DICT|INTERRES
   215  109  110 1    
   216  109  230 1    
   217  110  111 1    
   218  110  112 1    
   219  110  231 1    
   220  111  232 1    
   221  111  233 1    
   222  111  234 1    
   223  112  113 2    
   224  112  114 am   BACKBONE|DICT|INTERRES
   225  114  115 1    
   226  114  235 1    
   227  115  116 1    
   228  115  117 1    
   229  115  236 1    
   230  116  237 1    
   231  116  238 1    
   232  116  239 1    
   233  117  118 2    
   234  117  119 am   BACKBONE|DICT|INTERRES
   235  119  120 1    
   236  119  240 1    
   237  120  121 1    
   238  120  124 1    
   239  120  241 1    
   240  121  122 am   BACKBONE|DICT|INTERRES
   241  121  123 2    
   242  122  242 1    
   243  122  243 1    
   244  124  125 1    
   245  124  244 1    
   246  124  245 1    
   247  125  126 1    
   248  126  246 1    
   249  126  247 1    
@<TRIPOS>SUBSTRUCTURE
     1 UNK         1 GROUP             0       ****    0 ROOT    
