@<TRIPOS>MOLECULE
3R540
247   249    1
SMALL
USER_CHARGES


@<TRIPOS>ATOM
      1 CA         -3.0462  -16.8189  -49.0067 C.3       0 UNK        -0.1800 
      2 C          -2.6537  -15.5050  -48.3514 C.2       0 UNK         0.5000 
      3 O          -3.5304  -14.7431  -47.9428 O.2       0 UNK        -0.5000 
      4 N          -1.3458  -15.2394  -48.2384 N.am      1 UNK        -0.5000 
      5 CA         -0.7900  -14.1074  -47.4921 C.3       1 UNK         0.1400 
      6 C6          0.7170  -13.8955  -47.7647 C.3       23 UNK        -0.0398 
      7 S7          1.0495  -13.2488  -49.4355 S.3       23 UNK        -0.2404 
      8 C8          1.9618  -14.6210  -50.2116 C.3       23 UNK        -0.0205 
      9 C9          1.0492  -15.7755  -50.5964 C.ar      23 UNK        -0.0193 
     10 C10         0.0364  -15.5801  -51.5407 C.ar      23 UNK        -0.1150 
     11 C11        -0.8098  -16.6300  -51.9054 C.ar      23 UNK        -0.0193 
     12 C12        -0.6225  -17.8903  -51.3323 C.ar      23 UNK        -0.1150 
     13 C13         0.3974  -18.1037  -50.4008 C.ar      23 UNK        -0.0193 
     14 C14         1.2254  -17.0407  -50.0283 C.ar      23 UNK        -0.1150 
     15 C15         0.6116  -19.4867  -49.8124 C.3       23 UNK        -0.0205 
     16 S16        -0.1961  -19.6537  -48.1946 S.3       23 UNK        -0.2404 
     17 C17        -0.0746  -21.4620  -47.9865 C.3       23 UNK        -0.0398 
     18 CA         -0.8392  -22.0432  -46.7714 C.3       11 UNK         0.1400 
     19 N          -0.1927  -21.7802  -45.4846 N.am      11 UNK        -0.5000 
     20 C           0.7031  -22.6150  -44.9337 C.2       10 UNK         0.5000 
     21 O           1.1697  -23.5932  -45.5195 O.2       10 UNK        -0.5000 
     22 CA          1.1427  -22.3529  -43.4782 C.3       10 UNK         0.1400 
     23 CB          2.5297  -21.6945  -43.4534 C.3       10 UNK        -0.1800 
     24 N           0.1982  -21.5361  -42.7139 N.am      10 UNK        -0.5000 
     25 C          -1.0698  -21.8783  -42.4357 C.2       9 UNK         0.5000 
     26 O          -1.5514  -22.9779  -42.7078 O.2       9 UNK        -0.5000 
     27 CA         -1.9764  -20.8080  -41.7917 C.3       9 UNK         0.1400 
     28 CB         -2.2694  -21.1618  -40.3259 C.3       9 UNK        -0.1800 
     29 N          -1.4614  -19.4360  -41.8522 N.am      9 UNK        -0.5000 
     30 C          -1.1510  -18.7515  -42.9616 C.2       8 UNK         0.5000 
     31 O          -1.2367  -19.2292  -44.0972 O.2       8 UNK        -0.5000 
     32 CA         -0.6188  -17.3140  -42.7798 C.3       8 UNK         0.1400 
     33 CB         -0.4108  -16.8941  -41.3075 C.3       8 UNK        -0.1800 
     34 N           0.5947  -17.1078  -43.5740 N.am      8 UNK        -0.5000 
     35 C           1.7354  -17.8054  -43.4829 C.2       7 UNK         0.5000 
     36 O           1.9939  -18.5807  -42.5619 O.2       7 UNK        -0.5000 
     37 CA          2.7272  -17.6535  -44.6432 C.3       7 UNK         0.1400 
     38 CB          2.0796  -18.0744  -45.9783 C.3       7 UNK        -0.1800 
     39 N           3.2603  -16.2959  -44.7156 N.am      7 UNK        -0.5000 
     40 C           4.3472  -15.9475  -45.4188 C.2       6 UNK         0.5000 
     41 O           5.0077  -16.7354  -46.0970 O.2       6 UNK        -0.5000 
     42 CA          4.7970  -14.4812  -45.3323 C.3       6 UNK         0.1400 
     43 CB          3.7926  -13.5439  -46.0188 C.3       6 UNK        -0.1800 
     44 N           4.9666  -14.0806  -43.9394 N.am      6 UNK        -0.5000 
     45 C           6.1274  -14.1217  -43.2701 C.2       5 UNK         0.5000 
     46 O           7.1999  -14.4508  -43.7786 O.2       5 UNK        -0.5000 
     47 CA          6.0951  -13.7248  -41.7798 C.3       5 UNK         0.1400 
     48 CB          6.5154  -12.2571  -41.6065 C.3       5 UNK        -0.1800 
     49 N           4.7806  -13.9150  -41.1671 N.am      5 UNK        -0.5000 
     50 C           4.2270  -15.1063  -40.9031 C.2       4 UNK         0.5000 
     51 O           4.8119  -16.1794  -41.0492 O.2       4 UNK        -0.5000 
     52 CA          2.7608  -15.0971  -40.4302 C.3       4 UNK         0.1400 
     53 CB          2.6805  -15.2158  -38.9013 C.3       4 UNK        -0.1800 
     54 N           2.0028  -13.9151  -40.8619 N.am      4 UNK        -0.5000 
     55 C           1.7166  -13.6205  -42.1365 C.2       3 UNK         0.5000 
     56 O           2.1072  -14.2899  -43.0941 O.2       3 UNK        -0.5000 
     57 CA          0.9038  -12.3426  -42.3969 C.3       3 UNK         0.1400 
     58 CB          1.7941  -11.2644  -43.0341 C.3       3 UNK        -0.1800 
     59 N          -0.2222  -12.6220  -43.2851 N.am      3 UNK        -0.5000 
     60 C          -1.3176  -13.3029  -42.9239 C.2       2 UNK         0.5000 
     61 O          -1.5310  -13.6832  -41.7725 O.2       2 UNK        -0.5000 
     62 CA         -2.3665  -13.5987  -44.0133 C.3       2 UNK         0.1400 
     63 CB         -3.5887  -12.6830  -43.8415 C.3       2 UNK        -0.1800 
     64 N          -1.8761  -13.4708  -45.3879 N.am      2 UNK        -0.5000 
     65 C          -1.0384  -14.3261  -45.9878 C.2       1 UNK         0.5000 
     66 O          -0.4873  -15.2679  -45.4178 O.2       1 UNK        -0.5000 
     67 C          -2.3385  -21.6992  -46.7716 C.2       11 UNK         0.5000 
     68 O          -3.0931  -22.3749  -47.4727 O.2       11 UNK        -0.5000 
     69 N          -2.7769  -20.7040  -45.9840 N.am      12 UNK        -0.5000 
     70 CA         -4.1676  -20.2285  -45.9512 C.3       12 UNK         0.1400 
     71 CB         -4.2539  -18.9641  -45.0829 C.3       12 UNK        -0.1800 
     72 C          -5.1977  -21.2797  -45.4856 C.2       12 UNK         0.5000 
     73 O          -6.3931  -21.0983  -45.7180 O.2       12 UNK        -0.5000 
     74 N          -4.7198  -22.3612  -44.8554 N.am      13 UNK        -0.5000 
     75 CA         -5.5119  -23.5166  -44.4460 C.3       13 UNK         0.1400 
     76 CB         -4.6580  -24.4015  -43.5253 C.3       13 UNK        -0.1800 
     77 C          -6.0683  -24.3429  -45.6246 C.2       13 UNK         0.5000 
     78 O          -7.1431  -24.9252  -45.4718 O.2       13 UNK        -0.5000 
     79 N          -5.3562  -24.3871  -46.7636 N.am      14 UNK        -0.5000 
     80 CA         -5.7665  -25.1355  -47.9572 C.3       14 UNK         0.1400 
     81 CB         -5.7518  -26.6592  -47.7080 C.3       14 UNK        -0.1800 
     82 C          -4.8922  -24.8070  -49.1735 C.2       14 UNK         0.5000 
     83 O          -5.4272  -24.4762  -50.2333 O.2       14 UNK        -0.5000 
     84 N          -3.5651  -24.9263  -49.0130 N.am      15 UNK        -0.5000 
     85 CA         -2.5639  -24.8401  -50.0851 C.3       15 UNK         0.1400 
     86 CB         -1.1664  -25.1126  -49.5139 C.3       15 UNK        -0.1800 
     87 C          -2.5770  -23.5321  -50.8969 C.2       15 UNK         0.5000 
     88 O          -2.2226  -23.5579  -52.0751 O.2       15 UNK        -0.5000 
     89 N          -3.0400  -22.4320  -50.2904 N.am      16 UNK        -0.5000 
     90 CA         -3.2780  -21.1468  -50.9487 C.3       16 UNK         0.1400 
     91 CB         -3.7808  -20.1288  -49.9182 C.3       16 UNK        -0.1800 
     92 C          -4.2677  -21.2295  -52.1271 C.2       16 UNK         0.5000 
     93 O          -4.1234  -20.4787  -53.0924 O.2       16 UNK        -0.5000 
     94 N          -5.2439  -22.1392  -52.0365 N.am      17 UNK        -0.5000 
     95 CA         -6.2096  -22.4246  -53.0932 C.3       17 UNK         0.1400 
     96 CB         -7.6129  -22.5277  -52.4763 C.3       17 UNK        -0.1800 
     97 C          -5.8495  -23.7241  -53.8296 C.2       17 UNK         0.5000 
     98 O          -5.9516  -23.7722  -55.0549 O.2       17 UNK        -0.5000 
     99 N          -5.4461  -24.7554  -53.0754 N.am      18 UNK        -0.5000 
    100 CA        -5.2349  -26.1105  -53.5841 C.3       18 UNK         0.1400 
    101 CB        -5.2699  -27.0992  -52.4079 C.3       18 UNK        -0.1800 
    102 C         -3.9470  -26.2940  -54.4085 C.2       18 UNK         0.5000 
    103 O         -3.9203  -27.1795  -55.2648 O.2       18 UNK        -0.5000 
    104 N         -2.9089  -25.4906  -54.1384 N.am      19 UNK        -0.5000 
    105 CA        -1.5981  -25.5985  -54.7819 C.3       19 UNK         0.1400 
    106 CB        -0.5551  -26.0704  -53.7541 C.3       19 UNK        -0.1800 
    107 C         -1.1766  -24.2736  -55.4325 C.2       19 UNK         0.5000 
    108 O         -0.8187  -24.2701  -56.6111 O.2       19 UNK        -0.5000 
    109 N         -1.2188  -23.1740  -54.6668 N.am      20 UNK        -0.5000 
    110 CA        -0.8011  -21.8448  -55.1243 C.3       20 UNK         0.1400 
    111 CB        -0.5366  -20.9445  -53.9091 C.3       20 UNK        -0.1800 
    112 C         -1.8209  -21.1919  -56.0766 C.2       20 UNK         0.5000 
    113 O         -1.4203  -20.4262  -56.9540 O.2       20 UNK        -0.5000 
    114 N         -3.1066  -21.5310  -55.8949 N.am      21 UNK        -0.5000 
    115 CA        -4.2649  -21.0916  -56.6794 C.3       21 UNK         0.1400 
    116 CB        -4.2200  -21.7064  -58.0937 C.3       21 UNK        -0.1800 
    117 C         -4.4547  -19.5597  -56.6853 C.2       21 UNK         0.5000 
    118 O         -4.7208  -18.9711  -57.7357 O.2       21 UNK        -0.5000 
    119 N         -4.3185  -18.9445  -55.5063 N.am      22 UNK        -0.5000 
    120 CA        -4.4579  -17.4956  -55.2908 C.3       22 UNK         0.1400 
    121 C         -5.2254  -17.1064  -53.9963 C.2       22 UNK         0.5000 
    122 N         -5.5186  -18.0242  -53.0843 N.am      22 UNK        -0.7600 
    123 O         -5.5860  -15.9452  -53.8254 O.2       22 UNK        -0.5000 
    124 C124       -3.1099  -16.7390  -55.4385 C.3       23 UNK        -0.0398 
    125 S125       -1.7473  -17.3872  -54.4055 S.3       23 UNK        -0.2404 
    126 C126       -1.9425  -16.3950  -52.8929 C.3       23 UNK        -0.0205 
    127 H127       -3.8340  -17.3058  -48.4317 H         1 UNK         0.0600 
    128 H128       -3.4163  -16.6427  -50.0159 H         1 UNK         0.0600 
    129 H129       -2.2023  -17.5048  -49.0590 H         1 UNK         0.0600 
    130 H130       -0.6726  -15.8954  -48.6088 H         1 UNK         0.3000 
    131 H131       -1.3193  -13.2039  -47.8032 H         1 UNK         0.0600 
    132 H132        1.1171  -13.1543  -47.0719 H         1 UNK         0.0800 
    133 H133        1.2795  -14.8147  -47.5901 H         1 UNK         0.0800 
    134 H134        2.7618  -14.9515  -49.5471 H         1 UNK         0.0800 
    135 H135        2.4498  -14.2488  -51.1133 H         1 UNK         0.0800 
    136 H136       -0.0998  -14.6013  -51.9788 H         1 UNK         0.1150 
    137 H137       -1.2737  -18.7036  -51.6172 H         1 UNK         0.1150 
    138 H138        2.0110  -17.2047  -49.3038 H         1 UNK         0.1150 
    139 H139        0.2241  -20.2425  -50.4976 H         1 UNK         0.0800 
    140 H140        1.6790  -19.6855  -49.7052 H         1 UNK         0.0800 
    141 H141       -0.4472  -21.9285  -48.8995 H         1 UNK         0.0800 
    142 H142        0.9799  -21.7344  -47.9256 H         1 UNK         0.0800 
    143 H143       -0.8404  -23.1261  -46.9030 H         1 UNK         0.0600 
    144 H144       -0.5097  -20.9744  -44.9580 H         1 UNK         0.3000 
    145 H145        1.2160  -23.3208  -42.9784 H         1 UNK         0.0600 
    146 H146        2.8498  -21.4738  -42.4349 H         1 UNK         0.0600 
    147 H147        3.2793  -22.3523  -43.8948 H         1 UNK         0.0600 
    148 H148        2.5413  -20.7646  -44.0214 H         1 UNK         0.0600 
    149 H149        0.5103  -20.6074  -42.4632 H         1 UNK         0.3000 
    150 H150       -2.9201  -20.8246  -42.3405 H         1 UNK         0.0600 
    151 H151       -2.6914  -22.1643  -40.2407 H         1 UNK         0.0600 
    152 H152       -2.9907  -20.4710  -39.8888 H         1 UNK         0.0600 
    153 H153       -1.3642  -21.1338  -39.7180 H         1 UNK         0.0600 
    154 H154       -1.3291  -18.9756  -40.9635 H         1 UNK         0.3000 
    155 H155       -1.3781  -16.6581  -43.2057 H         1 UNK         0.0600 
    156 H156       -0.0596  -15.8664  -41.2475 H         1 UNK         0.0600 
    157 H157        0.3152  -17.5230  -40.7918 H         1 UNK         0.0600 
    158 H158       -1.3465  -16.9331  -40.7488 H         1 UNK         0.0600 
    159 H159        0.4592  -16.4920  -44.3732 H         1 UNK         0.3000 
    160 H160        3.5578  -18.3327  -44.4393 H         1 UNK         0.0600 
    161 H161        1.3162  -17.3661  -46.3024 H         1 UNK         0.0600 
    162 H162        1.6023  -19.0506  -45.8835 H         1 UNK         0.0600 
    163 H163        2.8158  -18.1569  -46.7772 H         1 UNK         0.0600 
    164 H164        2.7818  -15.5954  -44.1495 H         1 UNK         0.3000 
    165 H165        5.7462  -14.3883  -45.8645 H         1 UNK         0.0600 
    166 H166        2.8165  -13.5748  -45.5363 H         1 UNK         0.0600 
    167 H167        4.1414  -12.5114  -45.9980 H         1 UNK         0.0600 
    168 H168        3.6569  -13.8202  -47.0650 H         1 UNK         0.0600 
    169 H169        4.1164  -13.8697  -43.4325 H         1 UNK         0.3000 
    170 H170        6.8162  -14.3532  -41.2528 H         1 UNK         0.0600 
    171 H171        7.5061  -12.0823  -42.0284 H         1 UNK         0.0600 
    172 H172        5.8222  -11.5780  -42.1047 H         1 UNK         0.0600 
    173 H173        6.5592  -11.9805  -40.5529 H         1 UNK         0.0600 
    174 H174        4.2328  -13.0847  -40.9972 H         1 UNK         0.3000 
    175 H175        2.2885  -15.9789  -40.8656 H         1 UNK         0.0600 
    176 H176        3.1178  -14.3477  -38.4065 H         1 UNK         0.0600 
    177 H177        1.6469  -15.3098  -38.5676 H         1 UNK         0.0600 
    178 H178        3.2151  -16.0991  -38.5492 H         1 UNK         0.0600 
    179 H179        1.6527  -13.3152  -40.1286 H         1 UNK         0.3000 
    180 H180        0.5180  -11.9588  -41.4501 H         1 UNK         0.0600 
    181 H181        2.1952  -11.5862  -43.9961 H         1 UNK         0.0600 
    182 H182        2.6408  -11.0247  -42.3897 H         1 UNK         0.0600 
    183 H183        1.2385  -10.3405  -43.1959 H         1 UNK         0.0600 
    184 H184       -0.1126  -12.3700  -44.2552 H         1 UNK         0.3000 
    185 H185       -2.6958  -14.6298  -43.8698 H         1 UNK         0.0600 
    186 H186       -4.0116  -12.7764  -42.8403 H         1 UNK         0.0600 
    187 H187       -3.3295  -11.6341  -43.9916 H         1 UNK         0.0600 
    188 H188       -4.3770  -12.9400  -44.5494 H         1 UNK         0.0600 
    189 H189       -2.2980  -12.7381  -45.9405 H         1 UNK         0.3000 
    190 H190       -2.1195  -20.1652  -45.4261 H         1 UNK         0.3000 
    191 H191       -4.4393  -19.9503  -46.9708 H         1 UNK         0.0600 
    192 H192       -5.2563  -18.5356  -45.1146 H         1 UNK         0.0600 
    193 H193       -3.5628  -18.1962  -45.4321 H         1 UNK         0.0600 
    194 H194       -4.0233  -19.1782  -44.0392 H         1 UNK         0.0600 
    195 H195       -3.7233  -22.4218  -44.7081 H         1 UNK         0.3000 
    196 H196       -6.3645  -23.1510  -43.8698 H         1 UNK         0.0600 
    197 H197       -5.2221  -25.2699  -43.1827 H         1 UNK         0.0600 
    198 H198       -4.3363  -23.8539  -42.6391 H         1 UNK         0.0600 
    199 H199       -3.7654  -24.7684  -44.0338 H         1 UNK         0.0600 
    200 H200       -4.5286  -23.8071  -46.8554 H         1 UNK         0.3000 
    201 H201       -6.7861  -24.8364  -48.2091 H         1 UNK         0.0600 
    202 H202       -6.5181  -26.9613  -46.9949 H         1 UNK         0.0600 
    203 H203       -4.7885  -26.9956  -47.3234 H         1 UNK         0.0600 
    204 H204       -5.9473  -27.2093  -48.6298 H         1 UNK         0.0600 
    205 H205       -3.2169  -25.1903  -48.1036 H         1 UNK         0.3000 
    206 H206       -2.7849  -25.6408  -50.7915 H         1 UNK         0.0600 
    207 H207       -1.1161  -26.0955  -49.0451 H         1 UNK         0.0600 
    208 H208       -0.4107  -25.0914  -50.3004 H         1 UNK         0.0600 
    209 H209       -0.8834  -24.3715  -48.7703 H         1 UNK         0.0600 
    210 H210       -3.2743  -22.4913  -49.3024 H         1 UNK         0.3000 
    211 H211       -2.3219  -20.7952  -51.3341 H         1 UNK         0.0600 
    212 H212       -4.6946  -20.4693  -49.4299 H         1 UNK         0.0600 
    213 H213       -3.9969  -19.1704  -50.3917 H         1 UNK         0.0600 
    214 H214       -3.0340  -19.9471  -49.1471 H         1 UNK         0.0600 
    215 H215       -5.2739  -22.7433  -51.2219 H         1 UNK         0.3000 
    216 H216       -6.2274  -21.6167  -53.8277 H         1 UNK         0.0600 
    217 H217       -7.6682  -23.3159  -51.7242 H         1 UNK         0.0600 
    218 H218       -8.3606  -22.7468  -53.2396 H         1 UNK         0.0600 
    219 H219       -7.9001  -21.5906  -51.9991 H         1 UNK         0.0600 
    220 H220       -5.4135  -24.6421  -52.0654 H         1 UNK         0.3000 
    221 H221       -6.0726  -26.3537  -54.2416 H         1 UNK         0.0600 
    222 H222       -4.4570  -26.9230  -51.7051 H         1 UNK         0.0600 
    223 H223       -6.2084  -27.0254  -51.8580 H         1 UNK         0.0600 
    224 H224       -5.1803  -28.1278  -52.7597 H         1 UNK         0.0600 
    225 H225       -3.0026  -24.7749  -53.4267 H         1 UNK         0.3000 
    226 H226       -1.6238  -26.3414  -55.5818 H         1 UNK         0.0600 
    227 H227       -0.8219  -27.0448  -53.3447 H         1 UNK         0.0600 
    228 H228        0.4284  -26.1697  -54.2150 H         1 UNK         0.0600 
    229 H229       -0.4566  -25.3752  -52.9205 H         1 UNK         0.0600 
    230 H230       -1.5152  -23.2568  -53.6962 H         1 UNK         0.3000 
    231 H231        0.1398  -21.9540  -55.6680 H         1 UNK         0.0600 
    232 H232       -1.4622  -20.6784  -53.4040 H         1 UNK         0.0600 
    233 H233        0.1206  -21.4265  -53.1853 H         1 UNK         0.0600 
    234 H234       -0.0586  -20.0133  -54.2152 H         1 UNK         0.0600 
    235 H235       -3.3123  -22.1509  -55.1258 H         1 UNK         0.3000 
    236 H236       -5.1450  -21.4941  -56.1785 H         1 UNK         0.0600 
    237 H237       -4.1240  -22.7913  -58.0465 H         1 UNK         0.0600 
    238 H238       -5.1346  -21.4866  -58.6455 H         1 UNK         0.0600 
    239 H239       -3.3837  -21.3205  -58.6772 H         1 UNK         0.0600 
    240 H240       -4.0869  -19.4984  -54.6863 H         1 UNK         0.3000 
    241 H241       -5.1104  -17.1126  -56.0777 H         1 UNK         0.0600 
    242 H242       -5.1671  -18.9723  -53.1650 H         1 UNK         0.3800 
    243 H243       -6.0376  -17.7503  -52.2662 H         1 UNK         0.3800 
    244 H244       -2.7816  -16.8135  -56.4759 H         1 UNK         0.0800 
    245 H245       -3.2364  -15.6706  -55.2556 H         1 UNK         0.0800 
    246 H246       -2.8845  -16.6512  -52.4089 H         1 UNK         0.0800 
    247 H247       -2.0057  -15.3390  -53.1597 H         1 UNK         0.0800 
@<TRIPOS>BOND
     1    1    2 1    
     2    1  127 1    
     3    1  128 1    
     4    1  129 1    
     5    2    3 2    
     6    2    4 am   BACKBONE|DICT|INTERRES
     7    4    5 1    
     8    4  130 1    
     9    5    6 1    
    10    5   65 1    
    11    5  131 1    
    12    6    7 1    
    13    6  132 1    
    14    6  133 1    
    15    7    8 1    
    16    8    9 1    
    17    8  134 1    
    18    8  135 1    
    19    9   10 ar   
    20    9   14 ar   
    21   10   11 ar   
    22   10  136 1    
    23   11   12 ar   
    24   11  126 1    
    25   12   13 ar   
    26   12  137 1    
    27   13   14 ar   
    28   13   15 1    
    29   14  138 1    
    30   15   16 1    
    31   15  139 1    
    32   15  140 1    
    33   16   17 1    
    34   17   18 1    
    35   17  141 1    
    36   17  142 1    
    37   18   19 1    
    38   18   67 1    
    39   18  143 1    
    40   19   20 am   BACKBONE|DICT|INTERRES
    41   19  144 1    
    42   20   21 2    
    43   20   22 1    
    44   22   23 1    
    45   22   24 1    
    46   22  145 1    
    47   23  146 1    
    48   23  147 1    
    49   23  148 1    
    50   24   25 am   BACKBONE|DICT|INTERRES
    51   24  149 1    
    52   25   26 2    
    53   25   27 1    
    54   27   28 1    
    55   27   29 1    
    56   27  150 1    
    57   28  151 1    
    58   28  152 1    
    59   28  153 1    
    60   29   30 am   BACKBONE|DICT|INTERRES
    61   29  154 1    
    62   30   31 2    
    63   30   32 1    
    64   32   33 1    
    65   32   34 1    
    66   32  155 1    
    67   33  156 1    
    68   33  157 1    
    69   33  158 1    
    70   34   35 am   BACKBONE|DICT|INTERRES
    71   34  159 1    
    72   35   36 2    
    73   35   37 1    
    74   37   38 1    
    75   37   39 1    
    76   37  160 1    
    77   38  161 1    
    78   38  162 1    
    79   38  163 1    
    80   39   40 am   BACKBONE|DICT|INTERRES
    81   39  164 1    
    82   40   41 2    
    83   40   42 1    
    84   42   43 1    
    85   42   44 1    
    86   42  165 1    
    87   43  166 1    
    88   43  167 1    
    89   43  168 1    
    90   44   45 am   BACKBONE|DICT|INTERRES
    91   44  169 1    
    92   45   46 2    
    93   45   47 1    
    94   47   48 1    
    95   47   49 1    
    96   47  170 1    
    97   48  171 1    
    98   48  172 1    
    99   48  173 1    
   100   49   50 am   BACKBONE|DICT|INTERRES
   101   49  174 1    
   102   50   51 2    
   103   50   52 1    
   104   52   53 1    
   105   52   54 1    
   106   52  175 1    
   107   53  176 1    
   108   53  177 1    
   109   53  178 1    
   110   54   55 am   BACKBONE|DICT|INTERRES
   111   54  179 1    
   112   55   56 2    
   113   55   57 1    
   114   57   58 1    
   115   57   59 1    
   116   57  180 1    
   117   58  181 1    
   118   58  182 1    
   119   58  183 1    
   120   59   60 am   BACKBONE|DICT|INTERRES
   121   59  184 1    
   122   60   61 2    
   123   60   62 1    
   124   62   63 1    
   125   62   64 1    
   126   62  185 1    
   127   63  186 1    
   128   63  187 1    
   129   63  188 1    
   130   64   65 am   BACKBONE|DICT|INTERRES
   131   64  189 1    
   132   65   66 2    
   133   67   68 2    
   134   67   69 am   BACKBONE|DICT|INTERRES
   135   69   70 1    
   136   69  190 1    
   137   70   71 1    
   138   70   72 1    
   139   70  191 1    
   140   71  192 1    
   141   71  193 1    
   142   71  194 1    
   143   72   73 2    
   144   72   74 am   BACKBONE|DICT|INTERRES
   145   74   75 1    
   146   74  195 1    
   147   75   76 1    
   148   75   77 1    
   149   75  196 1    
   150   76  197 1    
   151   76  198 1    
   152   76  199 1    
   153   77   78 2    
   154   77   79 am   BACKBONE|DICT|INTERRES
   155   79   80 1    
   156   79  200 1    
   157   80   81 1    
   158   80   82 1    
   159   80  201 1    
   160   81  202 1    
   161   81  203 1    
   162   81  204 1    
   163   82   83 2    
   164   82   84 am   BACKBONE|DICT|INTERRES
   165   84   85 1    
   166   84  205 1    
   167   85   86 1    
   168   85   87 1    
   169   85  206 1    
   170   86  207 1    
   171   86  208 1    
   172   86  209 1    
   173   87   88 2    
   174   87   89 am   BACKBONE|DICT|INTERRES
   175   89   90 1    
   176   89  210 1    
   177   90   91 1    
   178   90   92 1    
   179   90  211 1    
   180   91  212 1    
   181   91  213 1    
   182   91  214 1    
   183   92   93 2    
   184   92   94 am   BACKBONE|DICT|INTERRES
   185   94   95 1    
   186   94  215 1    
   187   95   96 1    
   188   95   97 1    
   189   95  216 1    
   190   96  217 1    
   191   96  218 1    
   192   96  219 1    
   193   97   98 2    
   194   97   99 am   BACKBONE|DICT|INTERRES
   195   99  100 1    
   196   99  220 1    
   197  100  101 1    
   198  100  102 1    
   199  100  221 1    
   200  101  222 1    
   201  101  223 1    
   202  101  224 1    
   203  102  103 2    
   204  102  104 am   BACKBONE|DICT|INTERRES
   205  104  105 1    
   206  104  225 1    
   207  105  106 1    
   208  105  107 1    
   209  105  226 1    
   210  106  227 1    
   211  106  228 1    
   212  106  229 1    
   213  107  108 2    
   214  107  109 am   BACKBONE|DICT|INTERRES
   215  109  110 1    
   216  109  230 1    
   217  110  111 1    
   218  110  112 1    
   219  110  231 1    
   220  111  232 1    
   221  111  233 1    
   222  111  234 1    
   223  112  113 2    
   224  112  114 am   BACKBONE|DICT|INTERRES
   225  114  115 1    
   226  114  235 1    
   227  115  116 1    
   228  115  117 1    
   229  115  236 1    
   230  116  237 1    
   231  116  238 1    
   232  116  239 1    
   233  117  118 2    
   234  117  119 am   BACKBONE|DICT|INTERRES
   235  119  120 1    
   236  119  240 1    
   237  120  121 1    
   238  120  124 1    
   239  120  241 1    
   240  121  122 am   BACKBONE|DICT|INTERRES
   241  121  123 2    
   242  122  242 1    
   243  122  243 1    
   244  124  125 1    
   245  124  244 1    
   246  124  245 1    
   247  125  126 1    
   248  126  246 1    
   249  126  247 1    
@<TRIPOS>SUBSTRUCTURE
     1 UNK         1 GROUP             0       ****    0 ROOT    
