@<TRIPOS>MOLECULE
3R540
247   249    1
SMALL
USER_CHARGES


@<TRIPOS>ATOM
      1 CA         -1.5926  -11.9608  -44.7692 C.3       0 UNK        -0.1800 
      2 C          -0.5363  -11.5239  -45.7736 C.2       0 UNK         0.5000 
      3 O           0.4338  -10.8658  -45.3967 O.2       0 UNK        -0.5000 
      4 N          -0.7013  -11.9098  -47.0469 N.am      1 UNK        -0.5000 
      5 CA          0.2038  -11.5940  -48.1649 C.3       1 UNK         0.1400 
      6 C6         -0.4150  -11.9770  -49.5333 C.3       23 UNK        -0.0398 
      7 S7         -0.8110  -13.7547  -49.6999 S.3       23 UNK        -0.2404 
      8 C8          0.4942  -14.2892  -50.8498 C.3       23 UNK        -0.0205 
      9 C9          0.5041  -15.8012  -50.9964 C.ar      23 UNK        -0.0193 
     10 C10        -0.3717  -16.4288  -51.8865 C.ar      23 UNK        -0.1150 
     11 C11        -0.3946  -17.8215  -52.0137 C.ar      23 UNK        -0.0193 
     12 C12         0.4828  -18.5836  -51.2289 C.ar      23 UNK        -0.1150 
     13 C13         1.3741  -17.9677  -50.3447 C.ar      23 UNK        -0.0193 
     14 C14         1.3828  -16.5751  -50.2355 C.ar      23 UNK        -0.1150 
     15 C15         2.3196  -18.8133  -49.5012 C.3       23 UNK        -0.0205 
     16 S16         2.0294  -18.6313  -47.7110 S.3       23 UNK        -0.2404 
     17 C17         0.2871  -19.1438  -47.5480 C.3       23 UNK        -0.0398 
     18 CA          0.1305  -20.6365  -47.1823 C.3       11 UNK         0.1400 
     19 N           0.6461  -20.9575  -45.8449 N.am      11 UNK        -0.5000 
     20 C           0.7129  -22.1896  -45.3168 C.2       10 UNK         0.5000 
     21 O           0.3727  -23.2086  -45.9184 O.2       10 UNK        -0.5000 
     22 CA          1.1885  -22.2983  -43.8569 C.3       10 UNK         0.1400 
     23 CB          2.7205  -22.2336  -43.7579 C.3       10 UNK        -0.1800 
     24 N           0.5853  -21.2596  -43.0213 N.am      10 UNK        -0.5000 
     25 C          -0.6837  -21.2921  -42.5895 C.2       9 UNK         0.5000 
     26 O          -1.4361  -22.2503  -42.7658 O.2       9 UNK        -0.5000 
     27 CA         -1.2184  -20.0445  -41.8582 C.3       9 UNK         0.1400 
     28 CB         -1.0047  -20.1747  -40.3429 C.3       9 UNK        -0.1800 
     29 N          -0.6231  -18.7921  -42.3273 N.am      9 UNK        -0.5000 
     30 C          -0.7696  -18.2920  -43.5623 C.2       8 UNK         0.5000 
     31 O          -1.4712  -18.8116  -44.4293 O.2       8 UNK        -0.5000 
     32 CA          0.0596  -17.0408  -43.9095 C.3       8 UNK         0.1400 
     33 CB         -0.6552  -15.7589  -43.4587 C.3       8 UNK        -0.1800 
     34 N           1.4098  -17.0779  -43.3444 N.am      8 UNK        -0.5000 
     35 C           2.3276  -18.0129  -43.6302 C.2       7 UNK         0.5000 
     36 O           2.1287  -18.9432  -44.4077 O.2       7 UNK        -0.5000 
     37 CA          3.6603  -17.9416  -42.8684 C.3       7 UNK         0.1400 
     38 CB          4.5893  -16.8682  -43.4523 C.3       7 UNK        -0.1800 
     39 N           3.4416  -17.6894  -41.4467 N.am      7 UNK        -0.5000 
     40 C           2.9521  -18.5974  -40.5908 C.2       6 UNK         0.5000 
     41 O           2.6941  -19.7610  -40.8993 O.2       6 UNK        -0.5000 
     42 CA          2.6747  -18.1099  -39.1572 C.3       6 UNK         0.1400 
     43 CB          3.9349  -18.2380  -38.2886 C.3       6 UNK        -0.1800 
     44 N           2.1966  -16.7263  -39.1157 N.am      6 UNK        -0.5000 
     45 C           1.0116  -16.3222  -39.5942 C.2       5 UNK         0.5000 
     46 O           0.1866  -17.0777  -40.1061 O.2       5 UNK        -0.5000 
     47 CA          0.7236  -14.8121  -39.5320 C.3       5 UNK         0.1400 
     48 CB          0.1821  -14.4199  -38.1493 C.3       5 UNK        -0.1800 
     49 N           1.8947  -13.9900  -39.8505 N.am      5 UNK        -0.5000 
     50 C           2.4956  -13.9654  -41.0464 C.2       4 UNK         0.5000 
     51 O           2.1593  -14.6726  -41.9995 O.2       4 UNK        -0.5000 
     52 CA          3.6815  -13.0105  -41.2065 C.3       4 UNK         0.1400 
     53 CB          5.0151  -13.7381  -40.9633 C.3       4 UNK        -0.1800 
     54 N           3.6315  -12.4689  -42.5585 N.am      4 UNK        -0.5000 
     55 C           4.1883  -11.3237  -42.9643 C.2       3 UNK         0.5000 
     56 O           4.8937  -10.6221  -42.2369 O.2       3 UNK        -0.5000 
     57 CA          3.8677  -10.8501  -44.3982 C.3       3 UNK         0.1400 
     58 CB          5.0696  -10.1648  -45.0822 C.3       3 UNK        -0.1800 
     59 N           3.2705  -11.8738  -45.2656 N.am      3 UNK        -0.5000 
     60 C           3.8593  -12.9612  -45.7914 C.2       2 UNK         0.5000 
     61 O           5.0186  -13.2959  -45.5485 O.2       2 UNK        -0.5000 
     62 CA          3.0159  -13.8327  -46.7501 C.3       2 UNK         0.1400 
     63 CB          2.6870  -15.1852  -46.1052 C.3       2 UNK        -0.1800 
     64 N           1.7572  -13.2092  -47.1542 N.am      2 UNK        -0.5000 
     65 C           1.6269  -12.1781  -47.9999 C.2       1 UNK         0.5000 
     66 O           2.5681  -11.6755  -48.6145 O.2       1 UNK        -0.5000 
     67 C          -1.3388  -21.0620  -47.3685 C.2       11 UNK         0.5000 
     68 O          -1.6928  -21.5244  -48.4523 O.2       11 UNK        -0.5000 
     69 N          -2.1541  -20.9472  -46.3096 N.am      12 UNK        -0.5000 
     70 CA         -3.5724  -21.3240  -46.2509 C.3       12 UNK         0.1400 
     71 CB         -4.1379  -20.9206  -44.8803 C.3       12 UNK        -0.1800 
     72 C          -3.8839  -22.8064  -46.5563 C.2       12 UNK         0.5000 
     73 O          -5.0535  -23.1481  -46.7274 O.2       12 UNK        -0.5000 
     74 N          -2.8535  -23.6591  -46.6500 N.am      13 UNK        -0.5000 
     75 CA         -2.9494  -25.0161  -47.1880 C.3       13 UNK         0.1400 
     76 CB         -1.6529  -25.7732  -46.8645 C.3       13 UNK        -0.1800 
     77 C          -3.2271  -25.0481  -48.7076 C.2       13 UNK         0.5000 
     78 O          -3.7330  -26.0590  -49.1958 O.2       13 UNK        -0.5000 
     79 N          -2.9003  -23.9605  -49.4220 N.am      14 UNK        -0.5000 
     80 CA         -3.1426  -23.7909  -50.8548 C.3       14 UNK         0.1400 
     81 CB         -1.8018  -23.7986  -51.6037 C.3       14 UNK        -0.1800 
     82 C          -3.9268  -22.5039  -51.1607 C.2       14 UNK         0.5000 
     83 O          -4.8118  -22.5276  -52.0188 O.2       14 UNK        -0.5000 
     84 N          -3.6091  -21.4118  -50.4523 N.am      15 UNK        -0.5000 
     85 CA         -4.2557  -20.1064  -50.5813 C.3       15 UNK         0.1400 
     86 CB         -3.4441  -19.0632  -49.7954 C.3       15 UNK        -0.1800 
     87 C          -5.7236  -20.1286  -50.1160 C.2       15 UNK         0.5000 
     88 O          -6.1313  -21.0353  -49.3876 O.2       15 UNK        -0.5000 
     89 N          -6.4924  -19.1257  -50.5641 N.am      16 UNK        -0.5000 
     90 CA         -7.9407  -18.9767  -50.3575 C.3       16 UNK         0.1400 
     91 CB         -8.2733  -18.7588  -48.8658 C.3       16 UNK        -0.1800 
     92 C          -8.7539  -20.1224  -51.0024 C.2       16 UNK         0.5000 
     93 O          -9.7913  -20.5240  -50.4728 O.2       16 UNK        -0.5000 
     94 N          -8.2514  -20.6188  -52.1440 N.am      17 UNK        -0.5000 
     95 CA         -8.7945  -21.7033  -52.9687 C.3       17 UNK         0.1400 
     96 CB        -10.1640  -21.3119  -53.5638 C.3       17 UNK        -0.1800 
     97 C          -8.8138  -23.0791  -52.2675 C.2       17 UNK         0.5000 
     98 O          -9.6358  -23.9294  -52.6153 O.2       17 UNK        -0.5000 
     99 N          -7.8957  -23.2959  -51.3132 N.am      18 UNK        -0.5000 
    100 CA        -7.6753  -24.5941  -50.6687 C.3       18 UNK         0.1400 
    101 CB        -6.8576  -24.3965  -49.3857 C.3       18 UNK        -0.1800 
    102 C         -7.0051  -25.6134  -51.6143 C.2       18 UNK         0.5000 
    103 O         -7.2364  -26.8151  -51.4747 O.2       18 UNK        -0.5000 
    104 N         -6.2342  -25.1105  -52.5846 N.am      19 UNK        -0.5000 
    105 CA        -5.7359  -25.8301  -53.7512 C.3       19 UNK         0.1400 
    106 CB        -4.2182  -26.0350  -53.6159 C.3       19 UNK        -0.1800 
    107 C         -6.0688  -25.0072  -55.0072 C.2       19 UNK         0.5000 
    108 O         -6.5021  -23.8562  -54.8985 O.2       19 UNK        -0.5000 
    109 N         -5.8522  -25.6081  -56.1843 N.am      20 UNK        -0.5000 
    110 CA        -6.0863  -24.9825  -57.4901 C.3       20 UNK         0.1400 
    111 CB        -5.9767  -26.0532  -58.5868 C.3       20 UNK        -0.1800 
    112 C         -5.1382  -23.8036  -57.7909 C.2       20 UNK         0.5000 
    113 O         -5.5289  -22.8801  -58.5062 O.2       20 UNK        -0.5000 
    114 N         -3.9232  -23.8499  -57.2338 N.am      21 UNK        -0.5000 
    115 CA        -2.9014  -22.8137  -57.3166 C.3       21 UNK         0.1400 
    116 CB        -2.2040  -22.8599  -58.6892 C.3       21 UNK        -0.1800 
    117 C         -1.8911  -23.0337  -56.1829 C.2       21 UNK         0.5000 
    118 O         -1.7431  -24.1630  -55.7064 O.2       21 UNK        -0.5000 
    119 N         -1.2072  -21.9568  -55.7873 N.am      22 UNK        -0.5000 
    120 CA        -0.0991  -21.9822  -54.8220 C.3       22 UNK         0.1400 
    121 C          1.2398  -22.3703  -55.5054 C.2       22 UNK         0.5000 
    122 N          2.1114  -23.0904  -54.8127 N.am      22 UNK        -0.7600 
    123 O          1.5134  -21.9934  -56.6432 O.2       22 UNK        -0.5000 
    124 C124        0.0383  -20.6328  -54.0745 C.3       23 UNK        -0.0398 
    125 S125       -1.4466  -20.2583  -53.0817 S.3       23 UNK        -0.2404 
    126 C126       -1.3977  -18.4341  -52.9963 C.3       23 UNK        -0.0205 
    127 H127       -2.1060  -11.0892  -44.3635 H         1 UNK         0.0600 
    128 H128       -1.1258  -12.4974  -43.9431 H         1 UNK         0.0600 
    129 H129       -2.3369  -12.6160  -45.2224 H         1 UNK         0.0600 
    130 H130       -1.5086  -12.4651  -47.2944 H         1 UNK         0.3000 
    131 H131        0.3267  -10.5088  -48.1634 H         1 UNK         0.0600 
    132 H132       -1.3411  -11.4189  -49.6768 H         1 UNK         0.0800 
    133 H133        0.2373  -11.6623  -50.3500 H         1 UNK         0.0800 
    134 H134        1.4652  -13.9428  -50.4922 H         1 UNK         0.0800 
    135 H135        0.3370  -13.8212  -51.8228 H         1 UNK         0.0800 
    136 H136       -1.0512  -15.8269  -52.4739 H         1 UNK         0.1150 
    137 H137        0.4774  -19.6610  -51.2880 H         1 UNK         0.1150 
    138 H138        2.0615  -16.0971  -49.5427 H         1 UNK         0.1150 
    139 H139        2.2388  -19.8690  -49.7645 H         1 UNK         0.0800 
    140 H140        3.3469  -18.5208  -49.7219 H         1 UNK         0.0800 
    141 H141       -0.2413  -18.9132  -48.4735 H         1 UNK         0.0800 
    142 H142       -0.1790  -18.5176  -46.7878 H         1 UNK         0.0800 
    143 H143        0.7143  -21.2206  -47.8968 H         1 UNK         0.0600 
    144 H144        1.0138  -20.1779  -45.3046 H         1 UNK         0.3000 
    145 H145        0.8759  -23.2730  -43.4759 H         1 UNK         0.0600 
    146 H146        3.0516  -22.3097  -42.7220 H         1 UNK         0.0600 
    147 H147        3.1777  -23.0569  -44.3079 H         1 UNK         0.0600 
    148 H148        3.1214  -21.3078  -44.1686 H         1 UNK         0.0600 
    149 H149        1.1433  -20.4347  -42.8444 H         1 UNK         0.3000 
    150 H150       -2.2928  -19.9912  -42.0463 H         1 UNK         0.0600 
    151 H151       -1.4530  -21.0930  -39.9615 H         1 UNK         0.0600 
    152 H152       -1.4629  -19.3431  -39.8074 H         1 UNK         0.0600 
    153 H153        0.0550  -20.1946  -40.0871 H         1 UNK         0.0600 
    154 H154       -0.0810  -18.2647  -41.6493 H         1 UNK         0.3000 
    155 H155        0.1631  -17.0020  -44.9951 H         1 UNK         0.0600 
    156 H156       -0.7761  -15.7260  -42.3760 H         1 UNK         0.0600 
    157 H157       -1.6484  -15.6882  -43.9036 H         1 UNK         0.0600 
    158 H158       -0.0989  -14.8713  -43.7603 H         1 UNK         0.0600 
    159 H159        1.6591  -16.3184  -42.7159 H         1 UNK         0.3000 
    160 H160        4.1591  -18.9078  -42.9729 H         1 UNK         0.0600 
    161 H161        4.1285  -15.8801  -43.4464 H         1 UNK         0.0600 
    162 H162        4.8490  -17.1059  -44.4841 H         1 UNK         0.0600 
    163 H163        5.5229  -16.8073  -42.8931 H         1 UNK         0.0600 
    164 H164        3.5851  -16.7454  -41.1222 H         1 UNK         0.3000 
    165 H165        1.8992  -18.7511  -38.7325 H         1 UNK         0.0600 
    166 H166        3.7296  -17.9651  -37.2533 H         1 UNK         0.0600 
    167 H167        4.3036  -19.2647  -38.2858 H         1 UNK         0.0600 
    168 H168        4.7420  -17.6001  -38.6511 H         1 UNK         0.0600 
    169 H169        2.8153  -16.0385  -38.7122 H         1 UNK         0.3000 
    170 H170       -0.0491  -14.5937  -40.2720 H         1 UNK         0.0600 
    171 H171       -0.7014  -15.0073  -37.8955 H         1 UNK         0.0600 
    172 H172        0.9214  -14.5827  -37.3640 H         1 UNK         0.0600 
    173 H173       -0.1098  -13.3699  -38.1236 H         1 UNK         0.0600 
    174 H174        2.2333  -13.3849  -39.1161 H         1 UNK         0.3000 
    175 H175        3.5741  -12.1947  -40.4884 H         1 UNK         0.0600 
    176 H176        5.1796  -14.5318  -41.6917 H         1 UNK         0.0600 
    177 H177        5.8577  -13.0497  -41.0280 H         1 UNK         0.0600 
    178 H178        5.0416  -14.1890  -39.9707 H         1 UNK         0.0600 
    179 H179        3.0450  -12.9900  -43.1973 H         1 UNK         0.3000 
    180 H180        3.0933  -10.0906  -44.2821 H         1 UNK         0.0600 
    181 H181        5.9296  -10.8306  -45.1565 H         1 UNK         0.0600 
    182 H182        5.3890   -9.2850  -44.5226 H         1 UNK         0.0600 
    183 H183        4.8137   -9.8314  -46.0880 H         1 UNK         0.0600 
    184 H184        2.2995  -11.6995  -45.5044 H         1 UNK         0.3000 
    185 H185        3.6112  -14.0133  -47.6474 H         1 UNK         0.0600 
    186 H186        3.5942  -15.7667  -45.9480 H         1 UNK         0.0600 
    187 H187        2.1976  -15.0593  -45.1392 H         1 UNK         0.0600 
    188 H188        2.0308  -15.7805  -46.7398 H         1 UNK         0.0600 
    189 H189        0.9200  -13.5569  -46.7107 H         1 UNK         0.3000 
    190 H190       -1.7859  -20.4890  -45.4817 H         1 UNK         0.3000 
    191 H191       -4.0936  -20.7407  -47.0114 H         1 UNK         0.0600 
    192 H192       -3.6474  -21.4600  -44.0705 H         1 UNK         0.0600 
    193 H193       -5.2056  -21.1346  -44.8170 H         1 UNK         0.0600 
    194 H194       -4.0129  -19.8531  -44.6987 H         1 UNK         0.0600 
    195 H195       -1.9202  -23.3124  -46.4683 H         1 UNK         0.3000 
    196 H196       -3.7769  -25.5247  -46.6890 H         1 UNK         0.0600 
    197 H197       -1.7106  -26.8089  -47.2016 H         1 UNK         0.0600 
    198 H198       -1.4616  -25.7900  -45.7913 H         1 UNK         0.0600 
    199 H199       -0.7902  -25.3169  -47.3516 H         1 UNK         0.0600 
    200 H200       -2.4859  -23.1683  -48.9399 H         1 UNK         0.3000 
    201 H201       -3.7465  -24.6182  -51.2269 H         1 UNK         0.0600 
    202 H202       -1.2805  -24.7461  -51.4684 H         1 UNK         0.0600 
    203 H203       -1.1438  -22.9991  -51.2603 H         1 UNK         0.0600 
    204 H204       -1.9571  -23.6615  -52.6740 H         1 UNK         0.0600 
    205 H205       -2.8703  -21.4695  -49.7561 H         1 UNK         0.3000 
    206 H206       -4.2375  -19.8348  -51.6386 H         1 UNK         0.0600 
    207 H207       -3.8228  -18.0559  -49.9708 H         1 UNK         0.0600 
    208 H208       -3.4837  -19.2439  -48.7218 H         1 UNK         0.0600 
    209 H209       -2.3962  -19.0700  -50.0958 H         1 UNK         0.0600 
    210 H210       -6.0658  -18.4171  -51.1450 H         1 UNK         0.3000 
    211 H211       -8.2310  -18.0697  -50.8896 H         1 UNK         0.0600 
    212 H212       -8.0931  -19.6553  -48.2720 H         1 UNK         0.0600 
    213 H213       -9.3220  -18.4893  -48.7359 H         1 UNK         0.0600 
    214 H214       -7.6770  -17.9505  -48.4427 H         1 UNK         0.0600 
    215 H215       -7.3832  -20.2236  -52.4758 H         1 UNK         0.3000 
    216 H216       -8.1011  -21.8134  -53.8036 H         1 UNK         0.0600 
    217 H217      -10.4899  -22.0401  -54.3074 H         1 UNK         0.0600 
    218 H218      -10.1158  -20.3436  -54.0619 H         1 UNK         0.0600 
    219 H219      -10.9389  -21.2587  -52.7989 H         1 UNK         0.0600 
    220 H220       -7.2539  -22.5525  -51.0701 H         1 UNK         0.3000 
    221 H221       -8.6462  -25.0044  -50.3834 H         1 UNK         0.0600 
    222 H222       -5.8968  -23.9274  -49.5884 H         1 UNK         0.0600 
    223 H223       -7.3873  -23.7634  -48.6736 H         1 UNK         0.0600 
    224 H224       -6.6605  -25.3490  -48.8924 H         1 UNK         0.0600 
    225 H225       -6.1176  -24.1031  -52.6344 H         1 UNK         0.3000 
    226 H226       -6.2291  -26.8001  -53.8404 H         1 UNK         0.0600 
    227 H227       -3.9698  -26.5504  -52.6879 H         1 UNK         0.0600 
    228 H228       -3.8265  -26.6398  -54.4342 H         1 UNK         0.0600 
    229 H229       -3.6841  -25.0846  -53.6307 H         1 UNK         0.0600 
    230 H230       -5.4981  -26.5539  -56.1964 H         1 UNK         0.3000 
    231 H231       -7.1061  -24.5918  -57.4975 H         1 UNK         0.0600 
    232 H232       -6.7017  -26.8526  -58.4326 H         1 UNK         0.0600 
    233 H233       -4.9823  -26.5005  -58.6149 H         1 UNK         0.0600 
    234 H234       -6.1717  -25.6252  -59.5711 H         1 UNK         0.0600 
    235 H235       -3.6760  -24.6262  -56.6331 H         1 UNK         0.3000 
    236 H236       -3.3730  -21.8387  -57.1757 H         1 UNK         0.0600 
    237 H237       -1.4148  -22.1098  -58.7537 H         1 UNK         0.0600 
    238 H238       -1.7473  -23.8332  -58.8724 H         1 UNK         0.0600 
    239 H239       -2.9044  -22.6609  -59.5003 H         1 UNK         0.0600 
    240 H240       -1.3669  -21.0739  -56.2491 H         1 UNK         0.3000 
    241 H241       -0.3134  -22.7486  -54.0755 H         1 UNK         0.0600 
    242 H242        2.9905  -23.3374  -55.2407 H         1 UNK         0.3800 
    243 H243        1.9133  -23.4087  -53.8766 H         1 UNK         0.3800 
    244 H244        0.2216  -19.8218  -54.7812 H         1 UNK         0.0800 
    245 H245        0.8971  -20.6543  -53.4019 H         1 UNK         0.0800 
    246 H246       -2.3952  -18.0952  -52.7138 H         1 UNK         0.0800 
    247 H247       -1.2133  -18.0348  -53.9945 H         1 UNK         0.0800 
@<TRIPOS>BOND
     1    1    2 1    
     2    1  127 1    
     3    1  128 1    
     4    1  129 1    
     5    2    3 2    
     6    2    4 am   BACKBONE|DICT|INTERRES
     7    4    5 1    
     8    4  130 1    
     9    5    6 1    
    10    5   65 1    
    11    5  131 1    
    12    6    7 1    
    13    6  132 1    
    14    6  133 1    
    15    7    8 1    
    16    8    9 1    
    17    8  134 1    
    18    8  135 1    
    19    9   10 ar   
    20    9   14 ar   
    21   10   11 ar   
    22   10  136 1    
    23   11   12 ar   
    24   11  126 1    
    25   12   13 ar   
    26   12  137 1    
    27   13   14 ar   
    28   13   15 1    
    29   14  138 1    
    30   15   16 1    
    31   15  139 1    
    32   15  140 1    
    33   16   17 1    
    34   17   18 1    
    35   17  141 1    
    36   17  142 1    
    37   18   19 1    
    38   18   67 1    
    39   18  143 1    
    40   19   20 am   BACKBONE|DICT|INTERRES
    41   19  144 1    
    42   20   21 2    
    43   20   22 1    
    44   22   23 1    
    45   22   24 1    
    46   22  145 1    
    47   23  146 1    
    48   23  147 1    
    49   23  148 1    
    50   24   25 am   BACKBONE|DICT|INTERRES
    51   24  149 1    
    52   25   26 2    
    53   25   27 1    
    54   27   28 1    
    55   27   29 1    
    56   27  150 1    
    57   28  151 1    
    58   28  152 1    
    59   28  153 1    
    60   29   30 am   BACKBONE|DICT|INTERRES
    61   29  154 1    
    62   30   31 2    
    63   30   32 1    
    64   32   33 1    
    65   32   34 1    
    66   32  155 1    
    67   33  156 1    
    68   33  157 1    
    69   33  158 1    
    70   34   35 am   BACKBONE|DICT|INTERRES
    71   34  159 1    
    72   35   36 2    
    73   35   37 1    
    74   37   38 1    
    75   37   39 1    
    76   37  160 1    
    77   38  161 1    
    78   38  162 1    
    79   38  163 1    
    80   39   40 am   BACKBONE|DICT|INTERRES
    81   39  164 1    
    82   40   41 2    
    83   40   42 1    
    84   42   43 1    
    85   42   44 1    
    86   42  165 1    
    87   43  166 1    
    88   43  167 1    
    89   43  168 1    
    90   44   45 am   BACKBONE|DICT|INTERRES
    91   44  169 1    
    92   45   46 2    
    93   45   47 1    
    94   47   48 1    
    95   47   49 1    
    96   47  170 1    
    97   48  171 1    
    98   48  172 1    
    99   48  173 1    
   100   49   50 am   BACKBONE|DICT|INTERRES
   101   49  174 1    
   102   50   51 2    
   103   50   52 1    
   104   52   53 1    
   105   52   54 1    
   106   52  175 1    
   107   53  176 1    
   108   53  177 1    
   109   53  178 1    
   110   54   55 am   BACKBONE|DICT|INTERRES
   111   54  179 1    
   112   55   56 2    
   113   55   57 1    
   114   57   58 1    
   115   57   59 1    
   116   57  180 1    
   117   58  181 1    
   118   58  182 1    
   119   58  183 1    
   120   59   60 am   BACKBONE|DICT|INTERRES
   121   59  184 1    
   122   60   61 2    
   123   60   62 1    
   124   62   63 1    
   125   62   64 1    
   126   62  185 1    
   127   63  186 1    
   128   63  187 1    
   129   63  188 1    
   130   64   65 am   BACKBONE|DICT|INTERRES
   131   64  189 1    
   132   65   66 2    
   133   67   68 2    
   134   67   69 am   BACKBONE|DICT|INTERRES
   135   69   70 1    
   136   69  190 1    
   137   70   71 1    
   138   70   72 1    
   139   70  191 1    
   140   71  192 1    
   141   71  193 1    
   142   71  194 1    
   143   72   73 2    
   144   72   74 am   BACKBONE|DICT|INTERRES
   145   74   75 1    
   146   74  195 1    
   147   75   76 1    
   148   75   77 1    
   149   75  196 1    
   150   76  197 1    
   151   76  198 1    
   152   76  199 1    
   153   77   78 2    
   154   77   79 am   BACKBONE|DICT|INTERRES
   155   79   80 1    
   156   79  200 1    
   157   80   81 1    
   158   80   82 1    
   159   80  201 1    
   160   81  202 1    
   161   81  203 1    
   162   81  204 1    
   163   82   83 2    
   164   82   84 am   BACKBONE|DICT|INTERRES
   165   84   85 1    
   166   84  205 1    
   167   85   86 1    
   168   85   87 1    
   169   85  206 1    
   170   86  207 1    
   171   86  208 1    
   172   86  209 1    
   173   87   88 2    
   174   87   89 am   BACKBONE|DICT|INTERRES
   175   89   90 1    
   176   89  210 1    
   177   90   91 1    
   178   90   92 1    
   179   90  211 1    
   180   91  212 1    
   181   91  213 1    
   182   91  214 1    
   183   92   93 2    
   184   92   94 am   BACKBONE|DICT|INTERRES
   185   94   95 1    
   186   94  215 1    
   187   95   96 1    
   188   95   97 1    
   189   95  216 1    
   190   96  217 1    
   191   96  218 1    
   192   96  219 1    
   193   97   98 2    
   194   97   99 am   BACKBONE|DICT|INTERRES
   195   99  100 1    
   196   99  220 1    
   197  100  101 1    
   198  100  102 1    
   199  100  221 1    
   200  101  222 1    
   201  101  223 1    
   202  101  224 1    
   203  102  103 2    
   204  102  104 am   BACKBONE|DICT|INTERRES
   205  104  105 1    
   206  104  225 1    
   207  105  106 1    
   208  105  107 1    
   209  105  226 1    
   210  106  227 1    
   211  106  228 1    
   212  106  229 1    
   213  107  108 2    
   214  107  109 am   BACKBONE|DICT|INTERRES
   215  109  110 1    
   216  109  230 1    
   217  110  111 1    
   218  110  112 1    
   219  110  231 1    
   220  111  232 1    
   221  111  233 1    
   222  111  234 1    
   223  112  113 2    
   224  112  114 am   BACKBONE|DICT|INTERRES
   225  114  115 1    
   226  114  235 1    
   227  115  116 1    
   228  115  117 1    
   229  115  236 1    
   230  116  237 1    
   231  116  238 1    
   232  116  239 1    
   233  117  118 2    
   234  117  119 am   BACKBONE|DICT|INTERRES
   235  119  120 1    
   236  119  240 1    
   237  120  121 1    
   238  120  124 1    
   239  120  241 1    
   240  121  122 am   BACKBONE|DICT|INTERRES
   241  121  123 2    
   242  122  242 1    
   243  122  243 1    
   244  124  125 1    
   245  124  244 1    
   246  124  245 1    
   247  125  126 1    
   248  126  246 1    
   249  126  247 1    
@<TRIPOS>SUBSTRUCTURE
     1 UNK         1 GROUP             0       ****    0 ROOT    
