@<TRIPOS>MOLECULE
3R540
247   249    1
SMALL
USER_CHARGES


@<TRIPOS>ATOM
      1 CA         -1.1721  -12.2161  -48.9762 C.3       0 UNK        -0.1800 
      2 C           0.3188  -11.9263  -48.8874 C.2       0 UNK         0.5000 
      3 O           0.7332  -11.0854  -48.0901 O.2       0 UNK        -0.5000 
      4 N           1.1282  -12.6359  -49.6846 N.am      1 UNK        -0.5000 
      5 CA          2.5915  -12.5113  -49.7833 C.3       1 UNK         0.1400 
      6 C6          3.1909  -13.3284  -50.9661 C.3       23 UNK        -0.0398 
      7 S7          2.3013  -14.8547  -51.4452 S.3       23 UNK        -0.2404 
      8 C8          2.7182  -16.0266  -50.1129 C.3       23 UNK        -0.0205 
      9 C9          2.2806  -17.4423  -50.4704 C.ar      23 UNK        -0.0193 
     10 C10         0.9367  -17.7185  -50.7399 C.ar      23 UNK        -0.1150 
     11 C11         0.5371  -18.9960  -51.1404 C.ar      23 UNK        -0.0193 
     12 C12         1.4862  -20.0177  -51.2299 C.ar      23 UNK        -0.1150 
     13 C13         2.8297  -19.7658  -50.9302 C.ar      23 UNK        -0.0193 
     14 C14         3.2193  -18.4746  -50.5566 C.ar      23 UNK        -0.1150 
     15 C15         3.8767  -20.8698  -51.0399 C.3       23 UNK        -0.0205 
     16 S16         3.4365  -22.3978  -50.1453 S.3       23 UNK        -0.2404 
     17 C17         3.2271  -21.7956  -48.4336 C.3       23 UNK        -0.0398 
     18 CA          2.1639  -22.5891  -47.6370 C.3       11 UNK         0.1400 
     19 N           2.2284  -22.2621  -46.2112 N.am      11 UNK        -0.5000 
     20 C           1.5615  -22.8864  -45.2341 C.2       10 UNK         0.5000 
     21 O           0.8206  -23.8486  -45.4283 O.2       10 UNK        -0.5000 
     22 CA          1.6995  -22.3156  -43.8121 C.3       10 UNK         0.1400 
     23 CB          2.9967  -22.7928  -43.1345 C.3       10 UNK        -0.1800 
     24 N           1.5538  -20.8574  -43.7417 N.am      10 UNK        -0.5000 
     25 C           2.3604  -19.8896  -44.2027 C.2       9 UNK         0.5000 
     26 O           3.3996  -20.0939  -44.8310 O.2       9 UNK        -0.5000 
     27 CA          1.9060  -18.4433  -43.9338 C.3       9 UNK         0.1400 
     28 CB          0.9646  -17.9797  -45.0558 C.3       9 UNK        -0.1800 
     29 N           1.2214  -18.2982  -42.6485 N.am      9 UNK        -0.5000 
     30 C           1.7808  -18.4919  -41.4450 C.2       8 UNK         0.5000 
     31 O           2.9780  -18.7217  -41.2716 O.2       8 UNK        -0.5000 
     32 CA          0.8307  -18.4596  -40.2353 C.3       8 UNK         0.1400 
     33 CB          0.6262  -17.0229  -39.7317 C.3       8 UNK        -0.1800 
     34 N          -0.4672  -19.0529  -40.5607 N.am      8 UNK        -0.5000 
     35 C          -0.7081  -20.3710  -40.6025 C.2       7 UNK         0.5000 
     36 O           0.1231  -21.2277  -40.3020 O.2       7 UNK        -0.5000 
     37 CA         -2.1073  -20.8114  -41.0746 C.3       7 UNK         0.1400 
     38 CB         -3.0631  -20.9421  -39.8795 C.3       7 UNK        -0.1800 
     39 N          -2.6940  -19.9009  -42.0593 N.am      7 UNK        -0.5000 
     40 C          -2.2648  -19.7687  -43.3213 C.2       6 UNK         0.5000 
     41 O          -1.3464  -20.4306  -43.8062 O.2       6 UNK        -0.5000 
     42 CA         -2.9490  -18.6827  -44.1739 C.3       6 UNK         0.1400 
     43 CB         -4.1605  -19.2647  -44.9177 C.3       6 UNK        -0.1800 
     44 N          -3.3505  -17.4829  -43.4314 N.am      6 UNK        -0.5000 
     45 C          -2.5064  -16.6970  -42.7492 C.2       5 UNK         0.5000 
     46 O          -1.3180  -16.9728  -42.5715 O.2       5 UNK        -0.5000 
     47 CA         -3.1000  -15.4198  -42.1244 C.3       5 UNK         0.1400 
     48 CB         -3.7987  -15.7590  -40.7983 C.3       5 UNK        -0.1800 
     49 N          -2.0825  -14.3974  -41.8663 N.am      5 UNK        -0.5000 
     50 C          -1.3508  -13.7791  -42.8026 C.2       4 UNK         0.5000 
     51 O          -1.5088  -13.9364  -44.0176 O.2       4 UNK        -0.5000 
     52 CA         -0.2559  -12.8303  -42.2880 C.3       4 UNK         0.1400 
     53 CB          0.8220  -13.5956  -41.4942 C.3       4 UNK        -0.1800 
     54 N           0.3610  -12.1580  -43.4256 N.am      4 UNK        -0.5000 
     55 C           1.0585  -11.0170  -43.3906 C.2       3 UNK         0.5000 
     56 O           1.2155  -10.3471  -42.3677 O.2       3 UNK        -0.5000 
     57 CA          1.6927  -10.5654  -44.7264 C.3       3 UNK         0.1400 
     58 CB          2.8199   -9.5280  -44.5424 C.3       3 UNK        -0.1800 
     59 N           2.1516  -11.6915  -45.5506 N.am      3 UNK        -0.5000 
     60 C           3.0593  -12.6258  -45.2177 C.2       2 UNK         0.5000 
     61 O           3.7013  -12.6163  -44.1669 O.2       2 UNK        -0.5000 
     62 CA          3.2702  -13.7924  -46.2036 C.3       2 UNK         0.1400 
     63 CB          2.6073  -15.0657  -45.6630 C.3       2 UNK        -0.1800 
     64 N           2.7352  -13.5258  -47.5386 N.am      2 UNK        -0.5000 
     65 C           3.3527  -12.7841  -48.4663 C.2       1 UNK         0.5000 
     66 O           4.4757  -12.3025  -48.3108 O.2       1 UNK        -0.5000 
     67 C           0.7370  -22.4016  -48.1999 C.2       11 UNK         0.5000 
     68 O           0.2632  -23.2471  -48.9572 O.2       11 UNK        -0.5000 
     69 N           0.0502  -21.3341  -47.7699 N.am      12 UNK        -0.5000 
     70 CA         -1.3369  -21.0549  -48.1395 C.3       12 UNK         0.1400 
     71 CB         -1.6822  -19.6162  -47.7427 C.3       12 UNK        -0.1800 
     72 C          -2.3358  -22.0586  -47.5323 C.2       12 UNK         0.5000 
     73 O          -3.3036  -22.4223  -48.2004 O.2       12 UNK        -0.5000 
     74 N          -2.0687  -22.5186  -46.3010 N.am      13 UNK        -0.5000 
     75 CA         -2.8311  -23.5833  -45.6465 C.3       13 UNK         0.1400 
     76 CB         -2.5012  -23.6296  -44.1475 C.3       13 UNK        -0.1800 
     77 C          -2.6008  -24.9530  -46.3100 C.2       13 UNK         0.5000 
     78 O          -3.5618  -25.6962  -46.5038 O.2       13 UNK        -0.5000 
     79 N          -1.3496  -25.2439  -46.6954 N.am      14 UNK        -0.5000 
     80 CA         -0.9638  -26.4408  -47.4495 C.3       14 UNK         0.1400 
     81 CB          0.5678  -26.5346  -47.5180 C.3       14 UNK        -0.1800 
     82 C          -1.5804  -26.4846  -48.8621 C.2       14 UNK         0.5000 
     83 O          -1.9452  -27.5621  -49.3331 O.2       14 UNK        -0.5000 
     84 N          -1.7301  -25.3093  -49.4896 N.am      15 UNK        -0.5000 
     85 CA         -2.4305  -25.1074  -50.7606 C.3       15 UNK         0.1400 
     86 CB         -2.0430  -23.7312  -51.3275 C.3       15 UNK        -0.1800 
     87 C          -3.9661  -25.2445  -50.6491 C.2       15 UNK         0.5000 
     88 O          -4.6380  -25.3047  -51.6791 O.2       15 UNK        -0.5000 
     89 N          -4.4940  -25.2895  -49.4164 N.am      16 UNK        -0.5000 
     90 CA         -5.8858  -25.4898  -48.9962 C.3       16 UNK         0.1400 
     91 CB         -6.4446  -26.8317  -49.5066 C.3       16 UNK        -0.1800 
     92 C          -6.8276  -24.3214  -49.3331 C.2       16 UNK         0.5000 
     93 O          -7.5001  -23.8104  -48.4371 O.2       16 UNK        -0.5000 
     94 N          -6.8572  -23.9125  -50.6057 N.am      17 UNK        -0.5000 
     95 CA         -7.6846  -22.8165  -51.1147 C.3       17 UNK         0.1400 
     96 CB         -8.1278  -23.1520  -52.5475 C.3       17 UNK        -0.1800 
     97 C          -6.9661  -21.4532  -51.0564 C.2       17 UNK         0.5000 
     98 O          -7.5470  -20.4525  -51.4805 O.2       17 UNK        -0.5000 
     99 N          -5.7234  -21.4330  -50.5471 N.am      18 UNK        -0.5000 
    100 CA        -4.8440  -20.2718  -50.4017 C.3       18 UNK         0.1400 
    101 CB        -5.3520  -19.3513  -49.2693 C.3       18 UNK        -0.1800 
    102 C         -4.6199  -19.5644  -51.7516 C.2       18 UNK         0.5000 
    103 O         -4.1350  -20.2088  -52.6833 O.2       18 UNK        -0.5000 
    104 N         -4.9948  -18.2810  -51.8471 N.am      19 UNK        -0.5000 
    105 CA        -4.8533  -17.4239  -53.0279 C.3       19 UNK         0.1400 
    106 CB        -5.4267  -16.0354  -52.7083 C.3       19 UNK        -0.1800 
    107 C         -5.4964  -17.9876  -54.3090 C.2       19 UNK         0.5000 
    108 O         -4.9723  -17.7586  -55.3991 O.2       19 UNK        -0.5000 
    109 N         -6.5938  -18.7421  -54.1600 N.am      20 UNK        -0.5000 
    110 CA        -7.2829  -19.4083  -55.2654 C.3       20 UNK         0.1400 
    111 CB        -8.6915  -19.8137  -54.8085 C.3       20 UNK        -0.1800 
    112 C         -6.5128  -20.6214  -55.8267 C.2       20 UNK         0.5000 
    113 O         -6.7780  -21.0187  -56.9621 O.2       20 UNK        -0.5000 
    114 N         -5.5810  -21.1821  -55.0431 N.am      21 UNK        -0.5000 
    115 CA        -4.7049  -22.2752  -55.4552 C.3       21 UNK         0.1400 
    116 CB        -4.5304  -23.2717  -54.2987 C.3       21 UNK        -0.1800 
    117 C         -3.3465  -21.7482  -55.9427 C.2       21 UNK         0.5000 
    118 O         -2.9073  -22.1453  -57.0232 O.2       21 UNK        -0.5000 
    119 N         -2.6991  -20.8794  -55.1516 N.am      22 UNK        -0.5000 
    120 CA        -1.3714  -20.3256  -55.4773 C.3       22 UNK         0.1400 
    121 C         -1.3681  -19.1805  -56.5325 C.2       22 UNK         0.5000 
    122 N         -2.4857  -18.5243  -56.8189 N.am      22 UNK        -0.7600 
    123 O         -0.3290  -18.8960  -57.1223 O.2       22 UNK        -0.5000 
    124 C124       -0.5428  -19.9675  -54.2165 C.3       23 UNK        -0.0398 
    125 S125       -1.2743  -18.6502  -53.1873 S.3       23 UNK        -0.2404 
    126 C126       -0.9153  -19.2507  -51.5085 C.3       23 UNK        -0.0205 
    127 H127       -1.7122  -11.3144  -49.2646 H         1 UNK         0.0600 
    128 H128       -1.3912  -12.9934  -49.7088 H         1 UNK         0.0600 
    129 H129       -1.5483  -12.5454  -48.0075 H         1 UNK         0.0600 
    130 H130        0.7271  -13.3214  -50.3103 H         1 UNK         0.3000 
    131 H131        2.7841  -11.4579  -49.9988 H         1 UNK         0.0600 
    132 H132        4.2461  -13.5648  -50.8137 H         1 UNK         0.0800 
    133 H133        3.1801  -12.6926  -51.8524 H         1 UNK         0.0800 
    134 H134        3.7916  -15.9889  -49.9207 H         1 UNK         0.0800 
    135 H135        2.2202  -15.7270  -49.1910 H         1 UNK         0.0800 
    136 H136        0.2056  -16.9243  -50.6827 H         1 UNK         0.1150 
    137 H137        1.1829  -21.0080  -51.5393 H         1 UNK         0.1150 
    138 H138        4.2595  -18.2687  -50.3468 H         1 UNK         0.1150 
    139 H139        4.0182  -21.1106  -52.0942 H         1 UNK         0.0800 
    140 H140        4.8437  -20.5230  -50.6723 H         1 UNK         0.0800 
    141 H141        2.9876  -20.7316  -48.4270 H         1 UNK         0.0800 
    142 H142        4.1974  -21.8844  -47.9428 H         1 UNK         0.0800 
    143 H143        2.4060  -23.6504  -47.7240 H         1 UNK         0.0600 
    144 H144        2.8114  -21.4743  -45.9393 H         1 UNK         0.3000 
    145 H145        0.8652  -22.7157  -43.2335 H         1 UNK         0.0600 
    146 H146        3.0589  -22.4294  -42.1086 H         1 UNK         0.0600 
    147 H147        3.0361  -23.8821  -43.0973 H         1 UNK         0.0600 
    148 H148        3.8866  -22.4536  -43.6651 H         1 UNK         0.0600 
    149 H149        0.6708  -20.5525  -43.3472 H         1 UNK         0.3000 
    150 H150        2.7885  -17.8008  -43.9236 H         1 UNK         0.0600 
    151 H151        1.4829  -17.9475  -46.0146 H         1 UNK         0.0600 
    152 H152        0.5662  -16.9851  -44.8572 H         1 UNK         0.0600 
    153 H153        0.1182  -18.6539  -45.1694 H         1 UNK         0.0600 
    154 H154        0.2440  -18.0208  -42.6813 H         1 UNK         0.3000 
    155 H155        1.2927  -19.0354  -39.4303 H         1 UNK         0.0600 
    156 H156        0.1498  -16.3961  -40.4843 H         1 UNK         0.0600 
    157 H157        1.5795  -16.5595  -39.4747 H         1 UNK         0.0600 
    158 H158        0.0029  -17.0039  -38.8377 H         1 UNK         0.0600 
    159 H159       -1.1791  -18.4167  -40.8925 H         1 UNK         0.3000 
    160 H160       -2.0030  -21.7956  -41.5358 H         1 UNK         0.0600 
    161 H161       -4.0341  -21.3272  -40.1917 H         1 UNK         0.0600 
    162 H162       -3.2242  -19.9832  -39.3852 H         1 UNK         0.0600 
    163 H163       -2.6651  -21.6328  -39.1349 H         1 UNK         0.0600 
    164 H164       -3.4539  -19.3153  -41.7458 H         1 UNK         0.3000 
    165 H165       -2.2225  -18.3495  -44.9138 H         1 UNK         0.0600 
    166 H166       -4.5673  -18.5483  -45.6316 H         1 UNK         0.0600 
    167 H167       -3.8850  -20.1583  -45.4795 H         1 UNK         0.0600 
    168 H168       -4.9584  -19.5451  -44.2292 H         1 UNK         0.0600 
    169 H169       -4.3184  -17.2066  -43.5140 H         1 UNK         0.3000 
    170 H170       -3.8329  -15.0029  -42.8182 H         1 UNK         0.0600 
    171 H171       -4.5935  -16.4912  -40.9462 H         1 UNK         0.0600 
    172 H172       -3.1004  -16.1753  -40.0707 H         1 UNK         0.0600 
    173 H173       -4.2560  -14.8738  -40.3557 H         1 UNK         0.0600 
    174 H174       -1.8706  -14.2222  -40.8955 H         1 UNK         0.3000 
    175 H175       -0.7279  -12.0844  -41.6453 H         1 UNK         0.0600 
    176 H176        1.2470  -14.4120  -42.0803 H         1 UNK         0.0600 
    177 H177        1.6403  -12.9406  -41.1953 H         1 UNK         0.0600 
    178 H178        0.4090  -14.0220  -40.5803 H         1 UNK         0.0600 
    179 H179        0.2112  -12.6263  -44.3103 H         1 UNK         0.3000 
    180 H180        0.8936  -10.0834  -45.2913 H         1 UNK         0.0600 
    181 H181        3.6341   -9.9170  -43.9304 H         1 UNK         0.0600 
    182 H182        2.4463   -8.6270  -44.0546 H         1 UNK         0.0600 
    183 H183        3.2369   -9.2260  -45.5032 H         1 UNK         0.0600 
    184 H184        1.7045  -11.7573  -46.4593 H         1 UNK         0.3000 
    185 H185        4.3447  -13.9729  -46.2777 H         1 UNK         0.0600 
    186 H186        1.5267  -14.9453  -45.5776 H         1 UNK         0.0600 
    187 H187        2.8055  -15.9160  -46.3152 H         1 UNK         0.0600 
    188 H188        2.9888  -15.3189  -44.6729 H         1 UNK         0.0600 
    189 H189        1.8085  -13.8717  -47.7385 H         1 UNK         0.3000 
    190 H190        0.4964  -20.6911  -47.1340 H         1 UNK         0.3000 
    191 H191       -1.4198  -21.1355  -49.2241 H         1 UNK         0.0600 
    192 H192       -1.5237  -19.4620  -46.6789 H         1 UNK         0.0600 
    193 H193       -2.7237  -19.3819  -47.9604 H         1 UNK         0.0600 
    194 H194       -1.0632  -18.8976  -48.2803 H         1 UNK         0.0600 
    195 H195       -1.2615  -22.1671  -45.8067 H         1 UNK         0.3000 
    196 H196       -3.8934  -23.3486  -45.7442 H         1 UNK         0.0600 
    197 H197       -1.4333  -23.7483  -43.9666 H         1 UNK         0.0600 
    198 H198       -3.0115  -24.4612  -43.6599 H         1 UNK         0.0600 
    199 H199       -2.8292  -22.7184  -43.6501 H         1 UNK         0.0600 
    200 H200       -0.5989  -24.6100  -46.4343 H         1 UNK         0.3000 
    201 H201       -1.3320  -27.3105  -46.9015 H         1 UNK         0.0600 
    202 H202        1.0073  -26.5523  -46.5205 H         1 UNK         0.0600 
    203 H203        0.9997  -25.6931  -48.0590 H         1 UNK         0.0600 
    204 H204        0.8799  -27.4467  -48.0281 H         1 UNK         0.0600 
    205 H205       -1.3081  -24.4858  -49.0725 H         1 UNK         0.3000 
    206 H206       -2.0861  -25.8711  -51.4606 H         1 UNK         0.0600 
    207 H207       -0.9606  -23.6142  -51.3816 H         1 UNK         0.0600 
    208 H208       -2.4244  -23.6053  -52.3393 H         1 UNK         0.0600 
    209 H209       -2.4392  -22.9162  -50.7223 H         1 UNK         0.0600 
    210 H210       -3.8459  -25.1993  -48.6441 H         1 UNK         0.3000 
    211 H211       -5.8531  -25.5526  -47.9077 H         1 UNK         0.0600 
    212 H212       -6.5255  -26.8577  -50.5935 H         1 UNK         0.0600 
    213 H213       -7.4410  -27.0153  -49.1030 H         1 UNK         0.0600 
    214 H214       -5.8106  -27.6630  -49.1980 H         1 UNK         0.0600 
    215 H215       -6.2347  -24.3759  -51.2637 H         1 UNK         0.3000 
    216 H216       -8.5849  -22.7334  -50.5024 H         1 UNK         0.0600 
    217 H217       -8.9428  -22.4998  -52.8598 H         1 UNK         0.0600 
    218 H218       -8.4932  -24.1763  -52.6240 H         1 UNK         0.0600 
    219 H219       -7.3170  -23.0274  -53.2633 H         1 UNK         0.0600 
    220 H220       -5.3356  -22.3116  -50.2355 H         1 UNK         0.3000 
    221 H221       -3.8672  -20.6542  -50.1064 H         1 UNK         0.0600 
    222 H222       -6.3498  -18.9603  -49.4711 H         1 UNK         0.0600 
    223 H223       -5.3981  -19.8946  -48.3250 H         1 UNK         0.0600 
    224 H224       -4.6847  -18.5026  -49.1149 H         1 UNK         0.0600 
    225 H225       -5.4166  -17.8514  -51.0370 H         1 UNK         0.3000 
    226 H226       -3.7882  -17.3072  -53.2261 H         1 UNK         0.0600 
    227 H227       -4.9063  -15.5772  -51.8671 H         1 UNK         0.0600 
    228 H228       -5.3186  -15.3623  -53.5601 H         1 UNK         0.0600 
    229 H229       -6.4880  -16.0856  -52.4617 H         1 UNK         0.0600 
    230 H230       -6.9421  -18.9246  -53.2271 H         1 UNK         0.3000 
    231 H231       -7.3915  -18.6911  -56.0819 H         1 UNK         0.0600 
    232 H232       -9.2735  -18.9428  -54.5068 H         1 UNK         0.0600 
    233 H233       -8.6553  -20.4995  -53.9641 H         1 UNK         0.0600 
    234 H234       -9.2389  -20.3082  -55.6119 H         1 UNK         0.0600 
    235 H235       -5.3739  -20.7595  -54.1447 H         1 UNK         0.3000 
    236 H236       -5.1536  -22.8246  -56.2856 H         1 UNK         0.0600 
    237 H237       -3.7098  -23.9644  -54.4906 H         1 UNK         0.0600 
    238 H238       -4.3267  -22.7689  -53.3540 H         1 UNK         0.0600 
    239 H239       -5.4250  -23.8779  -54.1662 H         1 UNK         0.0600 
    240 H240       -3.1173  -20.5836  -54.2736 H         1 UNK         0.3000 
    241 H241       -0.8120  -21.1317  -55.9569 H         1 UNK         0.0600 
    242 H242       -2.4592  -17.7939  -57.5118 H         1 UNK         0.3800 
    243 H243       -3.3397  -18.6753  -56.2966 H         1 UNK         0.3800 
    244 H244       -0.4179  -20.8668  -53.6125 H         1 UNK         0.0800 
    245 H245        0.4669  -19.6612  -54.4951 H         1 UNK         0.0800 
    246 H246       -1.5661  -18.7311  -50.8042 H         1 UNK         0.0800 
    247 H247       -1.1635  -20.3101  -51.4330 H         1 UNK         0.0800 
@<TRIPOS>BOND
     1    1    2 1    
     2    1  127 1    
     3    1  128 1    
     4    1  129 1    
     5    2    3 2    
     6    2    4 am   BACKBONE|DICT|INTERRES
     7    4    5 1    
     8    4  130 1    
     9    5    6 1    
    10    5   65 1    
    11    5  131 1    
    12    6    7 1    
    13    6  132 1    
    14    6  133 1    
    15    7    8 1    
    16    8    9 1    
    17    8  134 1    
    18    8  135 1    
    19    9   10 ar   
    20    9   14 ar   
    21   10   11 ar   
    22   10  136 1    
    23   11   12 ar   
    24   11  126 1    
    25   12   13 ar   
    26   12  137 1    
    27   13   14 ar   
    28   13   15 1    
    29   14  138 1    
    30   15   16 1    
    31   15  139 1    
    32   15  140 1    
    33   16   17 1    
    34   17   18 1    
    35   17  141 1    
    36   17  142 1    
    37   18   19 1    
    38   18   67 1    
    39   18  143 1    
    40   19   20 am   BACKBONE|DICT|INTERRES
    41   19  144 1    
    42   20   21 2    
    43   20   22 1    
    44   22   23 1    
    45   22   24 1    
    46   22  145 1    
    47   23  146 1    
    48   23  147 1    
    49   23  148 1    
    50   24   25 am   BACKBONE|DICT|INTERRES
    51   24  149 1    
    52   25   26 2    
    53   25   27 1    
    54   27   28 1    
    55   27   29 1    
    56   27  150 1    
    57   28  151 1    
    58   28  152 1    
    59   28  153 1    
    60   29   30 am   BACKBONE|DICT|INTERRES
    61   29  154 1    
    62   30   31 2    
    63   30   32 1    
    64   32   33 1    
    65   32   34 1    
    66   32  155 1    
    67   33  156 1    
    68   33  157 1    
    69   33  158 1    
    70   34   35 am   BACKBONE|DICT|INTERRES
    71   34  159 1    
    72   35   36 2    
    73   35   37 1    
    74   37   38 1    
    75   37   39 1    
    76   37  160 1    
    77   38  161 1    
    78   38  162 1    
    79   38  163 1    
    80   39   40 am   BACKBONE|DICT|INTERRES
    81   39  164 1    
    82   40   41 2    
    83   40   42 1    
    84   42   43 1    
    85   42   44 1    
    86   42  165 1    
    87   43  166 1    
    88   43  167 1    
    89   43  168 1    
    90   44   45 am   BACKBONE|DICT|INTERRES
    91   44  169 1    
    92   45   46 2    
    93   45   47 1    
    94   47   48 1    
    95   47   49 1    
    96   47  170 1    
    97   48  171 1    
    98   48  172 1    
    99   48  173 1    
   100   49   50 am   BACKBONE|DICT|INTERRES
   101   49  174 1    
   102   50   51 2    
   103   50   52 1    
   104   52   53 1    
   105   52   54 1    
   106   52  175 1    
   107   53  176 1    
   108   53  177 1    
   109   53  178 1    
   110   54   55 am   BACKBONE|DICT|INTERRES
   111   54  179 1    
   112   55   56 2    
   113   55   57 1    
   114   57   58 1    
   115   57   59 1    
   116   57  180 1    
   117   58  181 1    
   118   58  182 1    
   119   58  183 1    
   120   59   60 am   BACKBONE|DICT|INTERRES
   121   59  184 1    
   122   60   61 2    
   123   60   62 1    
   124   62   63 1    
   125   62   64 1    
   126   62  185 1    
   127   63  186 1    
   128   63  187 1    
   129   63  188 1    
   130   64   65 am   BACKBONE|DICT|INTERRES
   131   64  189 1    
   132   65   66 2    
   133   67   68 2    
   134   67   69 am   BACKBONE|DICT|INTERRES
   135   69   70 1    
   136   69  190 1    
   137   70   71 1    
   138   70   72 1    
   139   70  191 1    
   140   71  192 1    
   141   71  193 1    
   142   71  194 1    
   143   72   73 2    
   144   72   74 am   BACKBONE|DICT|INTERRES
   145   74   75 1    
   146   74  195 1    
   147   75   76 1    
   148   75   77 1    
   149   75  196 1    
   150   76  197 1    
   151   76  198 1    
   152   76  199 1    
   153   77   78 2    
   154   77   79 am   BACKBONE|DICT|INTERRES
   155   79   80 1    
   156   79  200 1    
   157   80   81 1    
   158   80   82 1    
   159   80  201 1    
   160   81  202 1    
   161   81  203 1    
   162   81  204 1    
   163   82   83 2    
   164   82   84 am   BACKBONE|DICT|INTERRES
   165   84   85 1    
   166   84  205 1    
   167   85   86 1    
   168   85   87 1    
   169   85  206 1    
   170   86  207 1    
   171   86  208 1    
   172   86  209 1    
   173   87   88 2    
   174   87   89 am   BACKBONE|DICT|INTERRES
   175   89   90 1    
   176   89  210 1    
   177   90   91 1    
   178   90   92 1    
   179   90  211 1    
   180   91  212 1    
   181   91  213 1    
   182   91  214 1    
   183   92   93 2    
   184   92   94 am   BACKBONE|DICT|INTERRES
   185   94   95 1    
   186   94  215 1    
   187   95   96 1    
   188   95   97 1    
   189   95  216 1    
   190   96  217 1    
   191   96  218 1    
   192   96  219 1    
   193   97   98 2    
   194   97   99 am   BACKBONE|DICT|INTERRES
   195   99  100 1    
   196   99  220 1    
   197  100  101 1    
   198  100  102 1    
   199  100  221 1    
   200  101  222 1    
   201  101  223 1    
   202  101  224 1    
   203  102  103 2    
   204  102  104 am   BACKBONE|DICT|INTERRES
   205  104  105 1    
   206  104  225 1    
   207  105  106 1    
   208  105  107 1    
   209  105  226 1    
   210  106  227 1    
   211  106  228 1    
   212  106  229 1    
   213  107  108 2    
   214  107  109 am   BACKBONE|DICT|INTERRES
   215  109  110 1    
   216  109  230 1    
   217  110  111 1    
   218  110  112 1    
   219  110  231 1    
   220  111  232 1    
   221  111  233 1    
   222  111  234 1    
   223  112  113 2    
   224  112  114 am   BACKBONE|DICT|INTERRES
   225  114  115 1    
   226  114  235 1    
   227  115  116 1    
   228  115  117 1    
   229  115  236 1    
   230  116  237 1    
   231  116  238 1    
   232  116  239 1    
   233  117  118 2    
   234  117  119 am   BACKBONE|DICT|INTERRES
   235  119  120 1    
   236  119  240 1    
   237  120  121 1    
   238  120  124 1    
   239  120  241 1    
   240  121  122 am   BACKBONE|DICT|INTERRES
   241  121  123 2    
   242  122  242 1    
   243  122  243 1    
   244  124  125 1    
   245  124  244 1    
   246  124  245 1    
   247  125  126 1    
   248  126  246 1    
   249  126  247 1    
@<TRIPOS>SUBSTRUCTURE
     1 UNK         1 GROUP             0       ****    0 ROOT    
