@<TRIPOS>MOLECULE
3R540
247   249    1
SMALL
USER_CHARGES


@<TRIPOS>ATOM
      1 CA          1.2923   -9.2398  -50.5558 C.3       0 UNK        -0.1800 
      2 C           1.8255   -9.9222  -49.3044 C.2       0 UNK         0.5000 
      3 O           2.5550   -9.3025  -48.5290 O.2       0 UNK        -0.5000 
      4 N           1.4637  -11.1942  -49.0984 N.am      1 UNK        -0.5000 
      5 CA          1.8448  -12.0223  -47.9499 C.3       1 UNK         0.1400 
      6 C6          1.8612  -13.5318  -48.3067 C.3       23 UNK        -0.0398 
      7 S7          0.3434  -14.1772  -49.0982 S.3       23 UNK        -0.2404 
      8 C8          0.3617  -15.8895  -48.4853 C.3       23 UNK        -0.0205 
      9 C9         -0.7142  -16.7329  -49.1506 C.ar      23 UNK        -0.0193 
     10 C10        -0.4656  -17.3543  -50.3790 C.ar      23 UNK        -0.1150 
     11 C11        -1.4493  -18.1406  -50.9870 C.ar      23 UNK        -0.0193 
     12 C12        -2.6839  -18.3068  -50.3562 C.ar      23 UNK        -0.1150 
     13 C13        -2.9420  -17.6964  -49.1266 C.ar      23 UNK        -0.0193 
     14 C14        -1.9556  -16.9043  -48.5323 C.ar      23 UNK        -0.1150 
     15 C15        -4.2884  -17.8793  -48.4448 C.3       23 UNK        -0.0205 
     16 S16        -4.2729  -19.2727  -47.2734 S.3       23 UNK        -0.2404 
     17 C17        -4.4351  -20.7169  -48.3835 C.3       23 UNK        -0.0398 
     18 CA         -3.3833  -21.8307  -48.1578 C.3       11 UNK         0.1400 
     19 N          -2.0000  -21.3618  -48.2902 N.am      11 UNK        -0.5000 
     20 C          -0.9384  -22.1780  -48.3844 C.2       10 UNK         0.5000 
     21 O          -1.0257  -23.4035  -48.4104 O.2       10 UNK        -0.5000 
     22 CA          0.4547  -21.5266  -48.3924 C.3       10 UNK         0.1400 
     23 CB          0.8513  -21.1071  -49.8141 C.3       10 UNK        -0.1800 
     24 N           0.5356  -20.3730  -47.4979 N.am      10 UNK        -0.5000 
     25 C           0.3804  -20.4392  -46.1692 C.2       9 UNK         0.5000 
     26 O           0.1670  -21.4861  -45.5524 O.2       9 UNK        -0.5000 
     27 CA          0.3629  -19.0897  -45.4354 C.3       9 UNK         0.1400 
     28 CB         -1.0687  -18.5357  -45.4312 C.3       9 UNK        -0.1800 
     29 N           0.8525  -19.1556  -44.0589 N.am      9 UNK        -0.5000 
     30 C           2.0962  -19.4914  -43.6907 C.2       8 UNK         0.5000 
     31 O           2.9730  -19.8279  -44.4889 O.2       8 UNK        -0.5000 
     32 CA          2.4209  -19.3907  -42.1874 C.3       8 UNK         0.1400 
     33 CB          3.9308  -19.2450  -41.9091 C.3       8 UNK        -0.1800 
     34 N           1.6888  -18.2893  -41.5571 N.am      8 UNK        -0.5000 
     35 C           1.3504  -18.2322  -40.2638 C.2       7 UNK         0.5000 
     36 O           1.5983  -19.1311  -39.4569 O.2       7 UNK        -0.5000 
     37 CA          0.6107  -16.9564  -39.8041 C.3       7 UNK         0.1400 
     38 CB          0.3533  -16.9165  -38.2835 C.3       7 UNK        -0.1800 
     39 N           1.2607  -15.7188  -40.2453 N.am      7 UNK        -0.5000 
     40 C           2.5046  -15.2939  -39.9808 C.2       6 UNK         0.5000 
     41 O           3.3100  -15.9032  -39.2741 O.2       6 UNK        -0.5000 
     42 CA          2.8976  -13.9516  -40.6404 C.3       6 UNK         0.1400 
     43 CB          4.3476  -13.5191  -40.3390 C.3       6 UNK        -0.1800 
     44 N           2.6389  -13.9516  -42.0853 N.am      6 UNK        -0.5000 
     45 C           3.1478  -14.7977  -42.9938 C.2       5 UNK         0.5000 
     46 O           4.0365  -15.6146  -42.7494 O.2       5 UNK        -0.5000 
     47 CA          2.5254  -14.7376  -44.4071 C.3       5 UNK         0.1400 
     48 CB          2.8729  -15.9831  -45.2492 C.3       5 UNK        -0.1800 
     49 N           1.0723  -14.5223  -44.3804 N.am      5 UNK        -0.5000 
     50 C           0.1525  -15.2800  -43.7657 C.2       4 UNK         0.5000 
     51 O           0.4097  -16.3256  -43.1692 O.2       4 UNK        -0.5000 
     52 CA         -1.2863  -14.7249  -43.7699 C.3       4 UNK         0.1400 
     53 CB         -2.2841  -15.6146  -42.9964 C.3       4 UNK        -0.1800 
     54 N          -1.3290  -13.3476  -43.2661 N.am      4 UNK        -0.5000 
     55 C          -0.9140  -12.9150  -42.0639 C.2       3 UNK         0.5000 
     56 O          -0.4899  -13.6579  -41.1782 O.2       3 UNK        -0.5000 
     57 CA         -0.9426  -11.3877  -41.8381 C.3       3 UNK         0.1400 
     58 CB         -0.0446  -10.9358  -40.6668 C.3       3 UNK        -0.1800 
     59 N          -0.6279  -10.6259  -43.0533 N.am      3 UNK        -0.5000 
     60 C           0.4947  -10.7017  -43.7832 C.2       2 UNK         0.5000 
     61 O           1.4656  -11.4082  -43.4961 O.2       2 UNK        -0.5000 
     62 CA          0.5139   -9.8354  -45.0575 C.3       2 UNK         0.1400 
     63 CB          1.1605   -8.4733  -44.7645 C.3       2 UNK        -0.1800 
     64 N           1.2073  -10.4498  -46.1913 N.am      2 UNK        -0.5000 
     65 C           1.0026  -11.6722  -46.7005 C.2       1 UNK         0.5000 
     66 O           0.1914  -12.4794  -46.2405 O.2       1 UNK        -0.5000 
     67 C          -3.6316  -22.5875  -46.8361 C.2       11 UNK         0.5000 
     68 O          -4.3929  -23.5536  -46.8367 O.2       11 UNK        -0.5000 
     69 N          -2.9699  -22.1706  -45.7480 N.am      12 UNK        -0.5000 
     70 CA         -3.0376  -22.8437  -44.4515 C.3       12 UNK         0.1400 
     71 CB         -2.4954  -21.9151  -43.3531 C.3       12 UNK        -0.1800 
     72 C          -2.2879  -24.1875  -44.4706 C.2       12 UNK         0.5000 
     73 O          -2.7901  -25.1712  -43.9267 O.2       12 UNK        -0.5000 
     74 N          -1.1178  -24.2089  -45.1232 N.am      13 UNK        -0.5000 
     75 CA         -0.2793  -25.3951  -45.2894 C.3       13 UNK         0.1400 
     76 CB          1.1031  -24.9660  -45.8051 C.3       13 UNK        -0.1800 
     77 C          -0.9045  -26.4534  -46.2189 C.2       13 UNK         0.5000 
     78 O          -0.8952  -27.6382  -45.8831 O.2       13 UNK        -0.5000 
     79 N          -1.4295  -26.0111  -47.3689 N.am      14 UNK        -0.5000 
     80 CA         -1.9649  -26.8727  -48.4265 C.3       14 UNK         0.1400 
     81 CB         -1.7540  -26.1734  -49.7776 C.3       14 UNK        -0.1800 
     82 C          -3.4505  -27.2381  -48.2478 C.2       14 UNK         0.5000 
     83 O          -3.9691  -28.0053  -49.0590 O.2       14 UNK        -0.5000 
     84 N          -4.1154  -26.6727  -47.2291 N.am      15 UNK        -0.5000 
     85 CA         -5.5475  -26.8010  -46.9319 C.3       15 UNK         0.1400 
     86 CB         -5.9088  -28.2480  -46.5355 C.3       15 UNK        -0.1800 
     87 C          -6.4150  -26.2446  -48.0805 C.2       15 UNK         0.5000 
     88 O          -7.2166  -26.9646  -48.6771 O.2       15 UNK        -0.5000 
     89 N          -6.1840  -24.9611  -48.3831 N.am      16 UNK        -0.5000 
     90 CA         -6.8190  -24.1027  -49.3896 C.3       16 UNK         0.1400 
     91 CB         -8.3483  -24.0519  -49.2082 C.3       16 UNK        -0.1800 
     92 C          -6.4345  -24.3971  -50.8523 C.2       16 UNK         0.5000 
     93 O          -6.6778  -23.5431  -51.7041 O.2       16 UNK        -0.5000 
     94 N          -5.8180  -25.5529  -51.1356 N.am      17 UNK        -0.5000 
     95 CA         -5.4755  -26.0075  -52.4884 C.3       17 UNK         0.1400 
     96 CB         -4.9365  -27.4434  -52.4153 C.3       17 UNK        -0.1800 
     97 C          -4.4826  -25.0950  -53.2367 C.2       17 UNK         0.5000 
     98 O          -4.5604  -24.9877  -54.4610 O.2       17 UNK        -0.5000 
     99 N          -3.5843  -24.4376  -52.4905 N.am      18 UNK        -0.5000 
    100 CA        -2.5814  -23.5146  -53.0256 C.3       18 UNK         0.1400 
    101 CB        -1.5054  -23.2589  -51.9618 C.3       18 UNK        -0.1800 
    102 C         -3.1638  -22.1733  -53.5044 C.2       18 UNK         0.5000 
    103 O         -2.5346  -21.5176  -54.3330 O.2       18 UNK        -0.5000 
    104 N         -4.3417  -21.7820  -52.9919 N.am      19 UNK        -0.5000 
    105 CA        -4.9810  -20.4879  -53.2620 C.3       19 UNK         0.1400 
    106 CB        -6.2034  -20.3238  -52.3464 C.3       19 UNK        -0.1800 
    107 C         -5.3756  -20.2711  -54.7368 C.2       19 UNK         0.5000 
    108 O         -5.5450  -19.1274  -55.1602 O.2       19 UNK        -0.5000 
    109 N         -5.5049  -21.3684  -55.4924 N.am      20 UNK        -0.5000 
    110 CA        -5.7926  -21.3706  -56.9235 C.3       20 UNK         0.1400 
    111 CB        -6.3287  -22.7592  -57.3066 C.3       20 UNK        -0.1800 
    112 C         -4.5788  -21.0043  -57.8026 C.2       20 UNK         0.5000 
    113 O         -4.7795  -20.6777  -58.9736 O.2       20 UNK        -0.5000 
    114 N         -3.3530  -21.0839  -57.2633 N.am      21 UNK        -0.5000 
    115 CA        -2.1135  -20.9205  -58.0221 C.3       21 UNK         0.1400 
    116 CB        -1.8116  -22.2088  -58.8175 C.3       21 UNK        -0.1800 
    117 C         -0.9607  -20.5069  -57.0932 C.2       21 UNK         0.5000 
    118 O          0.0301  -21.2317  -56.9762 O.2       21 UNK        -0.5000 
    119 N         -1.1139  -19.3512  -56.4357 N.am      22 UNK        -0.5000 
    120 CA        -0.0797  -18.7425  -55.5820 C.3       22 UNK         0.1400 
    121 C          1.1784  -18.3025  -56.3833 C.2       22 UNK         0.5000 
    122 N          2.3677  -18.4473  -55.8147 N.am      22 UNK        -0.7600 
    123 O          1.0823  -17.7907  -57.4969 O.2       22 UNK        -0.5000 
    124 C124       -0.6249  -17.5467  -54.7596 C.3       23 UNK        -0.0398 
    125 S125       -2.0289  -17.9971  -53.6901 S.3       23 UNK        -0.2404 
    126 C126       -1.1822  -18.8342  -52.3123 C.3       23 UNK        -0.0205 
    127 H127        0.6640   -9.9081  -51.1453 H         1 UNK         0.0600 
    128 H128        2.1194   -8.9085  -51.1836 H         1 UNK         0.0600 
    129 H129        0.6987   -8.3673  -50.2830 H         1 UNK         0.0600 
    130 H130        0.8404  -11.6451  -49.7540 H         1 UNK         0.3000 
    131 H131        2.8750  -11.7707  -47.6874 H         1 UNK         0.0600 
    132 H132        2.0855  -14.1147  -47.4154 H         1 UNK         0.0800 
    133 H133        2.6867  -13.7250  -48.9929 H         1 UNK         0.0800 
    134 H134        0.2203  -15.8842  -47.4032 H         1 UNK         0.0800 
    135 H135        1.3416  -16.3324  -48.6704 H         1 UNK         0.0800 
    136 H136        0.4929  -17.2225  -50.8613 H         1 UNK         0.1150 
    137 H137       -3.4447  -18.9063  -50.8334 H         1 UNK         0.1150 
    138 H138       -2.1538  -16.4243  -47.5841 H         1 UNK         0.1150 
    139 H139       -4.5467  -16.9700  -47.9002 H         1 UNK         0.0800 
    140 H140       -5.0789  -18.0219  -49.1834 H         1 UNK         0.0800 
    141 H141       -4.3819  -20.3894  -49.4196 H         1 UNK         0.0800 
    142 H142       -5.4443  -21.1143  -48.2655 H         1 UNK         0.0800 
    143 H143       -3.5365  -22.5649  -48.9522 H         1 UNK         0.0600 
    144 H144       -1.8566  -20.3629  -48.2656 H         1 UNK         0.3000 
    145 H145        1.1727  -22.2716  -48.0436 H         1 UNK         0.0600 
    146 H146        1.8503  -20.6715  -49.8348 H         1 UNK         0.0600 
    147 H147        0.8598  -21.9672  -50.4844 H         1 UNK         0.0600 
    148 H148        0.1571  -20.3760  -50.2257 H         1 UNK         0.0600 
    149 H149        0.6909  -19.4762  -47.9344 H         1 UNK         0.3000 
    150 H150        1.0025  -18.3957  -45.9841 H         1 UNK         0.0600 
    151 H151       -1.5267  -18.6222  -46.4149 H         1 UNK         0.0600 
    152 H152       -1.0801  -17.4796  -45.1747 H         1 UNK         0.0600 
    153 H153       -1.7103  -19.0668  -44.7272 H         1 UNK         0.0600 
    154 H154        0.2043  -18.8675  -43.3412 H         1 UNK         0.3000 
    155 H155        2.0832  -20.3318  -41.7489 H         1 UNK         0.0600 
    156 H156        4.3289  -18.3317  -42.3522 H         1 UNK         0.0600 
    157 H157        4.4917  -20.0847  -42.3207 H         1 UNK         0.0600 
    158 H158        4.1382  -19.2142  -40.8395 H         1 UNK         0.0600 
    159 H159        1.4171  -17.5180  -42.1663 H         1 UNK         0.3000 
    160 H160       -0.3611  -16.9770  -40.2993 H         1 UNK         0.0600 
    161 H161        1.2833  -16.9221  -37.7143 H         1 UNK         0.0600 
    162 H162       -0.2320  -17.7792  -37.9633 H         1 UNK         0.0600 
    163 H163       -0.2063  -16.0241  -38.0030 H         1 UNK         0.0600 
    164 H164        0.6762  -15.1120  -40.8155 H         1 UNK         0.3000 
    165 H165        2.2372  -13.1977  -40.2103 H         1 UNK         0.0600 
    166 H166        5.0748  -14.2454  -40.7024 H         1 UNK         0.0600 
    167 H167        4.5747  -12.5576  -40.7995 H         1 UNK         0.0600 
    168 H168        4.5049  -13.4101  -39.2654 H         1 UNK         0.0600 
    169 H169        1.9385  -13.2934  -42.4064 H         1 UNK         0.3000 
    170 H170        2.9557  -13.8649  -44.9000 H         1 UNK         0.0600 
    171 H171        3.9431  -16.0297  -45.4530 H         1 UNK         0.0600 
    172 H172        2.6037  -16.8993  -44.7282 H         1 UNK         0.0600 
    173 H173        2.3578  -15.9897  -46.2067 H         1 UNK         0.0600 
    174 H174        0.7486  -13.6766  -44.8432 H         1 UNK         0.3000 
    175 H175       -1.6048  -14.6922  -44.8130 H         1 UNK         0.0600 
    176 H176       -2.0067  -15.7237  -41.9477 H         1 UNK         0.0600 
    177 H177       -3.2905  -15.1979  -43.0329 H         1 UNK         0.0600 
    178 H178       -2.3353  -16.6163  -43.4216 H         1 UNK         0.0600 
    179 H179       -1.6202  -12.6507  -43.9371 H         1 UNK         0.3000 
    180 H180       -1.9728  -11.1430  -41.5759 H         1 UNK         0.0600 
    181 H181        1.0045  -11.1732  -40.8430 H         1 UNK         0.0600 
    182 H182       -0.3385  -11.4212  -39.7354 H         1 UNK         0.0600 
    183 H183       -0.1201   -9.8603  -40.5071 H         1 UNK         0.0600 
    184 H184       -1.3631  -10.0109  -43.3743 H         1 UNK         0.3000 
    185 H185       -0.5171   -9.6672  -45.3745 H         1 UNK         0.0600 
    186 H186        0.6509   -7.9636  -43.9456 H         1 UNK         0.0600 
    187 H187        2.2088   -8.5809  -44.4826 H         1 UNK         0.0600 
    188 H188        1.1125   -7.8172  -45.6340 H         1 UNK         0.0600 
    189 H189        1.8709   -9.8587  -46.6799 H         1 UNK         0.3000 
    190 H190       -2.3311  -21.3940  -45.8289 H         1 UNK         0.3000 
    191 H191       -4.0866  -23.0497  -44.2268 H         1 UNK         0.0600 
    192 H192       -2.5893  -22.3810  -42.3715 H         1 UNK         0.0600 
    193 H193       -3.0496  -20.9769  -43.3214 H         1 UNK         0.0600 
    194 H194       -1.4421  -21.6770  -43.5000 H         1 UNK         0.0600 
    195 H195       -0.7598  -23.3389  -45.5029 H         1 UNK         0.3000 
    196 H196       -0.1453  -25.8524  -44.3068 H         1 UNK         0.0600 
    197 H197        1.0382  -24.4859  -46.7819 H         1 UNK         0.0600 
    198 H198        1.5787  -24.2637  -45.1200 H         1 UNK         0.0600 
    199 H199        1.7672  -25.8255  -45.9046 H         1 UNK         0.0600 
    200 H200       -1.3583  -25.0207  -47.5944 H         1 UNK         0.3000 
    201 H201       -1.4016  -27.8080  -48.4433 H         1 UNK         0.0600 
    202 H202       -2.3522  -25.2651  -49.8498 H         1 UNK         0.0600 
    203 H203       -2.0338  -26.8217  -50.6081 H         1 UNK         0.0600 
    204 H204       -0.7083  -25.9004  -49.9202 H         1 UNK         0.0600 
    205 H205       -3.6034  -26.0274  -46.6431 H         1 UNK         0.3000 
    206 H206       -5.7390  -26.1683  -46.0637 H         1 UNK         0.0600 
    207 H207       -5.2918  -28.5937  -45.7062 H         1 UNK         0.0600 
    208 H208       -6.9494  -28.3132  -46.2159 H         1 UNK         0.0600 
    209 H209       -5.7795  -28.9461  -47.3629 H         1 UNK         0.0600 
    210 H210       -5.4832  -24.4863  -47.8128 H         1 UNK         0.3000 
    211 H211       -6.4414  -23.1007  -49.1860 H         1 UNK         0.0600 
    212 H212       -8.7922  -23.2987  -49.8603 H         1 UNK         0.0600 
    213 H213       -8.6162  -23.7917  -48.1842 H         1 UNK         0.0600 
    214 H214       -8.8201  -25.0048  -49.4487 H         1 UNK         0.0600 
    215 H215       -5.6764  -26.2144  -50.3840 H         1 UNK         0.3000 
    216 H216       -6.3994  -26.0231  -53.0702 H         1 UNK         0.0600 
    217 H217       -4.0175  -27.4992  -51.8318 H         1 UNK         0.0600 
    218 H218       -4.7172  -27.8307  -53.4111 H         1 UNK         0.0600 
    219 H219       -5.6631  -28.1154  -51.9580 H         1 UNK         0.0600 
    220 H220       -3.5945  -24.5807  -51.4927 H         1 UNK         0.3000 
    221 H221       -2.1026  -23.9869  -53.8861 H         1 UNK         0.0600 
    222 H222       -0.9814  -24.1767  -51.6985 H         1 UNK         0.0600 
    223 H223       -1.9365  -22.8380  -51.0542 H         1 UNK         0.0600 
    224 H224       -0.7547  -22.5559  -52.3255 H         1 UNK         0.0600 
    225 H225       -4.8453  -22.4130  -52.3819 H         1 UNK         0.3000 
    226 H226       -4.2633  -19.7097  -53.0026 H         1 UNK         0.0600 
    227 H227       -6.9875  -21.0405  -52.5926 H         1 UNK         0.0600 
    228 H228       -5.9399  -20.4605  -51.2982 H         1 UNK         0.0600 
    229 H229       -6.6319  -19.3257  -52.4457 H         1 UNK         0.0600 
    230 H230       -5.3439  -22.2672  -55.0602 H         1 UNK         0.3000 
    231 H231       -6.5757  -20.6360  -57.1229 H         1 UNK         0.0600 
    232 H232       -5.5922  -23.5409  -57.1145 H         1 UNK         0.0600 
    233 H233       -6.5857  -22.8026  -58.3658 H         1 UNK         0.0600 
    234 H234       -7.2306  -23.0030  -56.7448 H         1 UNK         0.0600 
    235 H235       -3.2429  -21.3013  -56.2770 H         1 UNK         0.3000 
    236 H236       -2.2358  -20.1029  -58.7357 H         1 UNK         0.0600 
    237 H237       -2.5994  -22.4274  -59.5383 H         1 UNK         0.0600 
    238 H238       -0.8816  -22.1141  -59.3793 H         1 UNK         0.0600 
    239 H239       -1.7135  -23.0717  -58.1577 H         1 UNK         0.0600 
    240 H240       -1.9629  -18.8203  -56.5603 H         1 UNK         0.3000 
    241 H241        0.2352  -19.5148  -54.8774 H         1 UNK         0.0600 
    242 H242        2.4739  -18.8618  -54.9017 H         1 UNK         0.3800 
    243 H243        3.1894  -18.1514  -56.3191 H         1 UNK         0.3800 
    244 H244        0.1580  -17.1130  -54.1345 H         1 UNK         0.0800 
    245 H245       -0.9537  -16.7479  -55.4266 H         1 UNK         0.0800 
    246 H246       -1.5361  -19.8642  -52.2582 H         1 UNK         0.0800 
    247 H247       -0.1092  -18.8969  -52.4969 H         1 UNK         0.0800 
@<TRIPOS>BOND
     1    1    2 1    
     2    1  127 1    
     3    1  128 1    
     4    1  129 1    
     5    2    3 2    
     6    2    4 am   BACKBONE|DICT|INTERRES
     7    4    5 1    
     8    4  130 1    
     9    5    6 1    
    10    5   65 1    
    11    5  131 1    
    12    6    7 1    
    13    6  132 1    
    14    6  133 1    
    15    7    8 1    
    16    8    9 1    
    17    8  134 1    
    18    8  135 1    
    19    9   10 ar   
    20    9   14 ar   
    21   10   11 ar   
    22   10  136 1    
    23   11   12 ar   
    24   11  126 1    
    25   12   13 ar   
    26   12  137 1    
    27   13   14 ar   
    28   13   15 1    
    29   14  138 1    
    30   15   16 1    
    31   15  139 1    
    32   15  140 1    
    33   16   17 1    
    34   17   18 1    
    35   17  141 1    
    36   17  142 1    
    37   18   19 1    
    38   18   67 1    
    39   18  143 1    
    40   19   20 am   BACKBONE|DICT|INTERRES
    41   19  144 1    
    42   20   21 2    
    43   20   22 1    
    44   22   23 1    
    45   22   24 1    
    46   22  145 1    
    47   23  146 1    
    48   23  147 1    
    49   23  148 1    
    50   24   25 am   BACKBONE|DICT|INTERRES
    51   24  149 1    
    52   25   26 2    
    53   25   27 1    
    54   27   28 1    
    55   27   29 1    
    56   27  150 1    
    57   28  151 1    
    58   28  152 1    
    59   28  153 1    
    60   29   30 am   BACKBONE|DICT|INTERRES
    61   29  154 1    
    62   30   31 2    
    63   30   32 1    
    64   32   33 1    
    65   32   34 1    
    66   32  155 1    
    67   33  156 1    
    68   33  157 1    
    69   33  158 1    
    70   34   35 am   BACKBONE|DICT|INTERRES
    71   34  159 1    
    72   35   36 2    
    73   35   37 1    
    74   37   38 1    
    75   37   39 1    
    76   37  160 1    
    77   38  161 1    
    78   38  162 1    
    79   38  163 1    
    80   39   40 am   BACKBONE|DICT|INTERRES
    81   39  164 1    
    82   40   41 2    
    83   40   42 1    
    84   42   43 1    
    85   42   44 1    
    86   42  165 1    
    87   43  166 1    
    88   43  167 1    
    89   43  168 1    
    90   44   45 am   BACKBONE|DICT|INTERRES
    91   44  169 1    
    92   45   46 2    
    93   45   47 1    
    94   47   48 1    
    95   47   49 1    
    96   47  170 1    
    97   48  171 1    
    98   48  172 1    
    99   48  173 1    
   100   49   50 am   BACKBONE|DICT|INTERRES
   101   49  174 1    
   102   50   51 2    
   103   50   52 1    
   104   52   53 1    
   105   52   54 1    
   106   52  175 1    
   107   53  176 1    
   108   53  177 1    
   109   53  178 1    
   110   54   55 am   BACKBONE|DICT|INTERRES
   111   54  179 1    
   112   55   56 2    
   113   55   57 1    
   114   57   58 1    
   115   57   59 1    
   116   57  180 1    
   117   58  181 1    
   118   58  182 1    
   119   58  183 1    
   120   59   60 am   BACKBONE|DICT|INTERRES
   121   59  184 1    
   122   60   61 2    
   123   60   62 1    
   124   62   63 1    
   125   62   64 1    
   126   62  185 1    
   127   63  186 1    
   128   63  187 1    
   129   63  188 1    
   130   64   65 am   BACKBONE|DICT|INTERRES
   131   64  189 1    
   132   65   66 2    
   133   67   68 2    
   134   67   69 am   BACKBONE|DICT|INTERRES
   135   69   70 1    
   136   69  190 1    
   137   70   71 1    
   138   70   72 1    
   139   70  191 1    
   140   71  192 1    
   141   71  193 1    
   142   71  194 1    
   143   72   73 2    
   144   72   74 am   BACKBONE|DICT|INTERRES
   145   74   75 1    
   146   74  195 1    
   147   75   76 1    
   148   75   77 1    
   149   75  196 1    
   150   76  197 1    
   151   76  198 1    
   152   76  199 1    
   153   77   78 2    
   154   77   79 am   BACKBONE|DICT|INTERRES
   155   79   80 1    
   156   79  200 1    
   157   80   81 1    
   158   80   82 1    
   159   80  201 1    
   160   81  202 1    
   161   81  203 1    
   162   81  204 1    
   163   82   83 2    
   164   82   84 am   BACKBONE|DICT|INTERRES
   165   84   85 1    
   166   84  205 1    
   167   85   86 1    
   168   85   87 1    
   169   85  206 1    
   170   86  207 1    
   171   86  208 1    
   172   86  209 1    
   173   87   88 2    
   174   87   89 am   BACKBONE|DICT|INTERRES
   175   89   90 1    
   176   89  210 1    
   177   90   91 1    
   178   90   92 1    
   179   90  211 1    
   180   91  212 1    
   181   91  213 1    
   182   91  214 1    
   183   92   93 2    
   184   92   94 am   BACKBONE|DICT|INTERRES
   185   94   95 1    
   186   94  215 1    
   187   95   96 1    
   188   95   97 1    
   189   95  216 1    
   190   96  217 1    
   191   96  218 1    
   192   96  219 1    
   193   97   98 2    
   194   97   99 am   BACKBONE|DICT|INTERRES
   195   99  100 1    
   196   99  220 1    
   197  100  101 1    
   198  100  102 1    
   199  100  221 1    
   200  101  222 1    
   201  101  223 1    
   202  101  224 1    
   203  102  103 2    
   204  102  104 am   BACKBONE|DICT|INTERRES
   205  104  105 1    
   206  104  225 1    
   207  105  106 1    
   208  105  107 1    
   209  105  226 1    
   210  106  227 1    
   211  106  228 1    
   212  106  229 1    
   213  107  108 2    
   214  107  109 am   BACKBONE|DICT|INTERRES
   215  109  110 1    
   216  109  230 1    
   217  110  111 1    
   218  110  112 1    
   219  110  231 1    
   220  111  232 1    
   221  111  233 1    
   222  111  234 1    
   223  112  113 2    
   224  112  114 am   BACKBONE|DICT|INTERRES
   225  114  115 1    
   226  114  235 1    
   227  115  116 1    
   228  115  117 1    
   229  115  236 1    
   230  116  237 1    
   231  116  238 1    
   232  116  239 1    
   233  117  118 2    
   234  117  119 am   BACKBONE|DICT|INTERRES
   235  119  120 1    
   236  119  240 1    
   237  120  121 1    
   238  120  124 1    
   239  120  241 1    
   240  121  122 am   BACKBONE|DICT|INTERRES
   241  121  123 2    
   242  122  242 1    
   243  122  243 1    
   244  124  125 1    
   245  124  244 1    
   246  124  245 1    
   247  125  126 1    
   248  126  246 1    
   249  126  247 1    
@<TRIPOS>SUBSTRUCTURE
     1 UNK         1 GROUP             0       ****    0 ROOT    
