@<TRIPOS>MOLECULE
3R540
247   249    1
SMALL
USER_CHARGES


@<TRIPOS>ATOM
      1 CA          5.0999  -16.2056  -49.8921 C.3       0 UNK        -0.1800 
      2 C           4.4257  -15.4602  -48.7502 C.2       0 UNK         0.5000 
      3 O           4.4342  -15.9414  -47.6163 O.2       0 UNK        -0.5000 
      4 N           3.8415  -14.2912  -49.0409 N.am      1 UNK        -0.5000 
      5 CA          3.0970  -13.4439  -48.1010 C.3       1 UNK         0.1400 
      6 C6          2.0808  -12.5220  -48.8204 C.3       23 UNK        -0.0398 
      7 S7          0.7988  -13.4855  -49.6871 S.3       23 UNK        -0.2404 
      8 C8         -0.5762  -13.3801  -48.4984 C.3       23 UNK        -0.0205 
      9 C9         -1.6533  -14.3971  -48.8347 C.ar      23 UNK        -0.0193 
     10 C10        -2.5714  -14.1449  -49.8588 C.ar      23 UNK        -0.1150 
     11 C11        -3.5292  -15.1040  -50.2020 C.ar      23 UNK        -0.0193 
     12 C12        -3.5676  -16.3191  -49.5122 C.ar      23 UNK        -0.1150 
     13 C13        -2.6589  -16.5769  -48.4834 C.ar      23 UNK        -0.0193 
     14 C14        -1.7129  -15.6076  -48.1397 C.ar      23 UNK        -0.1150 
     15 C15        -2.6723  -17.9134  -47.7650 C.3       23 UNK        -0.0205 
     16 S16        -3.8068  -17.8904  -46.3451 S.3       23 UNK        -0.2404 
     17 C17        -2.8942  -18.9429  -45.1746 C.3       23 UNK        -0.0398 
     18 CA         -2.7475  -20.4088  -45.6647 C.3       11 UNK         0.1400 
     19 N          -1.3485  -20.7418  -45.9715 N.am      11 UNK        -0.5000 
     20 C          -0.9100  -21.9027  -46.4787 C.2       10 UNK         0.5000 
     21 O          -1.6599  -22.8426  -46.7533 O.2       10 UNK        -0.5000 
     22 CA          0.6107  -22.0372  -46.7056 C.3       10 UNK         0.1400 
     23 CB          0.9698  -23.2060  -47.6422 C.3       10 UNK        -0.1800 
     24 N           1.2470  -20.8035  -47.1747 N.am      10 UNK        -0.5000 
     25 C           0.9561  -20.1049  -48.2857 C.2       9 UNK         0.5000 
     26 O           0.0778  -20.4283  -49.0857 O.2       9 UNK        -0.5000 
     27 CA          1.8019  -18.8360  -48.5473 C.3       9 UNK         0.1400 
     28 CB          1.0474  -17.7683  -49.3609 C.3       9 UNK        -0.1800 
     29 N           2.3835  -18.2442  -47.3363 N.am      9 UNK        -0.5000 
     30 C           1.7416  -17.8447  -46.2300 C.2       8 UNK         0.5000 
     31 O           0.5189  -17.8766  -46.0772 O.2       8 UNK        -0.5000 
     32 CA          2.6422  -17.4074  -45.0639 C.3       8 UNK         0.1400 
     33 CB          2.4543  -15.9238  -44.7386 C.3       8 UNK        -0.1800 
     34 N           2.3738  -18.2019  -43.8679 N.am      8 UNK        -0.5000 
     35 C           2.5957  -19.5202  -43.7613 C.2       7 UNK         0.5000 
     36 O           3.0620  -20.2101  -44.6700 O.2       7 UNK        -0.5000 
     37 CA          2.2332  -20.1864  -42.4195 C.3       7 UNK         0.1400 
     38 CB          3.4700  -20.2771  -41.5133 C.3       7 UNK        -0.1800 
     39 N           1.1619  -19.4965  -41.6980 N.am      7 UNK        -0.5000 
     40 C          -0.1119  -19.4585  -42.1060 C.2       6 UNK         0.5000 
     41 O          -0.5106  -20.0296  -43.1218 O.2       6 UNK        -0.5000 
     42 CA         -1.1242  -18.6739  -41.2484 C.3       6 UNK         0.1400 
     43 CB         -0.5492  -18.1021  -39.9323 C.3       6 UNK        -0.1800 
     44 N          -1.7848  -17.6306  -42.0377 N.am      6 UNK        -0.5000 
     45 C          -1.2150  -16.5571  -42.6056 C.2       5 UNK         0.5000 
     46 O          -0.0250  -16.2635  -42.4714 O.2       5 UNK        -0.5000 
     47 CA         -2.1312  -15.6566  -43.4576 C.3       5 UNK         0.1400 
     48 CB         -3.6038  -15.6645  -42.9825 C.3       5 UNK        -0.1800 
     49 N          -1.6022  -14.2948  -43.4640 N.am      5 UNK        -0.5000 
     50 C          -1.9492  -13.3265  -44.3217 C.2       4 UNK         0.5000 
     51 O          -2.7582  -13.4801  -45.2366 O.2       4 UNK        -0.5000 
     52 CA         -1.3048  -11.9396  -44.1229 C.3       4 UNK         0.1400 
     53 CB         -2.2480  -11.0213  -43.3300 C.3       4 UNK        -0.1800 
     54 N          -0.0032  -11.9748  -43.4514 N.am      4 UNK        -0.5000 
     55 C           1.1147  -12.4444  -44.0150 C.2       3 UNK         0.5000 
     56 O           1.1552  -12.9156  -45.1566 O.2       3 UNK        -0.5000 
     57 CA          2.3967  -12.3713  -43.1670 C.3       3 UNK         0.1400 
     58 CB          2.3074  -13.2616  -41.9147 C.3       3 UNK        -0.1800 
     59 N           3.4912  -12.8241  -44.0101 N.am      3 UNK        -0.5000 
     60 C           4.7374  -12.3482  -44.0665 C.2       2 UNK         0.5000 
     61 O           5.1982  -11.5260  -43.2741 O.2       2 UNK        -0.5000 
     62 CA          5.6068  -12.8743  -45.2301 C.3       2 UNK         0.1400 
     63 CB          6.5475  -13.9847  -44.7383 C.3       2 UNK        -0.1800 
     64 N           4.8048  -13.3969  -46.3426 N.am      2 UNK        -0.5000 
     65 C           4.0434  -12.6608  -47.1631 C.2       1 UNK         0.5000 
     66 O           4.0620  -11.4288  -47.1790 O.2       1 UNK        -0.5000 
     67 C          -3.3971  -21.4012  -44.6771 C.2       11 UNK         0.5000 
     68 O          -4.5541  -21.7781  -44.8629 O.2       11 UNK        -0.5000 
     69 N          -2.6141  -21.8608  -43.6924 N.am      12 UNK        -0.5000 
     70 CA         -2.9718  -22.9001  -42.7234 C.3       12 UNK         0.1400 
     71 CB         -1.8438  -23.0128  -41.6863 C.3       12 UNK        -0.1800 
     72 C          -3.2676  -24.2797  -43.3530 C.2       12 UNK         0.5000 
     73 O          -3.9557  -25.0886  -42.7301 O.2       12 UNK        -0.5000 
     74 N          -2.7702  -24.5139  -44.5747 N.am      13 UNK        -0.5000 
     75 CA         -3.0258  -25.6983  -45.3936 C.3       13 UNK         0.1400 
     76 CB         -1.6794  -26.2529  -45.8927 C.3       13 UNK        -0.1800 
     77 C          -3.9777  -25.3685  -46.5626 C.2       13 UNK         0.5000 
     78 O          -3.9237  -26.0370  -47.5951 O.2       13 UNK        -0.5000 
     79 N          -4.8154  -24.3319  -46.3997 N.am      14 UNK        -0.5000 
     80 CA         -5.7919  -23.8196  -47.3676 C.3       14 UNK         0.1400 
     81 CB         -6.9084  -24.8544  -47.6226 C.3       14 UNK        -0.1800 
     82 C          -5.1263  -23.3162  -48.6638 C.2       14 UNK         0.5000 
     83 O          -5.5756  -23.6482  -49.7611 O.2       14 UNK        -0.5000 
     84 N          -4.0365  -22.5519  -48.5020 N.am      15 UNK        -0.5000 
     85 CA         -3.1645  -22.0227  -49.5574 C.3       15 UNK         0.1400 
     86 CB         -3.9250  -21.0189  -50.4498 C.3       15 UNK        -0.1800 
     87 C          -2.4843  -23.1625  -50.3427 C.2       15 UNK         0.5000 
     88 O          -2.4752  -23.1493  -51.5747 O.2       15 UNK        -0.5000 
     89 N          -1.9795  -24.1573  -49.5945 N.am      16 UNK        -0.5000 
     90 CA         -1.4284  -25.4339  -50.0664 C.3       16 UNK         0.1400 
     91 CB         -0.0820  -25.2157  -50.7909 C.3       16 UNK        -0.1800 
     92 C          -2.4437  -26.2219  -50.9215 C.2       16 UNK         0.5000 
     93 O          -2.1272  -26.6271  -52.0393 O.2       16 UNK        -0.5000 
     94 N          -3.6697  -26.3750  -50.4002 N.am      17 UNK        -0.5000 
     95 CA         -4.8475  -26.9354  -51.0759 C.3       17 UNK         0.1400 
     96 CB         -4.6958  -28.4598  -51.2549 C.3       17 UNK        -0.1800 
     97 C          -5.1689  -26.1955  -52.3947 C.2       17 UNK         0.5000 
     98 O          -5.3813  -26.8236  -53.4333 O.2       17 UNK        -0.5000 
     99 N          -5.1504  -24.8587  -52.3142 N.am      18 UNK        -0.5000 
    100 CA        -5.3275  -23.8700  -53.3799 C.3       18 UNK         0.1400 
    101 CB        -6.7263  -23.9889  -54.0185 C.3       18 UNK        -0.1800 
    102 C         -4.2050  -23.8269  -54.4405 C.2       18 UNK         0.5000 
    103 O         -4.3409  -23.0764  -55.4080 O.2       18 UNK        -0.5000 
    104 N         -3.1024  -24.5705  -54.2566 N.am      19 UNK        -0.5000 
    105 CA        -1.9590  -24.5818  -55.1768 C.3       19 UNK         0.1400 
    106 CB        -1.0255  -25.7547  -54.8475 C.3       19 UNK        -0.1800 
    107 C         -1.1707  -23.2579  -55.1961 C.2       19 UNK         0.5000 
    108 O         -0.5778  -22.9294  -56.2245 O.2       19 UNK        -0.5000 
    109 N         -1.1988  -22.5058  -54.0861 N.am      20 UNK        -0.5000 
    110 CA        -0.6246  -21.1606  -53.9849 C.3       20 UNK         0.1400 
    111 CB        -0.2256  -20.8886  -52.5246 C.3       20 UNK        -0.1800 
    112 C         -1.5680  -20.0616  -54.5249 C.2       20 UNK         0.5000 
    113 O         -1.1708  -18.8957  -54.5451 O.2       20 UNK        -0.5000 
    114 N         -2.7774  -20.4495  -54.9632 N.am      21 UNK        -0.5000 
    115 CA        -3.8714  -19.6162  -55.4720 C.3       21 UNK         0.1400 
    116 CB        -3.4313  -18.8326  -56.7289 C.3       21 UNK        -0.1800 
    117 C         -4.5009  -18.7148  -54.3874 C.2       21 UNK         0.5000 
    118 O         -4.2138  -18.8847  -53.2011 O.2       21 UNK        -0.5000 
    119 N         -5.3982  -17.8209  -54.8278 N.am      22 UNK        -0.5000 
    120 CA        -6.1632  -16.7808  -54.1026 C.3       22 UNK         0.1400 
    121 C         -6.9566  -17.1716  -52.8157 C.2       22 UNK         0.5000 
    122 N         -6.7082  -18.3078  -52.1844 N.am      22 UNK        -0.7600 
    123 O         -7.8478  -16.4339  -52.4032 O.2       22 UNK        -0.5000 
    124 C124       -5.3828  -15.4450  -53.9398 C.3       23 UNK        -0.0398 
    125 S125       -3.8898  -15.5346  -52.8938 S.3       23 UNK        -0.2404 
    126 C126       -4.5112  -14.8446  -51.3308 C.3       23 UNK        -0.0205 
    127 H127        4.6304  -17.1796  -50.0301 H         1 UNK         0.0600 
    128 H128        6.1546  -16.3623  -49.6662 H         1 UNK         0.0600 
    129 H129        5.0297  -15.6575  -50.8319 H         1 UNK         0.0600 
    130 H130        3.8825  -13.9463  -49.9892 H         1 UNK         0.3000 
    131 H131        2.5080  -14.0998  -47.4583 H         1 UNK         0.0600 
    132 H132        1.5927  -11.8520  -48.1097 H         1 UNK         0.0800 
    133 H133        2.5867  -11.8816  -49.5447 H         1 UNK         0.0800 
    134 H134       -0.2026  -13.5521  -47.4872 H         1 UNK         0.0800 
    135 H135       -0.9954  -12.3730  -48.5081 H         1 UNK         0.0800 
    136 H136       -2.5238  -13.2122  -50.4032 H         1 UNK         0.1150 
    137 H137       -4.2959  -17.0697  -49.7873 H         1 UNK         0.1150 
    138 H138       -1.0041  -15.8093  -47.3479 H         1 UNK         0.1150 
    139 H139       -2.9657  -18.7085  -48.4515 H         1 UNK         0.0800 
    140 H140       -1.6632  -18.1606  -47.4372 H         1 UNK         0.0800 
    141 H141       -3.4172  -18.8769  -44.2191 H         1 UNK         0.0800 
    142 H142       -1.9197  -18.4876  -44.9930 H         1 UNK         0.0800 
    143 H143       -3.2945  -20.5281  -46.6013 H         1 UNK         0.0600 
    144 H144       -0.6651  -20.0255  -45.7596 H         1 UNK         0.3000 
    145 H145        1.0425  -22.2511  -45.7270 H         1 UNK         0.0600 
    146 H146        2.0490  -23.2986  -47.7632 H         1 UNK         0.0600 
    147 H147        0.6065  -24.1562  -47.2515 H         1 UNK         0.0600 
    148 H148        0.5330  -23.0644  -48.6299 H         1 UNK         0.0600 
    149 H149        1.9736  -20.4402  -46.5682 H         1 UNK         0.3000 
    150 H150        2.6466  -19.1665  -49.1529 H         1 UNK         0.0600 
    151 H151        0.7346  -18.1569  -50.3307 H         1 UNK         0.0600 
    152 H152        1.6706  -16.8935  -49.5464 H         1 UNK         0.0600 
    153 H153        0.1536  -17.4357  -48.8403 H         1 UNK         0.0600 
    154 H154        3.3904  -18.1492  -47.3475 H         1 UNK         0.3000 
    155 H155        3.6886  -17.5616  -45.3365 H         1 UNK         0.0600 
    156 H156        2.7592  -15.3083  -45.5805 H         1 UNK         0.0600 
    157 H157        3.0600  -15.6319  -43.8815 H         1 UNK         0.0600 
    158 H158        1.4135  -15.6825  -44.5238 H         1 UNK         0.0600 
    159 H159        1.9098  -17.7245  -43.1073 H         1 UNK         0.3000 
    160 H160        1.8966  -21.2020  -42.6390 H         1 UNK         0.0600 
    161 H161        3.8439  -19.2889  -41.2423 H         1 UNK         0.0600 
    162 H162        4.2812  -20.8098  -42.0117 H         1 UNK         0.0600 
    163 H163        3.2463  -20.8167  -40.5928 H         1 UNK         0.0600 
    164 H164        1.4204  -19.0010  -40.8573 H         1 UNK         0.3000 
    165 H165       -1.9019  -19.3898  -40.9784 H         1 UNK         0.0600 
    166 H166       -1.3248  -17.5913  -39.3616 H         1 UNK         0.0600 
    167 H167       -0.1588  -18.8973  -39.2959 H         1 UNK         0.0600 
    168 H168        0.2558  -17.3867  -40.1025 H         1 UNK         0.0600 
    169 H169       -2.7718  -17.7733  -42.1918 H         1 UNK         0.3000 
    170 H170       -2.0859  -16.0385  -44.4792 H         1 UNK         0.0600 
    171 H171       -4.0507  -16.6548  -43.0706 H         1 UNK         0.0600 
    172 H172       -3.6901  -15.3478  -41.9423 H         1 UNK         0.0600 
    173 H173       -4.2238  -14.9984  -43.5818 H         1 UNK         0.0600 
    174 H174       -0.8753  -14.1186  -42.7836 H         1 UNK         0.3000 
    175 H175       -1.1634  -11.5032  -45.1143 H         1 UNK         0.0600 
    176 H176       -1.8455  -10.0109  -43.2549 H         1 UNK         0.0600 
    177 H177       -3.2211  -10.9462  -43.8173 H         1 UNK         0.0600 
    178 H178       -2.4159  -11.3938  -42.3186 H         1 UNK         0.0600 
    179 H179        0.0329  -11.6006  -42.5141 H         1 UNK         0.3000 
    180 H180        2.5584  -11.3316  -42.8754 H         1 UNK         0.0600 
    181 H181        2.0484  -14.2905  -42.1659 H         1 UNK         0.0600 
    182 H182        1.5492  -12.8941  -41.2229 H         1 UNK         0.0600 
    183 H183        3.2544  -13.2782  -41.3751 H         1 UNK         0.0600 
    184 H184        3.1841  -13.4300  -44.7591 H         1 UNK         0.3000 
    185 H185        6.2113  -12.0430  -45.5984 H         1 UNK         0.0600 
    186 H186        7.1808  -13.6289  -43.9246 H         1 UNK         0.0600 
    187 H187        5.9917  -14.8481  -44.3698 H         1 UNK         0.0600 
    188 H188        7.2063  -14.3258  -45.5372 H         1 UNK         0.0600 
    189 H189        4.7809  -14.4056  -46.4629 H         1 UNK         0.3000 
    190 H190       -1.6952  -21.4370  -43.5898 H         1 UNK         0.3000 
    191 H191       -3.8799  -22.5773  -42.2103 H         1 UNK         0.0600 
    192 H192       -0.8951  -23.2806  -42.1532 H         1 UNK         0.0600 
    193 H193       -1.7019  -22.0725  -41.1539 H         1 UNK         0.0600 
    194 H194       -2.0706  -23.7752  -40.9398 H         1 UNK         0.0600 
    195 H195       -2.2524  -23.7769  -45.0399 H         1 UNK         0.3000 
    196 H196       -3.5109  -26.4753  -44.8001 H         1 UNK         0.0600 
    197 H197       -1.0045  -26.4567  -45.0615 H         1 UNK         0.0600 
    198 H198       -1.1825  -25.5539  -46.5647 H         1 UNK         0.0600 
    199 H199       -1.8157  -27.1893  -46.4350 H         1 UNK         0.0600 
    200 H200       -4.7487  -23.7984  -45.5409 H         1 UNK         0.3000 
    201 H201       -6.2537  -22.9462  -46.9049 H         1 UNK         0.0600 
    202 H202       -7.6958  -24.4316  -48.2476 H         1 UNK         0.0600 
    203 H203       -7.3718  -25.1715  -46.6885 H         1 UNK         0.0600 
    204 H204       -6.5335  -25.7438  -48.1295 H         1 UNK         0.0600 
    205 H205       -3.6864  -22.4361  -47.5605 H         1 UNK         0.3000 
    206 H206       -2.3672  -21.4717  -49.0598 H         1 UNK         0.0600 
    207 H207       -4.3961  -20.2384  -49.8529 H         1 UNK         0.0600 
    208 H208       -4.7035  -21.5004  -51.0400 H         1 UNK         0.0600 
    209 H209       -3.2508  -20.5245  -51.1483 H         1 UNK         0.0600 
    210 H210       -2.0425  -24.0513  -48.5894 H         1 UNK         0.3000 
    211 H211       -1.2362  -26.0408  -49.1807 H         1 UNK         0.0600 
    212 H212        0.6582  -24.7678  -50.1311 H         1 UNK         0.0600 
    213 H213        0.3352  -26.1626  -51.1354 H         1 UNK         0.0600 
    214 H214       -0.1876  -24.5694  -51.6625 H         1 UNK         0.0600 
    215 H215       -3.8245  -26.0545  -49.4462 H         1 UNK         0.3000 
    216 H216       -5.6947  -26.7616  -50.4111 H         1 UNK         0.0600 
    217 H217       -5.6094  -28.8979  -51.6583 H         1 UNK         0.0600 
    218 H218       -3.8836  -28.7097  -51.9381 H         1 UNK         0.0600 
    219 H219       -4.4949  -28.9490  -50.3018 H         1 UNK         0.0600 
    220 H220       -5.0092  -24.4541  -51.3914 H         1 UNK         0.3000 
    221 H221       -5.2850  -22.9024  -52.8793 H         1 UNK         0.0600 
    222 H222       -6.8294  -24.9031  -54.6035 H         1 UNK         0.0600 
    223 H223       -7.5079  -23.9848  -53.2587 H         1 UNK         0.0600 
    224 H224       -6.9241  -23.1512  -54.6881 H         1 UNK         0.0600 
    225 H225       -3.0240  -25.1425  -53.4239 H         1 UNK         0.3000 
    226 H226       -2.3501  -24.7429  -56.1836 H         1 UNK         0.0600 
    227 H227       -1.5678  -26.7001  -54.8250 H         1 UNK         0.0600 
    228 H228       -0.2395  -25.8478  -55.5978 H         1 UNK         0.0600 
    229 H229       -0.5376  -25.6208  -53.8822 H         1 UNK         0.0600 
    230 H230       -1.7072  -22.8415  -53.2696 H         1 UNK         0.3000 
    231 H231        0.2872  -21.1217  -54.5845 H         1 UNK         0.0600 
    232 H232        0.3168  -19.9467  -52.4356 H         1 UNK         0.0600 
    233 H233        0.4220  -21.6741  -52.1348 H         1 UNK         0.0600 
    234 H234       -1.0953  -20.8208  -51.8737 H         1 UNK         0.0600 
    235 H235       -2.9994  -21.4347  -54.8993 H         1 UNK         0.3000 
    236 H236       -4.6520  -20.3150  -55.7756 H         1 UNK         0.0600 
    237 H237       -2.9076  -19.4800  -57.4326 H         1 UNK         0.0600 
    238 H238       -4.2876  -18.4161  -57.2597 H         1 UNK         0.0600 
    239 H239       -2.7675  -18.0041  -56.4795 H         1 UNK         0.0600 
    240 H240       -5.5763  -17.8264  -55.8214 H         1 UNK         0.3000 
    241 H241       -6.9636  -16.5540  -54.8082 H         1 UNK         0.0600 
    242 H242       -7.2332  -18.5596  -51.3631 H         1 UNK         0.3800 
    243 H243       -5.8754  -18.8270  -52.4507 H         1 UNK         0.3800 
    244 H244       -5.0627  -15.1009  -54.9239 H         1 UNK         0.0800 
    245 H245       -6.0413  -14.6590  -53.5660 H         1 UNK         0.0800 
    246 H246       -5.4749  -15.2911  -51.0826 H         1 UNK         0.0800 
    247 H247       -4.6860  -13.7741  -51.4486 H         1 UNK         0.0800 
@<TRIPOS>BOND
     1    1    2 1    
     2    1  127 1    
     3    1  128 1    
     4    1  129 1    
     5    2    3 2    
     6    2    4 am   BACKBONE|DICT|INTERRES
     7    4    5 1    
     8    4  130 1    
     9    5    6 1    
    10    5   65 1    
    11    5  131 1    
    12    6    7 1    
    13    6  132 1    
    14    6  133 1    
    15    7    8 1    
    16    8    9 1    
    17    8  134 1    
    18    8  135 1    
    19    9   10 ar   
    20    9   14 ar   
    21   10   11 ar   
    22   10  136 1    
    23   11   12 ar   
    24   11  126 1    
    25   12   13 ar   
    26   12  137 1    
    27   13   14 ar   
    28   13   15 1    
    29   14  138 1    
    30   15   16 1    
    31   15  139 1    
    32   15  140 1    
    33   16   17 1    
    34   17   18 1    
    35   17  141 1    
    36   17  142 1    
    37   18   19 1    
    38   18   67 1    
    39   18  143 1    
    40   19   20 am   BACKBONE|DICT|INTERRES
    41   19  144 1    
    42   20   21 2    
    43   20   22 1    
    44   22   23 1    
    45   22   24 1    
    46   22  145 1    
    47   23  146 1    
    48   23  147 1    
    49   23  148 1    
    50   24   25 am   BACKBONE|DICT|INTERRES
    51   24  149 1    
    52   25   26 2    
    53   25   27 1    
    54   27   28 1    
    55   27   29 1    
    56   27  150 1    
    57   28  151 1    
    58   28  152 1    
    59   28  153 1    
    60   29   30 am   BACKBONE|DICT|INTERRES
    61   29  154 1    
    62   30   31 2    
    63   30   32 1    
    64   32   33 1    
    65   32   34 1    
    66   32  155 1    
    67   33  156 1    
    68   33  157 1    
    69   33  158 1    
    70   34   35 am   BACKBONE|DICT|INTERRES
    71   34  159 1    
    72   35   36 2    
    73   35   37 1    
    74   37   38 1    
    75   37   39 1    
    76   37  160 1    
    77   38  161 1    
    78   38  162 1    
    79   38  163 1    
    80   39   40 am   BACKBONE|DICT|INTERRES
    81   39  164 1    
    82   40   41 2    
    83   40   42 1    
    84   42   43 1    
    85   42   44 1    
    86   42  165 1    
    87   43  166 1    
    88   43  167 1    
    89   43  168 1    
    90   44   45 am   BACKBONE|DICT|INTERRES
    91   44  169 1    
    92   45   46 2    
    93   45   47 1    
    94   47   48 1    
    95   47   49 1    
    96   47  170 1    
    97   48  171 1    
    98   48  172 1    
    99   48  173 1    
   100   49   50 am   BACKBONE|DICT|INTERRES
   101   49  174 1    
   102   50   51 2    
   103   50   52 1    
   104   52   53 1    
   105   52   54 1    
   106   52  175 1    
   107   53  176 1    
   108   53  177 1    
   109   53  178 1    
   110   54   55 am   BACKBONE|DICT|INTERRES
   111   54  179 1    
   112   55   56 2    
   113   55   57 1    
   114   57   58 1    
   115   57   59 1    
   116   57  180 1    
   117   58  181 1    
   118   58  182 1    
   119   58  183 1    
   120   59   60 am   BACKBONE|DICT|INTERRES
   121   59  184 1    
   122   60   61 2    
   123   60   62 1    
   124   62   63 1    
   125   62   64 1    
   126   62  185 1    
   127   63  186 1    
   128   63  187 1    
   129   63  188 1    
   130   64   65 am   BACKBONE|DICT|INTERRES
   131   64  189 1    
   132   65   66 2    
   133   67   68 2    
   134   67   69 am   BACKBONE|DICT|INTERRES
   135   69   70 1    
   136   69  190 1    
   137   70   71 1    
   138   70   72 1    
   139   70  191 1    
   140   71  192 1    
   141   71  193 1    
   142   71  194 1    
   143   72   73 2    
   144   72   74 am   BACKBONE|DICT|INTERRES
   145   74   75 1    
   146   74  195 1    
   147   75   76 1    
   148   75   77 1    
   149   75  196 1    
   150   76  197 1    
   151   76  198 1    
   152   76  199 1    
   153   77   78 2    
   154   77   79 am   BACKBONE|DICT|INTERRES
   155   79   80 1    
   156   79  200 1    
   157   80   81 1    
   158   80   82 1    
   159   80  201 1    
   160   81  202 1    
   161   81  203 1    
   162   81  204 1    
   163   82   83 2    
   164   82   84 am   BACKBONE|DICT|INTERRES
   165   84   85 1    
   166   84  205 1    
   167   85   86 1    
   168   85   87 1    
   169   85  206 1    
   170   86  207 1    
   171   86  208 1    
   172   86  209 1    
   173   87   88 2    
   174   87   89 am   BACKBONE|DICT|INTERRES
   175   89   90 1    
   176   89  210 1    
   177   90   91 1    
   178   90   92 1    
   179   90  211 1    
   180   91  212 1    
   181   91  213 1    
   182   91  214 1    
   183   92   93 2    
   184   92   94 am   BACKBONE|DICT|INTERRES
   185   94   95 1    
   186   94  215 1    
   187   95   96 1    
   188   95   97 1    
   189   95  216 1    
   190   96  217 1    
   191   96  218 1    
   192   96  219 1    
   193   97   98 2    
   194   97   99 am   BACKBONE|DICT|INTERRES
   195   99  100 1    
   196   99  220 1    
   197  100  101 1    
   198  100  102 1    
   199  100  221 1    
   200  101  222 1    
   201  101  223 1    
   202  101  224 1    
   203  102  103 2    
   204  102  104 am   BACKBONE|DICT|INTERRES
   205  104  105 1    
   206  104  225 1    
   207  105  106 1    
   208  105  107 1    
   209  105  226 1    
   210  106  227 1    
   211  106  228 1    
   212  106  229 1    
   213  107  108 2    
   214  107  109 am   BACKBONE|DICT|INTERRES
   215  109  110 1    
   216  109  230 1    
   217  110  111 1    
   218  110  112 1    
   219  110  231 1    
   220  111  232 1    
   221  111  233 1    
   222  111  234 1    
   223  112  113 2    
   224  112  114 am   BACKBONE|DICT|INTERRES
   225  114  115 1    
   226  114  235 1    
   227  115  116 1    
   228  115  117 1    
   229  115  236 1    
   230  116  237 1    
   231  116  238 1    
   232  116  239 1    
   233  117  118 2    
   234  117  119 am   BACKBONE|DICT|INTERRES
   235  119  120 1    
   236  119  240 1    
   237  120  121 1    
   238  120  124 1    
   239  120  241 1    
   240  121  122 am   BACKBONE|DICT|INTERRES
   241  121  123 2    
   242  122  242 1    
   243  122  243 1    
   244  124  125 1    
   245  124  244 1    
   246  124  245 1    
   247  125  126 1    
   248  126  246 1    
   249  126  247 1    
@<TRIPOS>SUBSTRUCTURE
     1 UNK         1 GROUP             0       ****    0 ROOT    
