@<TRIPOS>MOLECULE
3R540
247   249    1
SMALL
USER_CHARGES


@<TRIPOS>ATOM
      1 CA         -3.5141  -11.5852  -46.3155 C.3       0 UNK        -0.1800 
      2 C          -2.3460  -11.6437  -47.2892 C.2       0 UNK         0.5000 
      3 O          -1.8959  -10.6054  -47.7751 O.2       0 UNK        -0.5000 
      4 N          -1.8467  -12.8529  -47.5705 N.am      1 UNK        -0.5000 
      5 CA         -0.7068  -13.1503  -48.4455 C.3       1 UNK         0.1400 
      6 C6         -0.7586  -14.6123  -48.9676 C.3       23 UNK        -0.0398 
      7 S7         -1.0186  -15.8777  -47.6713 S.3       23 UNK        -0.2404 
      8 C8         -1.8649  -17.1983  -48.5911 C.3       23 UNK        -0.0205 
      9 C9         -1.0143  -17.7404  -49.7295 C.ar      23 UNK        -0.0193 
     10 C10        -1.2894  -17.3757  -51.0493 C.ar      23 UNK        -0.1150 
     11 C11        -0.5087  -17.8638  -52.1017 C.ar      23 UNK        -0.0193 
     12 C12         0.5738  -18.7031  -51.8171 C.ar      23 UNK        -0.1150 
     13 C13         0.8686  -19.0662  -50.4989 C.ar      23 UNK        -0.0193 
     14 C14         0.0593  -18.5936  -49.4632 C.ar      23 UNK        -0.1150 
     15 C15         2.0953  -19.9160  -50.1937 C.3       23 UNK        -0.0205 
     16 S16         1.8628  -21.6658  -50.6312 S.3       23 UNK        -0.2404 
     17 C17         0.9239  -22.3154  -49.2080 C.3       23 UNK        -0.0398 
     18 CA          1.7297  -23.3877  -48.4206 C.3       11 UNK         0.1400 
     19 N           2.3610  -22.8162  -47.2238 N.am      11 UNK        -0.5000 
     20 C           3.4281  -23.3284  -46.5960 C.2       10 UNK         0.5000 
     21 O           4.0661  -24.2958  -47.0121 O.2       10 UNK        -0.5000 
     22 CA          3.8186  -22.6838  -45.2503 C.3       10 UNK         0.1400 
     23 CB          4.7626  -21.4906  -45.4620 C.3       10 UNK        -0.1800 
     24 N           2.6552  -22.2657  -44.4614 N.am      10 UNK        -0.5000 
     25 C           1.7661  -23.1137  -43.9227 C.2       9 UNK         0.5000 
     26 O           1.8639  -24.3382  -43.9971 O.2       9 UNK        -0.5000 
     27 CA          0.5341  -22.5059  -43.2264 C.3       9 UNK         0.1400 
     28 CB          0.8524  -22.1752  -41.7611 C.3       9 UNK        -0.1800 
     29 N           0.0085  -21.3175  -43.9001 N.am      9 UNK        -0.5000 
     30 C          -0.4652  -21.2987  -45.1549 C.2       8 UNK         0.5000 
     31 O          -0.5155  -22.2870  -45.8828 O.2       8 UNK        -0.5000 
     32 CA         -0.8678  -19.9322  -45.7315 C.3       8 UNK         0.1400 
     33 CB         -2.2194  -19.4732  -45.1714 C.3       8 UNK        -0.1800 
     34 N           0.1505  -18.9136  -45.4846 N.am      8 UNK        -0.5000 
     35 C           1.4245  -18.9974  -45.8927 C.2       7 UNK         0.5000 
     36 O           1.8628  -19.9213  -46.5779 O.2       7 UNK        -0.5000 
     37 CA          2.3785  -17.8961  -45.4097 C.3       7 UNK         0.1400 
     38 CB          2.2554  -16.6352  -46.2775 C.3       7 UNK        -0.1800 
     39 N           2.1520  -17.5720  -44.0003 N.am      7 UNK        -0.5000 
     40 C           2.4910  -18.3807  -42.9860 C.2       6 UNK         0.5000 
     41 O           3.0886  -19.4468  -43.1355 O.2       6 UNK        -0.5000 
     42 CA          2.0588  -17.9476  -41.5726 C.3       6 UNK         0.1400 
     43 CB          3.0804  -16.9818  -40.9573 C.3       6 UNK        -0.1800 
     44 N           0.7309  -17.3324  -41.5512 N.am      6 UNK        -0.5000 
     45 C          -0.4084  -18.0132  -41.7408 C.2       5 UNK         0.5000 
     46 O          -0.4513  -19.2263  -41.9381 O.2       5 UNK        -0.5000 
     47 CA         -1.7207  -17.2054  -41.7592 C.3       5 UNK         0.1400 
     48 CB         -2.3011  -17.0861  -40.3426 C.3       5 UNK        -0.1800 
     49 N          -1.5942  -15.8691  -42.3447 N.am      5 UNK        -0.5000 
     50 C          -1.1379  -15.6076  -43.5768 C.2       4 UNK         0.5000 
     51 O          -0.7344  -16.4769  -44.3475 O.2       4 UNK        -0.5000 
     52 CA         -1.0949  -14.1373  -44.0296 C.3       4 UNK         0.1400 
     53 CB         -1.8682  -13.1645  -43.1128 C.3       4 UNK        -0.1800 
     54 N           0.2780  -13.6686  -44.2254 N.am      4 UNK        -0.5000 
     55 C           1.2749  -13.6399  -43.3266 C.2       3 UNK         0.5000 
     56 O           1.1835  -14.0983  -42.1866 O.2       3 UNK        -0.5000 
     57 CA          2.6001  -12.9856  -43.7723 C.3       3 UNK         0.1400 
     58 CB          3.7645  -13.9865  -43.7211 C.3       3 UNK        -0.1800 
     59 N           2.5147  -12.4154  -45.1202 N.am      3 UNK        -0.5000 
     60 C           2.1027  -11.1725  -45.3997 C.2       2 UNK         0.5000 
     61 O           1.8037  -10.3417  -44.5414 O.2       2 UNK        -0.5000 
     62 CA          1.9669  -10.8039  -46.8884 C.3       2 UNK         0.1400 
     63 CB          3.2785  -11.0191  -47.6715 C.3       2 UNK        -0.1800 
     64 N           0.8283  -11.4672  -47.5346 N.am      2 UNK        -0.5000 
     65 C           0.6410  -12.7706  -47.7836 C.2       1 UNK         0.5000 
     66 O           1.4594  -13.6399  -47.4836 O.2       1 UNK        -0.5000 
     67 C           0.8449  -24.6195  -48.1029 C.2       11 UNK         0.5000 
     68 O           0.4224  -25.3030  -49.0363 O.2       11 UNK        -0.5000 
     69 N           0.5614  -24.8686  -46.8156 N.am      12 UNK        -0.5000 
     70 CA         -0.3756  -25.8603  -46.2754 C.3       12 UNK         0.1400 
     71 CB          0.0834  -27.2983  -46.5949 C.3       12 UNK        -0.1800 
     72 C          -1.8441  -25.5831  -46.6720 C.2       12 UNK         0.5000 
     73 O          -2.6338  -26.5178  -46.8197 O.2       12 UNK        -0.5000 
     74 N          -2.1857  -24.2981  -46.8233 N.am      13 UNK        -0.5000 
     75 CA         -3.5334  -23.7982  -47.0684 C.3       13 UNK         0.1400 
     76 CB         -3.4393  -22.5425  -47.9491 C.3       13 UNK        -0.1800 
     77 C          -4.2168  -23.4747  -45.7290 C.2       13 UNK         0.5000 
     78 O          -3.5491  -23.0738  -44.7715 O.2       13 UNK        -0.5000 
     79 N          -5.5445  -23.6304  -45.6848 N.am      14 UNK        -0.5000 
     80 CA         -6.3806  -23.4533  -44.4944 C.3       14 UNK         0.1400 
     81 CB         -7.6698  -24.2752  -44.6783 C.3       14 UNK        -0.1800 
     82 C          -6.6620  -21.9679  -44.1780 C.2       14 UNK         0.5000 
     83 O          -7.8204  -21.5477  -44.1788 O.2       14 UNK        -0.5000 
     84 N          -5.5897  -21.2029  -43.9221 N.am      15 UNK        -0.5000 
     85 CA         -5.5767  -19.7721  -43.5825 C.3       15 UNK         0.1400 
     86 CB         -6.1770  -19.5422  -42.1800 C.3       15 UNK        -0.1800 
     87 C          -6.2252  -18.8882  -44.6717 C.2       15 UNK         0.5000 
     88 O          -6.9674  -17.9545  -44.3610 O.2       15 UNK        -0.5000 
     89 N          -5.9422  -19.2185  -45.9354 N.am      16 UNK        -0.5000 
     90 CA         -6.4929  -18.5935  -47.1322 C.3       16 UNK         0.1400 
     91 CB         -7.8572  -19.2344  -47.4548 C.3       16 UNK        -0.1800 
     92 C          -5.4940  -18.7633  -48.2880 C.2       16 UNK         0.5000 
     93 O          -4.4257  -19.3485  -48.0918 O.2       16 UNK        -0.5000 
     94 N          -5.8591  -18.2485  -49.4701 N.am      17 UNK        -0.5000 
     95 CA         -5.1041  -18.3765  -50.7182 C.3       17 UNK         0.1400 
     96 CB         -5.8364  -17.6080  -51.8289 C.3       17 UNK        -0.1800 
     97 C          -4.8904  -19.8462  -51.1256 C.2       17 UNK         0.5000 
     98 O          -5.8379  -20.6357  -51.0934 O.2       17 UNK        -0.5000 
     99 N          -3.6513  -20.1802  -51.4962 N.am      18 UNK        -0.5000 
    100 CA        -3.2440  -21.5174  -51.9037 C.3       18 UNK         0.1400 
    101 CB        -1.7334  -21.6494  -51.6748 C.3       18 UNK        -0.1800 
    102 C         -3.6178  -21.7498  -53.3744 C.2       18 UNK         0.5000 
    103 O         -2.9764  -21.1811  -54.2580 O.2       18 UNK        -0.5000 
    104 N         -4.6395  -22.5833  -53.6103 N.am      19 UNK        -0.5000 
    105 CA        -5.2525  -22.8492  -54.9192 C.3       19 UNK         0.1400 
    106 CB        -6.3985  -23.8555  -54.7303 C.3       19 UNK        -0.1800 
    107 C         -4.2880  -23.3407  -56.0200 C.2       19 UNK         0.5000 
    108 O         -4.5640  -23.1419  -57.2037 O.2       19 UNK        -0.5000 
    109 N         -3.1792  -23.9732  -55.6161 N.am      20 UNK        -0.5000 
    110 CA        -2.1146  -24.4340  -56.5059 C.3       20 UNK         0.1400 
    111 CB        -1.3221  -25.5384  -55.7886 C.3       20 UNK        -0.1800 
    112 C         -1.1647  -23.3077  -56.9642 C.2       20 UNK         0.5000 
    113 O         -0.4752  -23.4882  -57.9691 O.2       20 UNK        -0.5000 
    114 N         -1.1160  -22.1923  -56.2227 N.am      21 UNK        -0.5000 
    115 CA        -0.1834  -21.0852  -56.4416 C.3       21 UNK         0.1400 
    116 CB         0.5798  -20.8212  -55.1338 C.3       21 UNK        -0.1800 
    117 C         -0.8870  -19.7998  -56.9082 C.2       21 UNK         0.5000 
    118 O         -0.2766  -19.0160  -57.6368 O.2       21 UNK        -0.5000 
    119 N         -2.1360  -19.5877  -56.4835 N.am      22 UNK        -0.5000 
    120 CA        -2.9127  -18.3657  -56.7246 C.3       22 UNK         0.1400 
    121 C         -4.4441  -18.6261  -56.7294 C.2       22 UNK         0.5000 
    122 N         -5.2443  -17.6478  -57.1333 N.am      22 UNK        -0.7600 
    123 O         -4.9254  -19.7014  -56.3846 O.2       22 UNK        -0.5000 
    124 C124       -2.4962  -17.2097  -55.7707 C.3       23 UNK        -0.0398 
    125 S125       -2.5494  -17.6518  -53.9959 S.3       23 UNK        -0.2404 
    126 C126       -0.7974  -17.4467  -53.5384 C.3       23 UNK        -0.0205 
    127 H127       -4.3900  -11.1607  -46.8058 H         1 UNK         0.0600 
    128 H128       -3.2601  -10.9550  -45.4633 H         1 UNK         0.0600 
    129 H129       -3.7792  -12.5737  -45.9394 H         1 UNK         0.0600 
    130 H130       -2.2631  -13.6697  -47.1467 H         1 UNK         0.3000 
    131 H131       -0.7923  -12.5091  -49.3256 H         1 UNK         0.0600 
    132 H132        0.1448  -14.8622  -49.5269 H         1 UNK         0.0800 
    133 H133       -1.5766  -14.6921  -49.6843 H         1 UNK         0.0800 
    134 H134       -2.1010  -18.0102  -47.9037 H         1 UNK         0.0800 
    135 H135       -2.8196  -16.8209  -48.9575 H         1 UNK         0.0800 
    136 H136       -2.1079  -16.7022  -51.2604 H         1 UNK         0.1150 
    137 H137        1.2015  -19.0655  -52.6189 H         1 UNK         0.1150 
    138 H138        0.2829  -18.8615  -48.4437 H         1 UNK         0.1150 
    139 H139        2.9406  -19.5279  -50.7635 H         1 UNK         0.0800 
    140 H140        2.3809  -19.8339  -49.1447 H         1 UNK         0.0800 
    141 H141        0.5985  -21.5014  -48.5584 H         1 UNK         0.0800 
    142 H142        0.0058  -22.7317  -49.6226 H         1 UNK         0.0800 
    143 H143        2.5239  -23.7727  -49.0640 H         1 UNK         0.0600 
    144 H144        1.9299  -21.9823  -46.8378 H         1 UNK         0.3000 
    145 H145        4.3580  -23.4359  -44.6706 H         1 UNK         0.0600 
    146 H146        5.0719  -21.0584  -44.5101 H         1 UNK         0.0600 
    147 H147        4.2967  -20.7018  -46.0515 H         1 UNK         0.0600 
    148 H148        5.6665  -21.7995  -45.9882 H         1 UNK         0.0600 
    149 H149        2.5228  -21.2696  -44.3350 H         1 UNK         0.3000 
    150 H150       -0.2544  -23.2614  -43.2391 H         1 UNK         0.0600 
    151 H151        1.2489  -23.0471  -41.2392 H         1 UNK         0.0600 
    152 H152       -0.0427  -21.8575  -41.2262 H         1 UNK         0.0600 
    153 H153        1.5921  -21.3781  -41.6805 H         1 UNK         0.0600 
    154 H154       -0.0159  -20.4631  -43.3503 H         1 UNK         0.3000 
    155 H155       -0.9710  -20.0438  -46.8122 H         1 UNK         0.0600 
    156 H156       -3.0017  -20.1891  -45.4245 H         1 UNK         0.0600 
    157 H157       -2.5151  -18.5070  -45.5803 H         1 UNK         0.0600 
    158 H158       -2.1905  -19.3836  -44.0866 H         1 UNK         0.0600 
    159 H159       -0.1436  -18.0830  -44.9741 H         1 UNK         0.3000 
    160 H160        3.3954  -18.2782  -45.5220 H         1 UNK         0.0600 
    161 H161        1.3873  -16.0373  -46.0021 H         1 UNK         0.0600 
    162 H162        2.1565  -16.8861  -47.3348 H         1 UNK         0.0600 
    163 H163        3.1380  -16.0046  -46.1869 H         1 UNK         0.0600 
    164 H164        1.5811  -16.7621  -43.8052 H         1 UNK         0.3000 
    165 H165        2.0296  -18.8444  -40.9498 H         1 UNK         0.0600 
    166 H166        2.8349  -16.7589  -39.9189 H         1 UNK         0.0600 
    167 H167        4.0833  -17.4106  -40.9702 H         1 UNK         0.0600 
    168 H168        3.1173  -16.0389  -41.5007 H         1 UNK         0.0600 
    169 H169        0.6889  -16.3274  -41.4379 H         1 UNK         0.3000 
    170 H170       -2.4363  -17.7588  -42.3696 H         1 UNK         0.0600 
    171 H171       -2.4280  -18.0699  -39.8885 H         1 UNK         0.0600 
    172 H172       -1.6504  -16.5037  -39.6891 H         1 UNK         0.0600 
    173 H173       -3.2807  -16.6078  -40.3559 H         1 UNK         0.0600 
    174 H174       -1.8730  -15.0928  -41.7629 H         1 UNK         0.3000 
    175 H175       -1.5722  -14.1149  -45.0090 H         1 UNK         0.0600 
    176 H176       -1.4331  -13.1010  -42.1148 H         1 UNK         0.0600 
    177 H177       -1.8694  -12.1582  -43.5320 H         1 UNK         0.0600 
    178 H178       -2.9110  -13.4665  -43.0065 H         1 UNK         0.0600 
    179 H179        0.4953  -13.3336  -45.1525 H         1 UNK         0.3000 
    180 H180        2.8208  -12.1873  -43.0608 H         1 UNK         0.0600 
    181 H181        3.9919  -14.2590  -42.6909 H         1 UNK         0.0600 
    182 H182        4.6738  -13.5611  -44.1459 H         1 UNK         0.0600 
    183 H183        3.5378  -14.9044  -44.2597 H         1 UNK         0.0600 
    184 H184        2.6513  -13.0506  -45.8998 H         1 UNK         0.3000 
    185 H185        1.7455   -9.7360  -46.9253 H         1 UNK         0.0600 
    186 H186        4.0994  -10.4696  -47.2092 H         1 UNK         0.0600 
    187 H187        3.5743  -12.0673  -47.7143 H         1 UNK         0.0600 
    188 H188        3.1847  -10.6593  -48.6960 H         1 UNK         0.0600 
    189 H189        0.0414  -10.8589  -47.7457 H         1 UNK         0.3000 
    190 H190        0.9460  -24.2318  -46.1303 H         1 UNK         0.3000 
    191 H191       -0.3368  -25.7416  -45.1918 H         1 UNK         0.0600 
    192 H192       -0.5182  -28.0288  -46.0530 H         1 UNK         0.0600 
    193 H193        1.1218  -27.4539  -46.3021 H         1 UNK         0.0600 
    194 H194       -0.0052  -27.5283  -47.6568 H         1 UNK         0.0600 
    195 H195       -1.4974  -23.5888  -46.5736 H         1 UNK         0.3000 
    196 H196       -4.1177  -24.5533  -47.5984 H         1 UNK         0.0600 
    197 H197       -2.8925  -21.7393  -47.4543 H         1 UNK         0.0600 
    198 H198       -2.9307  -22.7585  -48.8884 H         1 UNK         0.0600 
    199 H199       -4.4303  -22.1603  -48.1971 H         1 UNK         0.0600 
    200 H200       -6.0285  -23.9205  -46.5222 H         1 UNK         0.3000 
    201 H201       -5.8519  -23.8664  -43.6325 H         1 UNK         0.0600 
    202 H202       -8.3082  -24.2056  -43.7965 H         1 UNK         0.0600 
    203 H203       -7.4458  -25.3313  -44.8302 H         1 UNK         0.0600 
    204 H204       -8.2508  -23.9289  -45.5340 H         1 UNK         0.0600 
    205 H205       -4.6834  -21.6576  -43.9905 H         1 UNK         0.3000 
    206 H206       -4.5303  -19.4739  -43.5327 H         1 UNK         0.0600 
    207 H207       -5.6802  -20.1612  -41.4329 H         1 UNK         0.0600 
    208 H208       -6.0583  -18.5036  -41.8691 H         1 UNK         0.0600 
    209 H209       -7.2424  -19.7726  -42.1523 H         1 UNK         0.0600 
    210 H210       -5.2675  -19.9474  -46.1250 H         1 UNK         0.3000 
    211 H211       -6.6205  -17.5231  -46.9589 H         1 UNK         0.0600 
    212 H212       -7.7550  -20.2969  -47.6800 H         1 UNK         0.0600 
    213 H213       -8.3311  -18.7588  -48.3137 H         1 UNK         0.0600 
    214 H214       -8.5473  -19.1387  -46.6162 H         1 UNK         0.0600 
    215 H215       -6.7614  -17.8033  -49.5452 H         1 UNK         0.3000 
    216 H216       -4.1303  -17.9115  -50.5665 H         1 UNK         0.0600 
    217 H217       -5.9099  -16.5463  -51.5930 H         1 UNK         0.0600 
    218 H218       -5.3082  -17.6931  -52.7790 H         1 UNK         0.0600 
    219 H219       -6.8461  -17.9905  -51.9833 H         1 UNK         0.0600 
    220 H220       -2.9389  -19.4661  -51.5525 H         1 UNK         0.3000 
    221 H221       -3.7469  -22.2564  -51.2762 H         1 UNK         0.0600 
    222 H222       -1.3888  -22.6646  -51.8736 H         1 UNK         0.0600 
    223 H223       -1.1637  -20.9744  -52.3124 H         1 UNK         0.0600 
    224 H224       -1.4836  -21.4046  -50.6436 H         1 UNK         0.0600 
    225 H225       -5.1124  -22.9909  -52.8165 H         1 UNK         0.3000 
    226 H226       -5.6864  -21.9111  -55.2665 H         1 UNK         0.0600 
    227 H227       -7.1504  -23.4735  -54.0394 H         1 UNK         0.0600 
    228 H228       -6.9030  -24.0570  -55.6763 H         1 UNK         0.0600 
    229 H229       -6.0362  -24.8081  -54.3418 H         1 UNK         0.0600 
    230 H230       -3.0356  -24.1030  -54.6257 H         1 UNK         0.3000 
    231 H231       -2.5664  -24.8681  -57.4005 H         1 UNK         0.0600 
    232 H232       -0.5352  -25.9357  -56.4311 H         1 UNK         0.0600 
    233 H233       -1.9675  -26.3731  -55.5146 H         1 UNK         0.0600 
    234 H234       -0.8470  -25.1671  -54.8796 H         1 UNK         0.0600 
    235 H235       -1.7639  -22.0818  -55.4486 H         1 UNK         0.3000 
    236 H236        0.5504  -21.3472  -57.2064 H         1 UNK         0.0600 
    237 H237        1.1257  -21.7066  -54.8079 H         1 UNK         0.0600 
    238 H238        1.3063  -20.0174  -55.2584 H         1 UNK         0.0600 
    239 H239       -0.0969  -20.5312  -54.3303 H         1 UNK         0.0600 
    240 H240       -2.5786  -20.2489  -55.8496 H         1 UNK         0.3000 
    241 H241       -2.6917  -18.0464  -57.7449 H         1 UNK         0.0600 
    242 H242       -4.8861  -16.7570  -57.4405 H         1 UNK         0.3800 
    243 H243       -6.2394  -17.8089  -57.1435 H         1 UNK         0.3800 
    244 H244       -3.1229  -16.3302  -55.9232 H         1 UNK         0.0800 
    245 H245       -1.4876  -16.8847  -56.0282 H         1 UNK         0.0800 
    246 H246       -0.5139  -16.4010  -53.6637 H         1 UNK         0.0800 
    247 H247       -0.1845  -18.0228  -54.2326 H         1 UNK         0.0800 
@<TRIPOS>BOND
     1    1    2 1    
     2    1  127 1    
     3    1  128 1    
     4    1  129 1    
     5    2    3 2    
     6    2    4 am   BACKBONE|DICT|INTERRES
     7    4    5 1    
     8    4  130 1    
     9    5    6 1    
    10    5   65 1    
    11    5  131 1    
    12    6    7 1    
    13    6  132 1    
    14    6  133 1    
    15    7    8 1    
    16    8    9 1    
    17    8  134 1    
    18    8  135 1    
    19    9   10 ar   
    20    9   14 ar   
    21   10   11 ar   
    22   10  136 1    
    23   11   12 ar   
    24   11  126 1    
    25   12   13 ar   
    26   12  137 1    
    27   13   14 ar   
    28   13   15 1    
    29   14  138 1    
    30   15   16 1    
    31   15  139 1    
    32   15  140 1    
    33   16   17 1    
    34   17   18 1    
    35   17  141 1    
    36   17  142 1    
    37   18   19 1    
    38   18   67 1    
    39   18  143 1    
    40   19   20 am   BACKBONE|DICT|INTERRES
    41   19  144 1    
    42   20   21 2    
    43   20   22 1    
    44   22   23 1    
    45   22   24 1    
    46   22  145 1    
    47   23  146 1    
    48   23  147 1    
    49   23  148 1    
    50   24   25 am   BACKBONE|DICT|INTERRES
    51   24  149 1    
    52   25   26 2    
    53   25   27 1    
    54   27   28 1    
    55   27   29 1    
    56   27  150 1    
    57   28  151 1    
    58   28  152 1    
    59   28  153 1    
    60   29   30 am   BACKBONE|DICT|INTERRES
    61   29  154 1    
    62   30   31 2    
    63   30   32 1    
    64   32   33 1    
    65   32   34 1    
    66   32  155 1    
    67   33  156 1    
    68   33  157 1    
    69   33  158 1    
    70   34   35 am   BACKBONE|DICT|INTERRES
    71   34  159 1    
    72   35   36 2    
    73   35   37 1    
    74   37   38 1    
    75   37   39 1    
    76   37  160 1    
    77   38  161 1    
    78   38  162 1    
    79   38  163 1    
    80   39   40 am   BACKBONE|DICT|INTERRES
    81   39  164 1    
    82   40   41 2    
    83   40   42 1    
    84   42   43 1    
    85   42   44 1    
    86   42  165 1    
    87   43  166 1    
    88   43  167 1    
    89   43  168 1    
    90   44   45 am   BACKBONE|DICT|INTERRES
    91   44  169 1    
    92   45   46 2    
    93   45   47 1    
    94   47   48 1    
    95   47   49 1    
    96   47  170 1    
    97   48  171 1    
    98   48  172 1    
    99   48  173 1    
   100   49   50 am   BACKBONE|DICT|INTERRES
   101   49  174 1    
   102   50   51 2    
   103   50   52 1    
   104   52   53 1    
   105   52   54 1    
   106   52  175 1    
   107   53  176 1    
   108   53  177 1    
   109   53  178 1    
   110   54   55 am   BACKBONE|DICT|INTERRES
   111   54  179 1    
   112   55   56 2    
   113   55   57 1    
   114   57   58 1    
   115   57   59 1    
   116   57  180 1    
   117   58  181 1    
   118   58  182 1    
   119   58  183 1    
   120   59   60 am   BACKBONE|DICT|INTERRES
   121   59  184 1    
   122   60   61 2    
   123   60   62 1    
   124   62   63 1    
   125   62   64 1    
   126   62  185 1    
   127   63  186 1    
   128   63  187 1    
   129   63  188 1    
   130   64   65 am   BACKBONE|DICT|INTERRES
   131   64  189 1    
   132   65   66 2    
   133   67   68 2    
   134   67   69 am   BACKBONE|DICT|INTERRES
   135   69   70 1    
   136   69  190 1    
   137   70   71 1    
   138   70   72 1    
   139   70  191 1    
   140   71  192 1    
   141   71  193 1    
   142   71  194 1    
   143   72   73 2    
   144   72   74 am   BACKBONE|DICT|INTERRES
   145   74   75 1    
   146   74  195 1    
   147   75   76 1    
   148   75   77 1    
   149   75  196 1    
   150   76  197 1    
   151   76  198 1    
   152   76  199 1    
   153   77   78 2    
   154   77   79 am   BACKBONE|DICT|INTERRES
   155   79   80 1    
   156   79  200 1    
   157   80   81 1    
   158   80   82 1    
   159   80  201 1    
   160   81  202 1    
   161   81  203 1    
   162   81  204 1    
   163   82   83 2    
   164   82   84 am   BACKBONE|DICT|INTERRES
   165   84   85 1    
   166   84  205 1    
   167   85   86 1    
   168   85   87 1    
   169   85  206 1    
   170   86  207 1    
   171   86  208 1    
   172   86  209 1    
   173   87   88 2    
   174   87   89 am   BACKBONE|DICT|INTERRES
   175   89   90 1    
   176   89  210 1    
   177   90   91 1    
   178   90   92 1    
   179   90  211 1    
   180   91  212 1    
   181   91  213 1    
   182   91  214 1    
   183   92   93 2    
   184   92   94 am   BACKBONE|DICT|INTERRES
   185   94   95 1    
   186   94  215 1    
   187   95   96 1    
   188   95   97 1    
   189   95  216 1    
   190   96  217 1    
   191   96  218 1    
   192   96  219 1    
   193   97   98 2    
   194   97   99 am   BACKBONE|DICT|INTERRES
   195   99  100 1    
   196   99  220 1    
   197  100  101 1    
   198  100  102 1    
   199  100  221 1    
   200  101  222 1    
   201  101  223 1    
   202  101  224 1    
   203  102  103 2    
   204  102  104 am   BACKBONE|DICT|INTERRES
   205  104  105 1    
   206  104  225 1    
   207  105  106 1    
   208  105  107 1    
   209  105  226 1    
   210  106  227 1    
   211  106  228 1    
   212  106  229 1    
   213  107  108 2    
   214  107  109 am   BACKBONE|DICT|INTERRES
   215  109  110 1    
   216  109  230 1    
   217  110  111 1    
   218  110  112 1    
   219  110  231 1    
   220  111  232 1    
   221  111  233 1    
   222  111  234 1    
   223  112  113 2    
   224  112  114 am   BACKBONE|DICT|INTERRES
   225  114  115 1    
   226  114  235 1    
   227  115  116 1    
   228  115  117 1    
   229  115  236 1    
   230  116  237 1    
   231  116  238 1    
   232  116  239 1    
   233  117  118 2    
   234  117  119 am   BACKBONE|DICT|INTERRES
   235  119  120 1    
   236  119  240 1    
   237  120  121 1    
   238  120  124 1    
   239  120  241 1    
   240  121  122 am   BACKBONE|DICT|INTERRES
   241  121  123 2    
   242  122  242 1    
   243  122  243 1    
   244  124  125 1    
   245  124  244 1    
   246  124  245 1    
   247  125  126 1    
   248  126  246 1    
   249  126  247 1    
@<TRIPOS>SUBSTRUCTURE
     1 UNK         1 GROUP             0       ****    0 ROOT    
