@<TRIPOS>MOLECULE
3R540
247   249    1
SMALL
USER_CHARGES


@<TRIPOS>ATOM
      1 CA          1.9814  -13.8022  -51.2669 C.3       0 UNK        -0.1800 
      2 C           2.1231  -13.4716  -49.7884 C.2       0 UNK         0.5000 
      3 O           1.3511  -12.6729  -49.2583 O.2       0 UNK        -0.5000 
      4 N           3.0898  -14.1051  -49.1095 N.am      1 UNK        -0.5000 
      5 CA          3.3908  -13.9330  -47.6794 C.3       1 UNK         0.1400 
      6 C6          4.7472  -14.5787  -47.2915 C.3       23 UNK        -0.0398 
      7 S7          4.7706  -16.4057  -47.2985 S.3       23 UNK        -0.2404 
      8 C8          5.2261  -16.8034  -49.0150 C.3       23 UNK        -0.0205 
      9 C9          4.3784  -17.9557  -49.5297 C.ar      23 UNK        -0.0193 
     10 C10         3.0430  -17.7391  -49.8805 C.ar      23 UNK        -0.1150 
     11 C11         2.2414  -18.7964  -50.3149 C.ar      23 UNK        -0.0193 
     12 C12         2.7848  -20.0811  -50.4045 C.ar      23 UNK        -0.1150 
     13 C13         4.1175  -20.3130  -50.0535 C.ar      23 UNK        -0.0193 
     14 C14         4.9121  -19.2437  -49.6261 C.ar      23 UNK        -0.1150 
     15 C15         4.6958  -21.7189  -50.1189 C.3       23 UNK        -0.0205 
     16 S16         5.0976  -22.3378  -48.4536 S.3       23 UNK        -0.2404 
     17 C17         4.2181  -23.9385  -48.3736 C.3       23 UNK        -0.0398 
     18 CA          2.8875  -23.9129  -47.5745 C.3       11 UNK         0.1400 
     19 N           3.0422  -23.2804  -46.2582 N.am      11 UNK        -0.5000 
     20 C           2.3408  -23.5805  -45.1601 C.2       10 UNK         0.5000 
     21 O           1.5158  -24.4927  -45.1124 O.2       10 UNK        -0.5000 
     22 CA          2.5650  -22.7039  -43.9131 C.3       10 UNK         0.1400 
     23 CB          3.7783  -23.1845  -43.0954 C.3       10 UNK        -0.1800 
     24 N           2.6296  -21.2609  -44.1796 N.am      10 UNK        -0.5000 
     25 C           3.5797  -20.5453  -44.7999 C.2       9 UNK         0.5000 
     26 O           4.5724  -21.0365  -45.3345 O.2       9 UNK        -0.5000 
     27 CA          3.3945  -19.0153  -44.7928 C.3       9 UNK         0.1400 
     28 CB          2.3803  -18.5791  -45.8593 C.3       9 UNK        -0.1800 
     29 N           2.9642  -18.5214  -43.4838 N.am      9 UNK        -0.5000 
     30 C           3.7160  -18.5609  -42.3735 C.2       8 UNK         0.5000 
     31 O           4.8965  -18.9110  -42.3539 O.2       8 UNK        -0.5000 
     32 CA          3.0213  -18.1771  -41.0558 C.3       8 UNK         0.1400 
     33 CB          3.0724  -16.6584  -40.8253 C.3       8 UNK        -0.1800 
     34 N           1.6338  -18.6441  -41.0254 N.am      8 UNK        -0.5000 
     35 C           1.2752  -19.9152  -40.7859 C.2       7 UNK         0.5000 
     36 O           2.0727  -20.8051  -40.4904 O.2       7 UNK        -0.5000 
     37 CA         -0.2224  -20.2610  -40.9067 C.3       7 UNK         0.1400 
     38 CB         -0.9146  -20.1308  -39.5416 C.3       7 UNK        -0.1800 
     39 N          -0.9289  -19.4281  -41.8804 N.am      7 UNK        -0.5000 
     40 C          -0.7467  -19.4796  -43.2074 C.2       6 UNK         0.5000 
     41 O           0.0014  -20.2822  -43.7626 O.2       6 UNK        -0.5000 
     42 CA         -1.4723  -18.4098  -44.0465 C.3       6 UNK         0.1400 
     43 CB         -2.8327  -18.9247  -44.5371 C.3       6 UNK        -0.1800 
     44 N          -1.6539  -17.1481  -43.3198 N.am      6 UNK        -0.5000 
     45 C          -0.6427  -16.3623  -42.9295 C.2       5 UNK         0.5000 
     46 O           0.5416  -16.6176  -43.1610 O.2       5 UNK        -0.5000 
     47 CA         -0.9960  -15.1221  -42.1036 C.3       5 UNK         0.1400 
     48 CB         -0.7437  -15.3925  -40.6075 C.3       5 UNK        -0.1800 
     49 N          -0.1832  -14.0126  -42.5881 N.am      5 UNK        -0.5000 
     50 C          -0.3384  -12.7222  -42.2690 C.2       4 UNK         0.5000 
     51 O          -1.1373  -12.3074  -41.4286 O.2       4 UNK        -0.5000 
     52 CA          0.5024  -11.7217  -43.0809 C.3       4 UNK         0.1400 
     53 CB          2.0088  -11.9159  -42.8396 C.3       4 UNK        -0.1800 
     54 N           0.1980  -11.8556  -44.5062 N.am      4 UNK        -0.5000 
     55 C          -0.9314  -11.4001  -45.0747 C.2       3 UNK         0.5000 
     56 O          -1.7413  -10.6771  -44.4931 O.2       3 UNK        -0.5000 
     57 CA         -1.2308  -11.8354  -46.5254 C.3       3 UNK         0.1400 
     58 CB         -0.7604  -10.7606  -47.5164 C.3       3 UNK        -0.1800 
     59 N          -0.6242  -13.1177  -46.8842 N.am      3 UNK        -0.5000 
     60 C          -0.9091  -14.2924  -46.3004 C.2       2 UNK         0.5000 
     61 O          -1.8306  -14.4452  -45.4992 O.2       2 UNK        -0.5000 
     62 CA          0.0073  -15.4911  -46.6228 C.3       2 UNK         0.1400 
     63 CB         -0.7266  -16.5191  -47.4931 C.3       2 UNK        -0.1800 
     64 N           1.2723  -15.1305  -47.2661 N.am      2 UNK        -0.5000 
     65 C           2.2305  -14.3503  -46.7411 C.2       1 UNK         0.5000 
     66 O           2.1826  -13.9024  -45.5948 O.2       1 UNK        -0.5000 
     67 C           1.7229  -23.3074  -48.3926 C.2       11 UNK         0.5000 
     68 O           1.4402  -23.7916  -49.4894 O.2       11 UNK        -0.5000 
     69 N           1.0699  -22.2660  -47.8610 N.am      12 UNK        -0.5000 
     70 CA         -0.0820  -21.6059  -48.4637 C.3       12 UNK         0.1400 
     71 CB         -0.2803  -20.2467  -47.7820 C.3       12 UNK        -0.1800 
     72 C          -1.3688  -22.4367  -48.3492 C.2       12 UNK         0.5000 
     73 O          -1.5776  -23.1208  -47.3450 O.2       12 UNK        -0.5000 
     74 N          -2.2288  -22.2954  -49.3609 N.am      13 UNK        -0.5000 
     75 CA         -3.6071  -22.7823  -49.3761 C.3       13 UNK         0.1400 
     76 CB         -3.8178  -23.6150  -50.6463 C.3       13 UNK        -0.1800 
     77 C          -4.5922  -21.5977  -49.2947 C.2       13 UNK         0.5000 
     78 O          -5.6973  -21.7609  -48.7713 O.2       13 UNK        -0.5000 
     79 N          -4.1483  -20.4203  -49.7680 N.am      14 UNK        -0.5000 
     80 CA         -4.6752  -19.0743  -49.5192 C.3       14 UNK         0.1400 
     81 CB         -4.4754  -18.7095  -48.0330 C.3       14 UNK        -0.1800 
     82 C          -6.1220  -18.8294  -49.9934 C.2       14 UNK         0.5000 
     83 O          -6.7834  -17.9325  -49.4684 O.2       14 UNK        -0.5000 
     84 N          -6.6027  -19.6464  -50.9443 N.am      15 UNK        -0.5000 
     85 CA         -7.9882  -19.7187  -51.4312 C.3       15 UNK         0.1400 
     86 CB         -8.4354  -18.3890  -52.0734 C.3       15 UNK        -0.1800 
     87 C          -8.9897  -20.2359  -50.3729 C.2       15 UNK         0.5000 
     88 O         -10.1966  -20.2044  -50.6175 O.2       15 UNK        -0.5000 
     89 N          -8.4812  -20.7198  -49.2319 N.am      16 UNK        -0.5000 
     90 CA         -9.2539  -21.2901  -48.1349 C.3       16 UNK         0.1400 
     91 CB         -8.6279  -20.8627  -46.7969 C.3       16 UNK        -0.1800 
     92 C          -9.2888  -22.8171  -48.2705 C.2       16 UNK         0.5000 
     93 O         -10.3722  -23.4026  -48.2837 O.2       16 UNK        -0.5000 
     94 N          -8.1037  -23.4292  -48.4002 N.am      17 UNK        -0.5000 
     95 CA         -7.9507  -24.8619  -48.6519 C.3       17 UNK         0.1400 
     96 CB         -6.6036  -25.3373  -48.0870 C.3       17 UNK        -0.1800 
     97 C          -8.0574  -25.1812  -50.1529 C.2       17 UNK         0.5000 
     98 O          -8.6477  -26.1980  -50.5189 O.2       17 UNK        -0.5000 
     99 N          -7.4973  -24.2976  -50.9867 N.am      18 UNK        -0.5000 
    100 CA        -7.4451  -24.3695  -52.4425 C.3       18 UNK         0.1400 
    101 CB        -6.5656  -25.5493  -52.9060 C.3       18 UNK        -0.1800 
    102 C         -6.8625  -23.0477  -52.9588 C.2       18 UNK         0.5000 
    103 O         -6.2004  -22.3302  -52.2041 O.2       18 UNK        -0.5000 
    104 N         -7.0906  -22.7537  -54.2425 N.am      19 UNK        -0.5000 
    105 CA        -6.5253  -21.5864  -54.9261 C.3       19 UNK         0.1400 
    106 CB        -7.4267  -21.2249  -56.1161 C.3       19 UNK        -0.1800 
    107 C         -5.0719  -21.8055  -55.3973 C.2       19 UNK         0.5000 
    108 O         -4.3974  -20.8329  -55.7366 O.2       19 UNK        -0.5000 
    109 N         -4.6195  -23.0680  -55.4128 N.am      20 UNK        -0.5000 
    110 CA        -3.3491  -23.5371  -55.9757 C.3       20 UNK         0.1400 
    111 CB        -3.2995  -25.0682  -55.8506 C.3       20 UNK        -0.1800 
    112 C         -2.0730  -22.9144  -55.3738 C.2       20 UNK         0.5000 
    113 O         -1.0440  -22.8940  -56.0510 O.2       20 UNK        -0.5000 
    114 N         -2.1529  -22.4237  -54.1323 N.am      21 UNK        -0.5000 
    115 CA        -1.0637  -21.7543  -53.4320 C.3       21 UNK         0.1400 
    116 CB        -0.4207  -22.7234  -52.4247 C.3       21 UNK        -0.1800 
    117 C         -1.6220  -20.4852  -52.7789 C.2       21 UNK         0.5000 
    118 O         -2.0245  -20.5192  -51.6128 O.2       21 UNK        -0.5000 
    119 N         -1.6450  -19.4007  -53.5620 N.am      22 UNK        -0.5000 
    120 CA        -2.1004  -18.0474  -53.1910 C.3       22 UNK         0.1400 
    121 C         -3.6464  -17.8997  -53.0580 C.2       22 UNK         0.5000 
    122 N         -4.4512  -18.7608  -53.6644 N.am      22 UNK        -0.7600 
    123 O         -4.1354  -16.9791  -52.4097 O.2       22 UNK        -0.5000 
    124 C124       -1.3485  -17.4279  -51.9765 C.3       23 UNK        -0.0398 
    125 S125        0.4746  -17.5355  -52.0746 S.3       23 UNK        -0.2404 
    126 C126        0.7701  -18.5619  -50.6068 C.3       23 UNK        -0.0205 
    127 H127        0.9856  -14.1974  -51.4682 H         1 UNK         0.0600 
    128 H128        2.7112  -14.5455  -51.5890 H         1 UNK         0.0600 
    129 H129        2.1212  -12.9035  -51.8674 H         1 UNK         0.0600 
    130 H130        3.6948  -14.7427  -49.6039 H         1 UNK         0.3000 
    131 H131        3.5079  -12.8577  -47.5286 H         1 UNK         0.0600 
    132 H132        5.5405  -14.2070  -47.9414 H         1 UNK         0.0800 
    133 H133        5.0260  -14.2553  -46.2871 H         1 UNK         0.0800 
    134 H134        6.2867  -17.0572  -49.0497 H         1 UNK         0.0800 
    135 H135        5.1004  -15.9404  -49.6679 H         1 UNK         0.0800 
    136 H136        2.6149  -16.7525  -49.7938 H         1 UNK         0.1150 
    137 H137        2.1663  -20.9068  -50.7253 H         1 UNK         0.1150 
    138 H138        5.9400  -19.4233  -49.3433 H         1 UNK         0.1150 
    139 H139        4.0011  -22.3934  -50.6213 H         1 UNK         0.0800 
    140 H140        5.6037  -21.7080  -50.7232 H         1 UNK         0.0800 
    141 H141        4.8968  -24.6391  -47.8856 H         1 UNK         0.0800 
    142 H142        4.0739  -24.3437  -49.3765 H         1 UNK         0.0800 
    143 H143        2.6078  -24.9560  -47.4121 H         1 UNK         0.0600 
    144 H144        3.7169  -22.5209  -46.2004 H         1 UNK         0.3000 
    145 H145        1.6830  -22.8333  -43.2836 H         1 UNK         0.0600 
    146 H146        3.8927  -22.5986  -42.1831 H         1 UNK         0.0600 
    147 H147        3.6582  -24.2274  -42.8001 H         1 UNK         0.0600 
    148 H148        4.7079  -23.1121  -43.6603 H         1 UNK         0.0600 
    149 H149        1.8055  -20.7536  -43.8656 H         1 UNK         0.3000 
    150 H150        4.3573  -18.5582  -45.0298 H         1 UNK         0.0600 
    151 H151        2.7014  -18.8953  -46.8529 H         1 UNK         0.0600 
    152 H152        2.2779  -17.4948  -45.8805 H         1 UNK         0.0600 
    153 H153        1.3939  -19.0014  -45.6759 H         1 UNK         0.0600 
    154 H154        2.0238  -18.1516  -43.4165 H         1 UNK         0.3000 
    155 H155        3.5679  -18.6544  -40.2394 H         1 UNK         0.0600 
    156 H156        2.5677  -16.1051  -41.6170 H         1 UNK         0.0600 
    157 H157        4.1044  -16.3074  -40.7933 H         1 UNK         0.0600 
    158 H158        2.6098  -16.3882  -39.8762 H         1 UNK         0.0600 
    159 H159        0.9284  -17.9801  -41.3090 H         1 UNK         0.3000 
    160 H160       -0.2964  -21.3013  -41.2311 H         1 UNK         0.0600 
    161 H161       -0.8891  -19.1045  -39.1728 H         1 UNK         0.0600 
    162 H162       -0.4275  -20.7600  -38.7953 H         1 UNK         0.0600 
    163 H163       -1.9576  -20.4430  -39.5966 H         1 UNK         0.0600 
    164 H164       -1.5705  -18.7425  -41.5110 H         1 UNK         0.3000 
    165 H165       -0.8533  -18.2074  -44.9227 H         1 UNK         0.0600 
    166 H166       -3.3210  -18.1929  -45.1808 H         1 UNK         0.0600 
    167 H167       -2.7169  -19.8408  -45.1183 H         1 UNK         0.0600 
    168 H168       -3.5050  -19.1440  -43.7068 H         1 UNK         0.0600 
    169 H169       -2.6039  -16.8777  -43.1084 H         1 UNK         0.3000 
    170 H170       -2.0485  -14.8775  -42.2606 H         1 UNK         0.0600 
    171 H171       -1.2846  -16.2777  -40.2710 H         1 UNK         0.0600 
    172 H172        0.3142  -15.5551  -40.4021 H         1 UNK         0.0600 
    173 H173       -1.0778  -14.5613  -39.9871 H         1 UNK         0.0600 
    174 H174        0.5030  -14.2728  -43.2854 H         1 UNK         0.3000 
    175 H175        0.2404  -10.7122  -42.7564 H         1 UNK         0.0600 
    176 H176        2.3482  -12.9117  -43.1253 H         1 UNK         0.0600 
    177 H177        2.5936  -11.1903  -43.4051 H         1 UNK         0.0600 
    178 H178        2.2522  -11.7792  -41.7854 H         1 UNK         0.0600 
    179 H179        0.8109  -12.4599  -45.0425 H         1 UNK         0.3000 
    180 H180       -2.3134  -11.9402  -46.6211 H         1 UNK         0.0600 
    181 H181        0.3213  -10.6254  -47.4777 H         1 UNK         0.0600 
    182 H182       -1.2212   -9.7965  -47.2970 H         1 UNK         0.0600 
    183 H183       -1.0280  -11.0234  -48.5400 H         1 UNK         0.0600 
    184 H184        0.1247  -13.0809  -47.5670 H         1 UNK         0.3000 
    185 H185        0.2548  -15.9679  -45.6756 H         1 UNK         0.0600 
    186 H186       -0.1319  -17.4243  -47.5875 H         1 UNK         0.0600 
    187 H187       -1.6808  -16.8060  -47.0487 H         1 UNK         0.0600 
    188 H188       -0.9294  -16.1341  -48.4932 H         1 UNK         0.0600 
    189 H189        1.3891  -15.4277  -48.2223 H         1 UNK         0.3000 
    190 H190        1.3362  -21.9615  -46.9376 H         1 UNK         0.3000 
    191 H191        0.1337  -21.4437  -49.5197 H         1 UNK         0.0600 
    192 H192       -0.5015  -20.3553  -46.7192 H         1 UNK         0.0600 
    193 H193       -1.1051  -19.6963  -48.2363 H         1 UNK         0.0600 
    194 H194        0.6152  -19.6361  -47.8793 H         1 UNK         0.0600 
    195 H195       -1.9720  -21.6994  -50.1422 H         1 UNK         0.3000 
    196 H196       -3.7935  -23.4220  -48.5116 H         1 UNK         0.0600 
    197 H197       -3.7064  -23.0126  -51.5478 H         1 UNK         0.0600 
    198 H198       -3.1034  -24.4363  -50.7017 H         1 UNK         0.0600 
    199 H199       -4.8115  -24.0565  -50.6587 H         1 UNK         0.0600 
    200 H200       -3.2917  -20.4324  -50.3152 H         1 UNK         0.3000 
    201 H201       -4.0518  -18.3978  -50.1028 H         1 UNK         0.0600 
    202 H202       -5.1106  -19.3115  -47.3821 H         1 UNK         0.0600 
    203 H203       -4.7129  -17.6616  -47.8465 H         1 UNK         0.0600 
    204 H204       -3.4410  -18.8621  -47.7257 H         1 UNK         0.0600 
    205 H205       -5.9980  -20.3882  -51.2804 H         1 UNK         0.3000 
    206 H206       -7.9952  -20.4620  -52.2259 H         1 UNK         0.0600 
    207 H207       -8.5793  -17.6037  -51.3314 H         1 UNK         0.0600 
    208 H208       -7.7048  -18.0353  -52.8006 H         1 UNK         0.0600 
    209 H209       -9.3824  -18.5113  -52.6001 H         1 UNK         0.0600 
    210 H210       -7.4729  -20.7558  -49.1348 H         1 UNK         0.3000 
    211 H211      -10.2805  -20.9186  -48.1619 H         1 UNK         0.0600 
    212 H212       -8.6508  -19.7786  -46.6843 H         1 UNK         0.0600 
    213 H213       -7.5887  -21.1824  -46.7097 H         1 UNK         0.0600 
    214 H214       -9.1759  -21.2892  -45.9559 H         1 UNK         0.0600 
    215 H215       -7.2564  -22.8689  -48.3906 H         1 UNK         0.3000 
    216 H216       -8.7413  -25.4091  -48.1337 H         1 UNK         0.0600 
    217 H217       -6.4692  -26.4077  -48.2478 H         1 UNK         0.0600 
    218 H218       -6.5428  -25.1592  -47.0133 H         1 UNK         0.0600 
    219 H219       -5.7647  -24.8272  -48.5580 H         1 UNK         0.0600 
    220 H220       -7.0515  -23.4704  -50.6103 H         1 UNK         0.3000 
    221 H221       -8.4604  -24.4840  -52.8268 H         1 UNK         0.0600 
    222 H222       -6.9672  -26.5067  -52.5753 H         1 UNK         0.0600 
    223 H223       -5.5469  -25.4673  -52.5255 H         1 UNK         0.0600 
    224 H224       -6.5058  -25.5933  -53.9939 H         1 UNK         0.0600 
    225 H225       -7.6543  -23.3771  -54.8033 H         1 UNK         0.3000 
    226 H226       -6.5213  -20.7378  -54.2396 H         1 UNK         0.0600 
    227 H227       -8.4431  -21.0063  -55.7878 H         1 UNK         0.0600 
    228 H228       -7.0567  -20.3381  -56.6326 H         1 UNK         0.0600 
    229 H229       -7.4752  -22.0339  -56.8459 H         1 UNK         0.0600 
    230 H230       -5.2509  -23.7878  -55.0975 H         1 UNK         0.3000 
    231 H231       -3.3549  -23.2826  -57.0374 H         1 UNK         0.0600 
    232 H232       -3.3357  -25.3864  -54.8077 H         1 UNK         0.0600 
    233 H233       -2.3821  -25.4686  -56.2843 H         1 UNK         0.0600 
    234 H234       -4.1336  -25.5357  -56.3742 H         1 UNK         0.0600 
    235 H235       -3.0451  -22.4454  -53.6597 H         1 UNK         0.3000 
    236 H236       -0.2852  -21.4412  -54.1312 H         1 UNK         0.0600 
    237 H237       -1.1528  -23.1523  -51.7430 H         1 UNK         0.0600 
    238 H238        0.0682  -23.5501  -52.9399 H         1 UNK         0.0600 
    239 H239        0.3404  -22.2219  -51.8270 H         1 UNK         0.0600 
    240 H240       -1.3235  -19.4944  -54.5146 H         1 UNK         0.3000 
    241 H241       -1.8497  -17.4276  -54.0522 H         1 UNK         0.0600 
    242 H242       -5.4435  -18.6230  -53.5783 H         1 UNK         0.3800 
    243 H243       -4.0931  -19.4759  -54.2864 H         1 UNK         0.3800 
    244 H244       -1.6985  -17.8869  -51.0509 H         1 UNK         0.0800 
    245 H245       -1.5974  -16.3692  -51.8874 H         1 UNK         0.0800 
    246 H246        0.3170  -18.0758  -49.7451 H         1 UNK         0.0800 
    247 H247        0.2538  -19.5106  -50.7355 H         1 UNK         0.0800 
@<TRIPOS>BOND
     1    1    2 1    
     2    1  127 1    
     3    1  128 1    
     4    1  129 1    
     5    2    3 2    
     6    2    4 am   BACKBONE|DICT|INTERRES
     7    4    5 1    
     8    4  130 1    
     9    5    6 1    
    10    5   65 1    
    11    5  131 1    
    12    6    7 1    
    13    6  132 1    
    14    6  133 1    
    15    7    8 1    
    16    8    9 1    
    17    8  134 1    
    18    8  135 1    
    19    9   10 ar   
    20    9   14 ar   
    21   10   11 ar   
    22   10  136 1    
    23   11   12 ar   
    24   11  126 1    
    25   12   13 ar   
    26   12  137 1    
    27   13   14 ar   
    28   13   15 1    
    29   14  138 1    
    30   15   16 1    
    31   15  139 1    
    32   15  140 1    
    33   16   17 1    
    34   17   18 1    
    35   17  141 1    
    36   17  142 1    
    37   18   19 1    
    38   18   67 1    
    39   18  143 1    
    40   19   20 am   BACKBONE|DICT|INTERRES
    41   19  144 1    
    42   20   21 2    
    43   20   22 1    
    44   22   23 1    
    45   22   24 1    
    46   22  145 1    
    47   23  146 1    
    48   23  147 1    
    49   23  148 1    
    50   24   25 am   BACKBONE|DICT|INTERRES
    51   24  149 1    
    52   25   26 2    
    53   25   27 1    
    54   27   28 1    
    55   27   29 1    
    56   27  150 1    
    57   28  151 1    
    58   28  152 1    
    59   28  153 1    
    60   29   30 am   BACKBONE|DICT|INTERRES
    61   29  154 1    
    62   30   31 2    
    63   30   32 1    
    64   32   33 1    
    65   32   34 1    
    66   32  155 1    
    67   33  156 1    
    68   33  157 1    
    69   33  158 1    
    70   34   35 am   BACKBONE|DICT|INTERRES
    71   34  159 1    
    72   35   36 2    
    73   35   37 1    
    74   37   38 1    
    75   37   39 1    
    76   37  160 1    
    77   38  161 1    
    78   38  162 1    
    79   38  163 1    
    80   39   40 am   BACKBONE|DICT|INTERRES
    81   39  164 1    
    82   40   41 2    
    83   40   42 1    
    84   42   43 1    
    85   42   44 1    
    86   42  165 1    
    87   43  166 1    
    88   43  167 1    
    89   43  168 1    
    90   44   45 am   BACKBONE|DICT|INTERRES
    91   44  169 1    
    92   45   46 2    
    93   45   47 1    
    94   47   48 1    
    95   47   49 1    
    96   47  170 1    
    97   48  171 1    
    98   48  172 1    
    99   48  173 1    
   100   49   50 am   BACKBONE|DICT|INTERRES
   101   49  174 1    
   102   50   51 2    
   103   50   52 1    
   104   52   53 1    
   105   52   54 1    
   106   52  175 1    
   107   53  176 1    
   108   53  177 1    
   109   53  178 1    
   110   54   55 am   BACKBONE|DICT|INTERRES
   111   54  179 1    
   112   55   56 2    
   113   55   57 1    
   114   57   58 1    
   115   57   59 1    
   116   57  180 1    
   117   58  181 1    
   118   58  182 1    
   119   58  183 1    
   120   59   60 am   BACKBONE|DICT|INTERRES
   121   59  184 1    
   122   60   61 2    
   123   60   62 1    
   124   62   63 1    
   125   62   64 1    
   126   62  185 1    
   127   63  186 1    
   128   63  187 1    
   129   63  188 1    
   130   64   65 am   BACKBONE|DICT|INTERRES
   131   64  189 1    
   132   65   66 2    
   133   67   68 2    
   134   67   69 am   BACKBONE|DICT|INTERRES
   135   69   70 1    
   136   69  190 1    
   137   70   71 1    
   138   70   72 1    
   139   70  191 1    
   140   71  192 1    
   141   71  193 1    
   142   71  194 1    
   143   72   73 2    
   144   72   74 am   BACKBONE|DICT|INTERRES
   145   74   75 1    
   146   74  195 1    
   147   75   76 1    
   148   75   77 1    
   149   75  196 1    
   150   76  197 1    
   151   76  198 1    
   152   76  199 1    
   153   77   78 2    
   154   77   79 am   BACKBONE|DICT|INTERRES
   155   79   80 1    
   156   79  200 1    
   157   80   81 1    
   158   80   82 1    
   159   80  201 1    
   160   81  202 1    
   161   81  203 1    
   162   81  204 1    
   163   82   83 2    
   164   82   84 am   BACKBONE|DICT|INTERRES
   165   84   85 1    
   166   84  205 1    
   167   85   86 1    
   168   85   87 1    
   169   85  206 1    
   170   86  207 1    
   171   86  208 1    
   172   86  209 1    
   173   87   88 2    
   174   87   89 am   BACKBONE|DICT|INTERRES
   175   89   90 1    
   176   89  210 1    
   177   90   91 1    
   178   90   92 1    
   179   90  211 1    
   180   91  212 1    
   181   91  213 1    
   182   91  214 1    
   183   92   93 2    
   184   92   94 am   BACKBONE|DICT|INTERRES
   185   94   95 1    
   186   94  215 1    
   187   95   96 1    
   188   95   97 1    
   189   95  216 1    
   190   96  217 1    
   191   96  218 1    
   192   96  219 1    
   193   97   98 2    
   194   97   99 am   BACKBONE|DICT|INTERRES
   195   99  100 1    
   196   99  220 1    
   197  100  101 1    
   198  100  102 1    
   199  100  221 1    
   200  101  222 1    
   201  101  223 1    
   202  101  224 1    
   203  102  103 2    
   204  102  104 am   BACKBONE|DICT|INTERRES
   205  104  105 1    
   206  104  225 1    
   207  105  106 1    
   208  105  107 1    
   209  105  226 1    
   210  106  227 1    
   211  106  228 1    
   212  106  229 1    
   213  107  108 2    
   214  107  109 am   BACKBONE|DICT|INTERRES
   215  109  110 1    
   216  109  230 1    
   217  110  111 1    
   218  110  112 1    
   219  110  231 1    
   220  111  232 1    
   221  111  233 1    
   222  111  234 1    
   223  112  113 2    
   224  112  114 am   BACKBONE|DICT|INTERRES
   225  114  115 1    
   226  114  235 1    
   227  115  116 1    
   228  115  117 1    
   229  115  236 1    
   230  116  237 1    
   231  116  238 1    
   232  116  239 1    
   233  117  118 2    
   234  117  119 am   BACKBONE|DICT|INTERRES
   235  119  120 1    
   236  119  240 1    
   237  120  121 1    
   238  120  124 1    
   239  120  241 1    
   240  121  122 am   BACKBONE|DICT|INTERRES
   241  121  123 2    
   242  122  242 1    
   243  122  243 1    
   244  124  125 1    
   245  124  244 1    
   246  124  245 1    
   247  125  126 1    
   248  126  246 1    
   249  126  247 1    
@<TRIPOS>SUBSTRUCTURE
     1 UNK         1 GROUP             0       ****    0 ROOT    
