@<TRIPOS>MOLECULE
3R540
247   249    1
SMALL
USER_CHARGES


@<TRIPOS>ATOM
      1 CA         -3.1574  -10.7970  -48.2573 C.3       0 UNK        -0.1800 
      2 C          -1.7063  -11.0998  -48.6042 C.2       0 UNK         0.5000 
      3 O          -1.1047  -10.3818  -49.4035 O.2       0 UNK        -0.5000 
      4 N          -1.1459  -12.1625  -48.0137 N.am      1 UNK        -0.5000 
      5 CA          0.2532  -12.5653  -48.1708 C.3       1 UNK         0.1400 
      6 C6          0.4722  -14.0115  -47.6649 C.3       23 UNK        -0.0398 
      7 S7          2.1001  -14.7078  -48.1160 S.3       23 UNK        -0.2404 
      8 C8          1.7820  -15.3841  -49.7771 C.3       23 UNK        -0.0205 
      9 C9          0.9624  -16.6650  -49.7356 C.ar      23 UNK        -0.0193 
     10 C10        -0.4025  -16.6425  -50.0365 C.ar      23 UNK        -0.1150 
     11 C11        -1.1543  -17.8209  -50.0169 C.ar      23 UNK        -0.0193 
     12 C12        -0.5302  -19.0290  -49.6928 C.ar      23 UNK        -0.1150 
     13 C13         0.8334  -19.0641  -49.3859 C.ar      23 UNK        -0.0193 
     14 C14         1.5754  -17.8796  -49.4149 C.ar      23 UNK        -0.1150 
     15 C15         1.5024  -20.3784  -49.0160 C.3       23 UNK        -0.0205 
     16 S16         1.8088  -20.4648  -47.2250 S.3       23 UNK        -0.2404 
     17 C17         2.0158  -22.2555  -46.9618 C.3       23 UNK        -0.0398 
     18 CA          0.7838  -22.9834  -46.3672 C.3       11 UNK         0.1400 
     19 N           0.4674  -22.6144  -44.9830 N.am      11 UNK        -0.5000 
     20 C          -0.3030  -23.3770  -44.1893 C.2       10 UNK         0.5000 
     21 O          -0.7893  -24.4519  -44.5457 O.2       10 UNK        -0.5000 
     22 CA         -0.6255  -22.8444  -42.7821 C.3       10 UNK         0.1400 
     23 CB          0.5815  -22.9890  -41.8437 C.3       10 UNK        -0.1800 
     24 N          -1.0855  -21.4574  -42.7933 N.am      10 UNK        -0.5000 
     25 C          -2.2012  -21.0284  -43.4003 C.2       9 UNK         0.5000 
     26 O          -2.9803  -21.7651  -44.0038 O.2       9 UNK        -0.5000 
     27 CA         -2.4688  -19.5141  -43.3625 C.3       9 UNK         0.1400 
     28 CB         -3.1591  -19.1029  -42.0532 C.3       9 UNK        -0.1800 
     29 N          -1.2392  -18.7431  -43.5411 N.am      9 UNK        -0.5000 
     30 C          -0.5549  -18.6890  -44.6922 C.2       8 UNK         0.5000 
     31 O          -0.9279  -19.2352  -45.7285 O.2       8 UNK        -0.5000 
     32 CA          0.7819  -17.9283  -44.6651 C.3       8 UNK         0.1400 
     33 CB          0.5429  -16.4227  -44.8371 C.3       8 UNK        -0.1800 
     34 N           1.5377  -18.1780  -43.4366 N.am      8 UNK        -0.5000 
     35 C           2.0770  -19.3647  -43.1104 C.2       7 UNK         0.5000 
     36 O           2.0284  -20.3609  -43.8315 O.2       7 UNK        -0.5000 
     37 CA          2.7364  -19.4804  -41.7203 C.3       7 UNK         0.1400 
     38 CB          4.2180  -19.0829  -41.7949 C.3       7 UNK        -0.1800 
     39 N           2.0749  -18.6697  -40.6979 N.am      7 UNK        -0.5000 
     40 C           0.7834  -18.7636  -40.3517 C.2       6 UNK         0.5000 
     41 O           0.0341  -19.6454  -40.7709 O.2       6 UNK        -0.5000 
     42 CA          0.2133  -17.6610  -39.4348 C.3       6 UNK         0.1400 
     43 CB          0.0112  -18.2021  -38.0118 C.3       6 UNK        -0.1800 
     44 N           1.0157  -16.4318  -39.3687 N.am      6 UNK        -0.5000 
     45 C           1.3485  -15.6465  -40.4037 C.2       5 UNK         0.5000 
     46 O           1.0499  -15.8955  -41.5744 O.2       5 UNK        -0.5000 
     47 CA          2.2299  -14.4304  -40.0617 C.3       5 UNK         0.1400 
     48 CB          3.6655  -14.8857  -39.7502 C.3       5 UNK        -0.1800 
     49 N           2.2926  -13.4439  -41.1374 N.am      5 UNK        -0.5000 
     50 C           1.2933  -12.6710  -41.5725 C.2       4 UNK         0.5000 
     51 O           0.1628  -12.6857  -41.0830 O.2       4 UNK        -0.5000 
     52 CA          1.5968  -11.6975  -42.7343 C.3       4 UNK         0.1400 
     53 CB          2.0327  -10.3241  -42.1905 C.3       4 UNK        -0.1800 
     54 N           2.5424  -12.1671  -43.7604 N.am      4 UNK        -0.5000 
     55 C           3.8433  -12.4852  -43.6515 C.2       3 UNK         0.5000 
     56 O           4.4647  -12.5021  -42.5888 O.2       3 UNK        -0.5000 
     57 CA          4.5845  -12.8484  -44.9537 C.3       3 UNK         0.1400 
     58 CB          4.5572  -14.3680  -45.1776 C.3       3 UNK        -0.1800 
     59 N           4.0383  -12.1780  -46.1349 N.am      3 UNK        -0.5000 
     60 C           4.0864  -10.8554  -46.3562 C.2       2 UNK         0.5000 
     61 O           4.6768  -10.0625  -45.6218 O.2       2 UNK        -0.5000 
     62 CA          3.3400  -10.3200  -47.5957 C.3       2 UNK         0.1400 
     63 CB          4.3318  -10.0139  -48.7285 C.3       2 UNK        -0.1800 
     64 N           2.3024  -11.2207  -48.1070 N.am      2 UNK        -0.5000 
     65 C           1.1864  -11.5685  -47.4520 C.2       1 UNK         0.5000 
     66 O           0.9077  -11.1807  -46.3144 O.2       1 UNK        -0.5000 
     67 C          -0.4568  -22.9221  -47.2814 C.2       11 UNK         0.5000 
     68 O          -0.6055  -23.7981  -48.1309 O.2       11 UNK        -0.5000 
     69 N          -1.3496  -21.9408  -47.0715 N.am      12 UNK        -0.5000 
     70 CA         -2.6247  -21.8350  -47.7833 C.3       12 UNK         0.1400 
     71 CB         -3.3252  -20.5134  -47.4388 C.3       12 UNK        -0.1800 
     72 C          -3.5549  -23.0292  -47.5128 C.2       12 UNK         0.5000 
     73 O          -4.1615  -23.5389  -48.4531 O.2       12 UNK        -0.5000 
     74 N          -3.6246  -23.4840  -46.2551 N.am      13 UNK        -0.5000 
     75 CA         -4.3689  -24.6796  -45.8600 C.3       13 UNK         0.1400 
     76 CB         -4.4130  -24.7800  -44.3277 C.3       13 UNK        -0.1800 
     77 C          -3.7905  -25.9648  -46.4808 C.2       13 UNK         0.5000 
     78 O          -4.5536  -26.7949  -46.9759 O.2       13 UNK        -0.5000 
     79 N          -2.4564  -26.0929  -46.4661 N.am      14 UNK        -0.5000 
     80 CA         -1.7282  -27.2354  -47.0188 C.3       14 UNK         0.1400 
     81 CB         -0.2646  -27.1775  -46.5552 C.3       14 UNK        -0.1800 
     82 C          -1.8066  -27.3251  -48.5548 C.2       14 UNK         0.5000 
     83 O          -2.0199  -28.4141  -49.0887 O.2       14 UNK        -0.5000 
     84 N          -1.6305  -26.1856  -49.2357 N.am      15 UNK        -0.5000 
     85 CA         -1.5622  -26.0852  -50.6954 C.3       15 UNK         0.1400 
     86 CB         -0.5690  -24.9716  -51.0686 C.3       15 UNK        -0.1800 
     87 C          -2.9282  -25.8463  -51.3673 C.2       15 UNK         0.5000 
     88 O          -2.9580  -25.6364  -52.5801 O.2       15 UNK        -0.5000 
     89 N          -4.0226  -25.8526  -50.5912 N.am      16 UNK        -0.5000 
     90 CA         -5.4107  -25.6371  -51.0207 C.3       16 UNK         0.1400 
     91 CB         -5.8966  -26.8067  -51.9019 C.3       16 UNK        -0.1800 
     92 C          -5.5993  -24.2609  -51.6911 C.2       16 UNK         0.5000 
     93 O          -5.9625  -24.1745  -52.8663 O.2       16 UNK        -0.5000 
     94 N          -5.2817  -23.2082  -50.9259 N.am      17 UNK        -0.5000 
     95 CA         -5.2699  -21.7948  -51.3127 C.3       17 UNK         0.1400 
     96 CB         -6.7024  -21.2936  -51.5949 C.3       17 UNK        -0.1800 
     97 C          -4.2775  -21.5157  -52.4589 C.2       17 UNK         0.5000 
     98 O          -4.5866  -20.7429  -53.3653 O.2       17 UNK        -0.5000 
     99 N          -3.1141  -22.1837  -52.3976 N.am      18 UNK        -0.5000 
    100 CA        -2.0379  -22.1837  -53.3948 C.3       18 UNK         0.1400 
    101 CB        -1.3504  -20.8038  -53.4507 C.3       18 UNK        -0.1800 
    102 C         -2.5351  -22.6742  -54.7700 C.2       18 UNK         0.5000 
    103 O         -2.3751  -21.9784  -55.7723 O.2       18 UNK        -0.5000 
    104 N         -3.1831  -23.8488  -54.7756 N.am      19 UNK        -0.5000 
    105 CA        -3.8937  -24.4574  -55.9063 C.3       19 UNK         0.1400 
    106 CB        -2.8998  -24.9296  -56.9876 C.3       19 UNK        -0.1800 
    107 C         -5.0025  -23.5333  -56.4560 C.2       19 UNK         0.5000 
    108 O         -5.1092  -23.3329  -57.6671 O.2       19 UNK        -0.5000 
    109 N         -5.7800  -22.9605  -55.5269 N.am      20 UNK        -0.5000 
    110 CA        -6.8626  -21.9897  -55.7126 C.3       20 UNK         0.1400 
    111 CB        -8.0005  -22.5878  -56.5651 C.3       20 UNK        -0.1800 
    112 C         -6.4304  -20.5951  -56.2199 C.2       20 UNK         0.5000 
    113 O         -7.3040  -19.7541  -56.4417 O.2       20 UNK        -0.5000 
    114 N         -5.1220  -20.3311  -56.3634 N.am      21 UNK        -0.5000 
    115 CA        -4.5819  -19.0458  -56.8218 C.3       21 UNK         0.1400 
    116 CB        -3.0754  -19.1744  -57.0857 C.3       21 UNK        -0.1800 
    117 C         -4.8581  -17.8771  -55.8562 C.2       21 UNK         0.5000 
    118 O         -5.0057  -16.7425  -56.3133 O.2       21 UNK        -0.5000 
    119 N         -4.9532  -18.1720  -54.5539 N.am      22 UNK        -0.5000 
    120 CA        -5.3640  -17.2205  -53.5094 C.3       22 UNK         0.1400 
    121 C         -6.9073  -17.0153  -53.4175 C.2       22 UNK         0.5000 
    122 N         -7.7324  -17.6935  -54.2082 N.am      22 UNK        -0.7600 
    123 O         -7.3708  -16.2100  -52.6146 O.2       22 UNK        -0.5000 
    124 C124       -4.7667  -17.5806  -52.1238 C.3       23 UNK        -0.0398 
    125 S125       -2.9445  -17.6423  -52.1170 S.3       23 UNK        -0.2404 
    126 C126       -2.6415  -17.7800  -50.3301 C.3       23 UNK        -0.0205 
    127 H127       -3.5641  -11.5180  -47.5477 H         1 UNK         0.0600 
    128 H128       -3.7717  -10.8226  -49.1574 H         1 UNK         0.0600 
    129 H129       -3.2379   -9.8035  -47.8162 H         1 UNK         0.0600 
    130 H130       -1.6834  -12.6902  -47.3412 H         1 UNK         0.3000 
    131 H131        0.4763  -12.5428  -49.2398 H         1 UNK         0.0600 
    132 H132        0.3741  -14.0465  -46.5789 H         1 UNK         0.0800 
    133 H133       -0.3070  -14.6684  -48.0509 H         1 UNK         0.0800 
    134 H134        2.7394  -15.5890  -50.2582 H         1 UNK         0.0800 
    135 H135        1.2906  -14.6308  -50.3946 H         1 UNK         0.0800 
    136 H136       -0.8832  -15.7084  -50.2914 H         1 UNK         0.1150 
    137 H137       -1.1070  -19.9419  -49.6732 H         1 UNK         0.1150 
    138 H138        2.6294  -17.9019  -49.1756 H         1 UNK         0.1150 
    139 H139        0.8784  -21.2168  -49.3286 H         1 UNK         0.0800 
    140 H140        2.4475  -20.4784  -49.5515 H         1 UNK         0.0800 
    141 H141        2.3087  -22.7245  -47.9027 H         1 UNK         0.0800 
    142 H142        2.8676  -22.3916  -46.2942 H         1 UNK         0.0800 
    143 H143        1.0693  -24.0372  -46.3351 H         1 UNK         0.0600 
    144 H144        0.8584  -21.7433  -44.6339 H         1 UNK         0.3000 
    145 H145       -1.4376  -23.4522  -42.3776 H         1 UNK         0.0600 
    146 H146        0.3486  -22.6305  -40.8408 H         1 UNK         0.0600 
    147 H147        1.4450  -22.4329  -42.2064 H         1 UNK         0.0600 
    148 H148        0.8808  -24.0340  -41.7557 H         1 UNK         0.0600 
    149 H149       -0.5311  -20.7856  -42.2717 H         1 UNK         0.3000 
    150 H150       -3.1433  -19.2734  -44.1868 H         1 UNK         0.0600 
    151 H151       -4.1057  -19.6313  -41.9331 H         1 UNK         0.0600 
    152 H152       -3.3795  -18.0354  -42.0418 H         1 UNK         0.0600 
    153 H153       -2.5478  -19.3287  -41.1796 H         1 UNK         0.0600 
    154 H154       -0.8460  -18.3068  -42.7204 H         1 UNK         0.3000 
    155 H155        1.3857  -18.2640  -45.5079 H         1 UNK         0.0600 
    156 H156        0.0130  -16.2302  -45.7701 H         1 UNK         0.0600 
    157 H157        1.4827  -15.8732  -44.8726 H         1 UNK         0.0600 
    158 H158       -0.0589  -16.0099  -44.0269 H         1 UNK         0.0600 
    159 H159        1.5738  -17.4148  -42.7677 H         1 UNK         0.3000 
    160 H160        2.6756  -20.5239  -41.4065 H         1 UNK         0.0600 
    161 H161        4.3403  -18.0355  -42.0742 H         1 UNK         0.0600 
    162 H162        4.7461  -19.6844  -42.5362 H         1 UNK         0.0600 
    163 H163        4.7171  -19.2366  -40.8380 H         1 UNK         0.0600 
    164 H164        2.6140  -17.9150  -40.3019 H         1 UNK         0.3000 
    165 H165       -0.7642  -17.3895  -39.8385 H         1 UNK         0.0600 
    166 H166       -0.4890  -17.4700  -37.3775 H         1 UNK         0.0600 
    167 H167       -0.6088  -19.0998  -38.0182 H         1 UNK         0.0600 
    168 H168        0.9607  -18.4624  -37.5424 H         1 UNK         0.0600 
    169 H169        1.3254  -16.1628  -38.4456 H         1 UNK         0.3000 
    170 H170        1.8121  -13.9421  -39.1791 H         1 UNK         0.0600 
    171 H171        4.1235  -15.3817  -40.6073 H         1 UNK         0.0600 
    172 H172        4.2967  -14.0387  -39.4801 H         1 UNK         0.0600 
    173 H173        3.6910  -15.5841  -38.9129 H         1 UNK         0.0600 
    174 H174        3.1936  -13.3203  -41.5916 H         1 UNK         0.3000 
    175 H175        0.6528  -11.5524  -43.2621 H         1 UNK         0.0600 
    176 H176        2.9762  -10.3836  -41.6471 H         1 UNK         0.0600 
    177 H177        2.1558   -9.6027  -42.9985 H         1 UNK         0.0600 
    178 H178        1.2863   -9.9207  -41.5050 H         1 UNK         0.0600 
    179 H179        2.1523  -12.1782  -44.6943 H         1 UNK         0.3000 
    180 H180        5.6251  -12.5377  -44.8393 H         1 UNK         0.0600 
    181 H181        3.5405  -14.7358  -45.3150 H         1 UNK         0.0600 
    182 H182        4.9848  -14.8974  -44.3250 H         1 UNK         0.0600 
    183 H183        5.1362  -14.6485  -46.0577 H         1 UNK         0.0600 
    184 H184        3.5513  -12.7582  -46.8027 H         1 UNK         0.3000 
    185 H185        2.8555   -9.3863  -47.3026 H         1 UNK         0.0600 
    186 H186        4.8322  -10.9173  -49.0798 H         1 UNK         0.0600 
    187 H187        3.8297   -9.5540  -49.5800 H         1 UNK         0.0600 
    188 H188        5.1043   -9.3192  -48.3958 H         1 UNK         0.0600 
    189 H189        2.4624  -11.5992  -49.0295 H         1 UNK         0.3000 
    190 H190       -1.1426  -21.2144  -46.3936 H         1 UNK         0.3000 
    191 H191       -2.4047  -21.8296  -48.8526 H         1 UNK         0.0600 
    192 H192       -2.7032  -19.6568  -47.6962 H         1 UNK         0.0600 
    193 H193       -3.5583  -20.4470  -46.3762 H         1 UNK         0.0600 
    194 H194       -4.2621  -20.4114  -47.9875 H         1 UNK         0.0600 
    195 H195       -3.1458  -22.9762  -45.5164 H         1 UNK         0.3000 
    196 H196       -5.3940  -24.5697  -46.2200 H         1 UNK         0.0600 
    197 H197       -4.9007  -23.9084  -43.8909 H         1 UNK         0.0600 
    198 H198       -3.4135  -24.8520  -43.8980 H         1 UNK         0.0600 
    199 H199       -4.9727  -25.6602  -44.0092 H         1 UNK         0.0600 
    200 H200       -1.9033  -25.3782  -46.0042 H         1 UNK         0.3000 
    201 H201       -2.1739  -28.1449  -46.6106 H         1 UNK         0.0600 
    202 H202       -0.1949  -27.1819  -45.4673 H         1 UNK         0.0600 
    203 H203        0.2371  -26.2803  -46.9185 H         1 UNK         0.0600 
    204 H204        0.2958  -28.0385  -46.9213 H         1 UNK         0.0600 
    205 H205       -1.4223  -25.3310  -48.7220 H         1 UNK         0.3000 
    206 H206       -1.1714  -27.0213  -51.0993 H         1 UNK         0.0600 
    207 H207        0.3926  -25.1193  -50.5768 H         1 UNK         0.0600 
    208 H208       -0.9414  -23.9871  -50.7839 H         1 UNK         0.0600 
    209 H209       -0.3804  -24.9582  -52.1426 H         1 UNK         0.0600 
    210 H210       -3.8858  -25.9808  -49.5978 H         1 UNK         0.3000 
    211 H211       -6.0193  -25.6304  -50.1152 H         1 UNK         0.0600 
    212 H212       -5.3464  -26.8678  -52.8414 H         1 UNK         0.0600 
    213 H213       -6.9523  -26.6928  -52.1503 H         1 UNK         0.0600 
    214 H214       -5.7848  -27.7603  -51.3861 H         1 UNK         0.0600 
    215 H215       -4.9446  -23.3995  -49.9808 H         1 UNK         0.3000 
    216 H216       -4.8933  -21.2409  -50.4518 H         1 UNK         0.0600 
    217 H217       -6.7170  -20.2341  -51.8483 H         1 UNK         0.0600 
    218 H218       -7.3383  -21.4230  -50.7194 H         1 UNK         0.0600 
    219 H219       -7.1667  -21.8302  -52.4205 H         1 UNK         0.0600 
    220 H220       -2.9943  -22.8254  -51.6285 H         1 UNK         0.3000 
    221 H221       -1.2946  -22.9068  -53.0606 H         1 UNK         0.0600 
    222 H222       -2.0238  -20.0297  -53.8187 H         1 UNK         0.0600 
    223 H223       -0.9979  -20.4972  -52.4659 H         1 UNK         0.0600 
    224 H224       -0.4856  -20.8253  -54.1146 H         1 UNK         0.0600 
    225 H225       -3.2381  -24.3738  -53.9047 H         1 UNK         0.3000 
    226 H226       -4.3976  -25.3405  -55.5105 H         1 UNK         0.0600 
    227 H227       -2.1450  -25.5925  -56.5647 H         1 UNK         0.0600 
    228 H228       -3.4139  -25.4832  -57.7740 H         1 UNK         0.0600 
    229 H229       -2.3847  -24.0929  -57.4603 H         1 UNK         0.0600 
    230 H230       -5.6201  -23.2310  -54.5598 H         1 UNK         0.3000 
    231 H231       -7.2674  -21.8186  -54.7159 H         1 UNK         0.0600 
    232 H232       -8.8758  -21.9373  -56.5620 H         1 UNK         0.0600 
    233 H233       -8.3176  -23.5556  -56.1764 H         1 UNK         0.0600 
    234 H234       -7.7020  -22.7234  -57.6048 H         1 UNK         0.0600 
    235 H235       -4.4476  -21.0443  -56.1149 H         1 UNK         0.3000 
    236 H236       -5.0685  -18.8084  -57.7700 H         1 UNK         0.0600 
    237 H237       -2.5222  -19.3556  -56.1639 H         1 UNK         0.0600 
    238 H238       -2.8609  -19.9911  -57.7752 H         1 UNK         0.0600 
    239 H239       -2.6786  -18.2603  -57.5287 H         1 UNK         0.0600 
    240 H240       -4.8076  -19.1330  -54.2495 H         1 UNK         0.3000 
    241 H241       -4.9621  -16.2417  -53.7773 H         1 UNK         0.0600 
    242 H242       -8.7246  -17.5354  -54.1318 H         1 UNK         0.3800 
    243 H243       -7.3847  -18.3397  -54.9060 H         1 UNK         0.3800 
    244 H244       -5.1463  -18.5416  -51.7797 H         1 UNK         0.0800 
    245 H245       -5.0754  -16.8455  -51.3785 H         1 UNK         0.0800 
    246 H246       -3.1367  -18.6757  -49.9529 H         1 UNK         0.0800 
    247 H247       -3.0967  -16.9328  -49.8150 H         1 UNK         0.0800 
@<TRIPOS>BOND
     1    1    2 1    
     2    1  127 1    
     3    1  128 1    
     4    1  129 1    
     5    2    3 2    
     6    2    4 am   BACKBONE|DICT|INTERRES
     7    4    5 1    
     8    4  130 1    
     9    5    6 1    
    10    5   65 1    
    11    5  131 1    
    12    6    7 1    
    13    6  132 1    
    14    6  133 1    
    15    7    8 1    
    16    8    9 1    
    17    8  134 1    
    18    8  135 1    
    19    9   10 ar   
    20    9   14 ar   
    21   10   11 ar   
    22   10  136 1    
    23   11   12 ar   
    24   11  126 1    
    25   12   13 ar   
    26   12  137 1    
    27   13   14 ar   
    28   13   15 1    
    29   14  138 1    
    30   15   16 1    
    31   15  139 1    
    32   15  140 1    
    33   16   17 1    
    34   17   18 1    
    35   17  141 1    
    36   17  142 1    
    37   18   19 1    
    38   18   67 1    
    39   18  143 1    
    40   19   20 am   BACKBONE|DICT|INTERRES
    41   19  144 1    
    42   20   21 2    
    43   20   22 1    
    44   22   23 1    
    45   22   24 1    
    46   22  145 1    
    47   23  146 1    
    48   23  147 1    
    49   23  148 1    
    50   24   25 am   BACKBONE|DICT|INTERRES
    51   24  149 1    
    52   25   26 2    
    53   25   27 1    
    54   27   28 1    
    55   27   29 1    
    56   27  150 1    
    57   28  151 1    
    58   28  152 1    
    59   28  153 1    
    60   29   30 am   BACKBONE|DICT|INTERRES
    61   29  154 1    
    62   30   31 2    
    63   30   32 1    
    64   32   33 1    
    65   32   34 1    
    66   32  155 1    
    67   33  156 1    
    68   33  157 1    
    69   33  158 1    
    70   34   35 am   BACKBONE|DICT|INTERRES
    71   34  159 1    
    72   35   36 2    
    73   35   37 1    
    74   37   38 1    
    75   37   39 1    
    76   37  160 1    
    77   38  161 1    
    78   38  162 1    
    79   38  163 1    
    80   39   40 am   BACKBONE|DICT|INTERRES
    81   39  164 1    
    82   40   41 2    
    83   40   42 1    
    84   42   43 1    
    85   42   44 1    
    86   42  165 1    
    87   43  166 1    
    88   43  167 1    
    89   43  168 1    
    90   44   45 am   BACKBONE|DICT|INTERRES
    91   44  169 1    
    92   45   46 2    
    93   45   47 1    
    94   47   48 1    
    95   47   49 1    
    96   47  170 1    
    97   48  171 1    
    98   48  172 1    
    99   48  173 1    
   100   49   50 am   BACKBONE|DICT|INTERRES
   101   49  174 1    
   102   50   51 2    
   103   50   52 1    
   104   52   53 1    
   105   52   54 1    
   106   52  175 1    
   107   53  176 1    
   108   53  177 1    
   109   53  178 1    
   110   54   55 am   BACKBONE|DICT|INTERRES
   111   54  179 1    
   112   55   56 2    
   113   55   57 1    
   114   57   58 1    
   115   57   59 1    
   116   57  180 1    
   117   58  181 1    
   118   58  182 1    
   119   58  183 1    
   120   59   60 am   BACKBONE|DICT|INTERRES
   121   59  184 1    
   122   60   61 2    
   123   60   62 1    
   124   62   63 1    
   125   62   64 1    
   126   62  185 1    
   127   63  186 1    
   128   63  187 1    
   129   63  188 1    
   130   64   65 am   BACKBONE|DICT|INTERRES
   131   64  189 1    
   132   65   66 2    
   133   67   68 2    
   134   67   69 am   BACKBONE|DICT|INTERRES
   135   69   70 1    
   136   69  190 1    
   137   70   71 1    
   138   70   72 1    
   139   70  191 1    
   140   71  192 1    
   141   71  193 1    
   142   71  194 1    
   143   72   73 2    
   144   72   74 am   BACKBONE|DICT|INTERRES
   145   74   75 1    
   146   74  195 1    
   147   75   76 1    
   148   75   77 1    
   149   75  196 1    
   150   76  197 1    
   151   76  198 1    
   152   76  199 1    
   153   77   78 2    
   154   77   79 am   BACKBONE|DICT|INTERRES
   155   79   80 1    
   156   79  200 1    
   157   80   81 1    
   158   80   82 1    
   159   80  201 1    
   160   81  202 1    
   161   81  203 1    
   162   81  204 1    
   163   82   83 2    
   164   82   84 am   BACKBONE|DICT|INTERRES
   165   84   85 1    
   166   84  205 1    
   167   85   86 1    
   168   85   87 1    
   169   85  206 1    
   170   86  207 1    
   171   86  208 1    
   172   86  209 1    
   173   87   88 2    
   174   87   89 am   BACKBONE|DICT|INTERRES
   175   89   90 1    
   176   89  210 1    
   177   90   91 1    
   178   90   92 1    
   179   90  211 1    
   180   91  212 1    
   181   91  213 1    
   182   91  214 1    
   183   92   93 2    
   184   92   94 am   BACKBONE|DICT|INTERRES
   185   94   95 1    
   186   94  215 1    
   187   95   96 1    
   188   95   97 1    
   189   95  216 1    
   190   96  217 1    
   191   96  218 1    
   192   96  219 1    
   193   97   98 2    
   194   97   99 am   BACKBONE|DICT|INTERRES
   195   99  100 1    
   196   99  220 1    
   197  100  101 1    
   198  100  102 1    
   199  100  221 1    
   200  101  222 1    
   201  101  223 1    
   202  101  224 1    
   203  102  103 2    
   204  102  104 am   BACKBONE|DICT|INTERRES
   205  104  105 1    
   206  104  225 1    
   207  105  106 1    
   208  105  107 1    
   209  105  226 1    
   210  106  227 1    
   211  106  228 1    
   212  106  229 1    
   213  107  108 2    
   214  107  109 am   BACKBONE|DICT|INTERRES
   215  109  110 1    
   216  109  230 1    
   217  110  111 1    
   218  110  112 1    
   219  110  231 1    
   220  111  232 1    
   221  111  233 1    
   222  111  234 1    
   223  112  113 2    
   224  112  114 am   BACKBONE|DICT|INTERRES
   225  114  115 1    
   226  114  235 1    
   227  115  116 1    
   228  115  117 1    
   229  115  236 1    
   230  116  237 1    
   231  116  238 1    
   232  116  239 1    
   233  117  118 2    
   234  117  119 am   BACKBONE|DICT|INTERRES
   235  119  120 1    
   236  119  240 1    
   237  120  121 1    
   238  120  124 1    
   239  120  241 1    
   240  121  122 am   BACKBONE|DICT|INTERRES
   241  121  123 2    
   242  122  242 1    
   243  122  243 1    
   244  124  125 1    
   245  124  244 1    
   246  124  245 1    
   247  125  126 1    
   248  126  246 1    
   249  126  247 1    
@<TRIPOS>SUBSTRUCTURE
     1 UNK         1 GROUP             0       ****    0 ROOT    
