@<TRIPOS>MOLECULE
3R540
247   249    1
SMALL
USER_CHARGES


@<TRIPOS>ATOM
      1 CA         -4.3208  -10.0712  -44.1689 C.3       0 UNK        -0.1800 
      2 C          -3.2936  -11.0901  -44.6386 C.2       0 UNK         0.5000 
      3 O          -2.0971  -10.8978  -44.4234 O.2       0 UNK        -0.5000 
      4 N          -3.7529  -12.1843  -45.2615 N.am      1 UNK        -0.5000 
      5 CA         -2.9237  -13.2554  -45.8378 C.3       1 UNK         0.1400 
      6 C6         -3.7673  -14.2944  -46.6143 C.3       23 UNK        -0.0398 
      7 S7         -4.6689  -13.5153  -47.9953 S.3       23 UNK        -0.2404 
      8 C8         -5.3494  -14.9690  -48.8604 C.3       23 UNK        -0.0205 
      9 C9         -4.3067  -15.8401  -49.5581 C.ar      23 UNK        -0.0193 
     10 C10        -3.2155  -15.2813  -50.2335 C.ar      23 UNK        -0.1150 
     11 C11        -2.2967  -16.0910  -50.9072 C.ar      23 UNK        -0.0193 
     12 C12        -2.4741  -17.4787  -50.8836 C.ar      23 UNK        -0.1150 
     13 C13        -3.5707  -18.0579  -50.2422 C.ar      23 UNK        -0.0193 
     14 C14        -4.4815  -17.2264  -49.5793 C.ar      23 UNK        -0.1150 
     15 C15        -3.7794  -19.5687  -50.3570 C.3       23 UNK        -0.0205 
     16 S16        -4.6941  -20.3234  -48.9711 S.3       23 UNK        -0.2404 
     17 C17        -3.4505  -20.2773  -47.6382 C.3       23 UNK        -0.0398 
     18 CA         -3.0602  -21.6612  -47.0598 C.3       11 UNK         0.1400 
     19 N          -1.9407  -21.5149  -46.1227 N.am      11 UNK        -0.5000 
     20 C          -1.4389  -22.4311  -45.2822 C.2       10 UNK         0.5000 
     21 O          -1.8476  -23.5891  -45.2056 O.2       10 UNK        -0.5000 
     22 CA         -0.3098  -21.9789  -44.3371 C.3       10 UNK         0.1400 
     23 CB          1.0273  -22.5898  -44.7800 C.3       10 UNK        -0.1800 
     24 N          -0.1652  -20.5241  -44.2213 N.am      10 UNK        -0.5000 
     25 C          -1.0633  -19.6907  -43.6743 C.2       9 UNK         0.5000 
     26 O          -2.1373  -20.0604  -43.1982 O.2       9 UNK        -0.5000 
     27 CA         -0.7181  -18.1901  -43.7059 C.3       9 UNK         0.1400 
     28 CB          0.2762  -17.8350  -42.5886 C.3       9 UNK        -0.1800 
     29 N          -0.1670  -17.7869  -44.9998 N.am      9 UNK        -0.5000 
     30 C          -0.8780  -17.6908  -46.1322 C.2       8 UNK         0.5000 
     31 O          -2.1001  -17.8183  -46.1741 O.2       8 UNK        -0.5000 
     32 CA         -0.0975  -17.4750  -47.4445 C.3       8 UNK         0.1400 
     33 CB          0.0239  -15.9866  -47.7993 C.3       8 UNK        -0.1800 
     34 N           1.2387  -18.0684  -47.3970 N.am      8 UNK        -0.5000 
     35 C           1.4884  -19.3833  -47.4654 C.2       7 UNK         0.5000 
     36 O           0.6161  -20.2368  -47.6223 O.2       7 UNK        -0.5000 
     37 CA          2.9588  -19.8120  -47.2905 C.3       7 UNK         0.1400 
     38 CB          3.7095  -19.7533  -48.6278 C.3       7 UNK        -0.1800 
     39 N           3.6721  -18.9867  -46.3145 N.am      7 UNK        -0.5000 
     40 C           3.4301  -18.9901  -44.9965 C.2       6 UNK         0.5000 
     41 O           2.5977  -19.7183  -44.4600 O.2       6 UNK        -0.5000 
     42 CA          4.2086  -17.9667  -44.1479 C.3       6 UNK         0.1400 
     43 CB          5.5709  -18.5366  -43.7262 C.3       6 UNK        -0.1800 
     44 N           4.4049  -16.6896  -44.8416 N.am      6 UNK        -0.5000 
     45 C           3.4067  -15.8747  -45.2050 C.2       5 UNK         0.5000 
     46 O           2.2193  -16.1034  -44.9670 O.2       5 UNK        -0.5000 
     47 CA          3.7894  -14.6425  -46.0307 C.3       5 UNK         0.1400 
     48 CB          3.9913  -15.0409  -47.5074 C.3       5 UNK        -0.1800 
     49 N           2.7263  -13.6501  -45.9082 N.am      5 UNK        -0.5000 
     50 C           2.7976  -12.3765  -46.3100 C.2       4 UNK         0.5000 
     51 O           3.7917  -11.8761  -46.8381 O.2       4 UNK        -0.5000 
     52 CA          1.5515  -11.5075  -46.0700 C.3       4 UNK         0.1400 
     53 CB          0.4863  -11.7771  -47.1444 C.3       4 UNK        -0.1800 
     54 N           0.9675  -11.6969  -44.7416 N.am      4 UNK        -0.5000 
     55 C           1.5326  -11.2923  -43.5945 C.2       3 UNK         0.5000 
     56 O           2.6434  -10.7633  -43.5353 O.2       3 UNK        -0.5000 
     57 CA          0.7273  -11.4776  -42.2941 C.3       3 UNK         0.1400 
     58 CB          0.1939  -10.1234  -41.7988 C.3       3 UNK        -0.1800 
     59 N          -0.4057  -12.3869  -42.4659 N.am      3 UNK        -0.5000 
     60 C          -0.4202  -13.6695  -42.0788 C.2       2 UNK         0.5000 
     61 O           0.5139  -14.2154  -41.4912 O.2       2 UNK        -0.5000 
     62 CA         -1.6892  -14.4894  -42.3941 C.3       2 UNK         0.1400 
     63 CB         -2.6064  -14.5580  -41.1642 C.3       2 UNK        -0.1800 
     64 N          -2.4590  -13.9894  -43.5342 N.am      2 UNK        -0.5000 
     65 C          -2.0160  -13.9470  -44.7988 C.2       1 UNK         0.5000 
     66 O          -0.9111  -14.3601  -45.1438 O.2       1 UNK        -0.5000 
     67 C          -4.2838  -22.3754  -46.4411 C.2       11 UNK         0.5000 
     68 O          -4.8215  -23.2983  -47.0548 O.2       11 UNK        -0.5000 
     69 N          -4.6703  -21.9625  -45.2258 N.am      12 UNK        -0.5000 
     70 CA         -5.8176  -22.5020  -44.4949 C.3       12 UNK         0.1400 
     71 CB         -6.1239  -21.5827  -43.3030 C.3       12 UNK        -0.1800 
     72 C          -5.6253  -23.9548  -44.0185 C.2       12 UNK         0.5000 
     73 O          -6.6050  -24.6962  -43.9368 O.2       12 UNK        -0.5000 
     74 N          -4.3784  -24.3356  -43.7131 N.am      13 UNK        -0.5000 
     75 CA         -4.0133  -25.6773  -43.2588 C.3       13 UNK         0.1400 
     76 CB         -2.7638  -25.5853  -42.3684 C.3       13 UNK        -0.1800 
     77 C          -3.7660  -26.6275  -44.4418 C.2       13 UNK         0.5000 
     78 O          -4.1724  -27.7886  -44.3909 O.2       13 UNK        -0.5000 
     79 N          -3.1054  -26.1125  -45.4857 N.am      14 UNK        -0.5000 
     80 CA         -2.7109  -26.8521  -46.6837 C.3       14 UNK         0.1400 
     81 CB         -1.5265  -26.1167  -47.3278 C.3       14 UNK        -0.1800 
     82 C          -3.8444  -27.0310  -47.7106 C.2       14 UNK         0.5000 
     83 O          -3.6501  -27.7583  -48.6841 O.2       14 UNK        -0.5000 
     84 N          -4.9776  -26.3407  -47.5114 N.am      15 UNK        -0.5000 
     85 CA         -6.1162  -26.2321  -48.4322 C.3       15 UNK         0.1400 
     86 CB         -6.8294  -27.5892  -48.6069 C.3       15 UNK        -0.1800 
     87 C          -5.6911  -25.5819  -49.7653 C.2       15 UNK         0.5000 
     88 O          -5.9422  -26.1219  -50.8433 O.2       15 UNK        -0.5000 
     89 N          -5.0008  -24.4420  -49.6334 N.am      16 UNK        -0.5000 
     90 CA         -4.4216  -23.5822  -50.6691 C.3       16 UNK         0.1400 
     91 CB         -5.4929  -23.0713  -51.6519 C.3       16 UNK        -0.1800 
     92 C          -3.1909  -24.1451  -51.4006 C.2       16 UNK         0.5000 
     93 O          -2.5599  -23.3929  -52.1409 O.2       16 UNK        -0.5000 
     94 N          -2.8152  -25.4091  -51.1590 N.am      17 UNK        -0.5000 
     95 CA         -1.6843  -26.0778  -51.8140 C.3       17 UNK         0.1400 
     96 CB         -1.6959  -27.5681  -51.4443 C.3       17 UNK        -0.1800 
     97 C          -0.3068  -25.4555  -51.5022 C.2       17 UNK         0.5000 
     98 O           0.6231  -25.6230  -52.2917 O.2       17 UNK        -0.5000 
     99 N          -0.2016  -24.7417  -50.3723 N.am      18 UNK        -0.5000 
    100 CA         1.0058  -24.0390  -49.9356 C.3       18 UNK         0.1400 
    101 CB         0.8471  -23.6256  -48.4631 C.3       18 UNK        -0.1800 
    102 C          1.3537  -22.8059  -50.7909 C.2       18 UNK         0.5000 
    103 O          2.5280  -22.4427  -50.8588 O.2       18 UNK        -0.5000 
    104 N          0.3472  -22.1777  -51.4125 N.am      19 UNK        -0.5000 
    105 CA         0.4877  -20.9173  -52.1389 C.3       19 UNK         0.1400 
    106 CB         0.4756  -19.7345  -51.1510 C.3       19 UNK        -0.1800 
    107 C         -0.5777  -20.8161  -53.2400 C.2       19 UNK         0.5000 
    108 O         -1.2694  -19.8037  -53.3548 O.2       19 UNK        -0.5000 
    109 N         -0.6850  -21.8785  -54.0496 N.am      20 UNK        -0.5000 
    110 CA        -1.6515  -22.0010  -55.1467 C.3       20 UNK         0.1400 
    111 CB        -1.5963  -23.4314  -55.7033 C.3       20 UNK        -0.1800 
    112 C         -1.4440  -20.9666  -56.2726 C.2       20 UNK         0.5000 
    113 O         -2.3984  -20.6250  -56.9732 O.2       20 UNK        -0.5000 
    114 N         -0.2111  -20.4519  -56.3925 N.am      21 UNK        -0.5000 
    115 CA         0.1990  -19.3884  -57.3122 C.3       21 UNK         0.1400 
    116 CB         1.7183  -19.1927  -57.1913 C.3       21 UNK        -0.1800 
    117 C         -0.5345  -18.0464  -57.1029 C.2       21 UNK         0.5000 
    118 O         -0.5743  -17.2378  -58.0315 O.2       21 UNK        -0.5000 
    119 N         -1.1149  -17.8356  -55.9131 N.am      22 UNK        -0.5000 
    120 CA        -1.9919  -16.6939  -55.6060 C.3       22 UNK         0.1400 
    121 C         -3.3845  -16.7562  -56.3050 C.2       22 UNK         0.5000 
    122 N         -3.8023  -17.8805  -56.8784 N.am      22 UNK        -0.7600 
    123 O         -4.0995  -15.7583  -56.3331 O.2       22 UNK        -0.5000 
    124 C124       -2.1723  -16.4945  -54.0804 C.3       23 UNK        -0.0398 
    125 S125       -0.5967  -16.3087  -53.1742 S.3       23 UNK        -0.2404 
    126 C126       -1.1363  -15.4361  -51.6596 C.3       23 UNK        -0.0205 
    127 H127       -4.2544   -9.9435  -43.0885 H         1 UNK         0.0600 
    128 H128       -5.3378  -10.3776  -44.4147 H         1 UNK         0.0600 
    129 H129       -4.1323   -9.1065  -44.6396 H         1 UNK         0.0600 
    130 H130       -4.7465  -12.2781  -45.4186 H         1 UNK         0.3000 
    131 H131       -2.2549  -12.7770  -46.5552 H         1 UNK         0.0600 
    132 H132       -4.4839  -14.7859  -45.9541 H         1 UNK         0.0800 
    133 H133       -3.1308  -15.0827  -47.0200 H         1 UNK         0.0800 
    134 H134       -6.0594  -14.6219  -49.6119 H         1 UNK         0.0800 
    135 H135       -5.9237  -15.5587  -48.1440 H         1 UNK         0.0800 
    136 H136       -3.0888  -14.2082  -50.2498 H         1 UNK         0.1150 
    137 H137       -1.7808  -18.1129  -51.4126 H         1 UNK         0.1150 
    138 H138       -5.3482  -17.6529  -49.0957 H         1 UNK         0.1150 
    139 H139       -2.8224  -20.0807  -50.4677 H         1 UNK         0.0800 
    140 H140       -4.3333  -19.7618  -51.2765 H         1 UNK         0.0800 
    141 H141       -3.8405  -19.6324  -46.8493 H         1 UNK         0.0800 
    142 H142       -2.5570  -19.7778  -48.0153 H         1 UNK         0.0800 
    143 H143       -2.6969  -22.2855  -47.8781 H         1 UNK         0.0600 
    144 H144       -1.4889  -20.6115  -46.1194 H         1 UNK         0.3000 
    145 H145       -0.5493  -22.3688  -43.3459 H         1 UNK         0.0600 
    146 H146        1.8194  -22.3676  -44.0649 H         1 UNK         0.0600 
    147 H147        0.9577  -23.6756  -44.8597 H         1 UNK         0.0600 
    148 H148        1.3366  -22.2091  -45.7529 H         1 UNK         0.0600 
    149 H149        0.7251  -20.1406  -44.5269 H         1 UNK         0.3000 
    150 H150       -1.6400  -17.6297  -43.5400 H         1 UNK         0.0600 
    151 H151        1.1687  -18.4591  -42.6227 H         1 UNK         0.0600 
    152 H152       -0.1792  -17.9714  -41.6072 H         1 UNK         0.0600 
    153 H153        0.6019  -16.7973  -42.6582 H         1 UNK         0.0600 
    154 H154        0.8189  -17.5516  -45.0263 H         1 UNK         0.3000 
    155 H155       -0.6604  -17.9615  -48.2445 H         1 UNK         0.0600 
    156 H156        0.5835  -15.4365  -47.0437 H         1 UNK         0.0600 
    157 H157       -0.9589  -15.5233  -47.8853 H         1 UNK         0.0600 
    158 H158        0.5312  -15.8504  -48.7537 H         1 UNK         0.0600 
    159 H159        2.0058  -17.4389  -47.2201 H         1 UNK         0.3000 
    160 H160        2.9694  -20.8453  -46.9383 H         1 UNK         0.0600 
    161 H161        3.7025  -18.7495  -49.0547 H         1 UNK         0.0600 
    162 H162        3.2568  -20.4246  -49.3554 H         1 UNK         0.0600 
    163 H163        4.7483  -20.0630  -48.5120 H         1 UNK         0.0600 
    164 H164        4.3798  -18.3632  -46.6728 H         1 UNK         0.3000 
    165 H165        3.6248  -17.7738  -43.2453 H         1 UNK         0.0600 
    166 H166        6.0953  -17.8518  -43.0595 H         1 UNK         0.0600 
    167 H167        6.2136  -18.7270  -44.5865 H         1 UNK         0.0600 
    168 H168        5.4500  -19.4797  -43.1914 H         1 UNK         0.0600 
    169 H169        5.3562  -16.4415  -45.0733 H         1 UNK         0.3000 
    170 H170        4.7137  -14.2244  -45.6271 H         1 UNK         0.0600 
    171 H171        4.7434  -15.8244  -47.6072 H         1 UNK         0.0600 
    172 H172        3.0682  -15.4117  -47.9537 H         1 UNK         0.0600 
    173 H173        4.3331  -14.1978  -48.1073 H         1 UNK         0.0600 
    174 H174        1.8832  -13.9932  -45.4608 H         1 UNK         0.3000 
    175 H175        1.8541  -10.4616  -46.1547 H         1 UNK         0.0600 
    176 H176        0.1530  -12.8151  -47.1320 H         1 UNK         0.0600 
    177 H177       -0.3865  -11.1391  -47.0036 H         1 UNK         0.0600 
    178 H178        0.8800  -11.5743  -48.1410 H         1 UNK         0.0600 
    179 H179        0.0551  -12.1282  -44.7031 H         1 UNK         0.3000 
    180 H180        1.4143  -11.8639  -41.5384 H         1 UNK         0.0600 
    181 H181       -0.4831   -9.6676  -42.5224 H         1 UNK         0.0600 
    182 H182        1.0097   -9.4207  -41.6248 H         1 UNK         0.0600 
    183 H183       -0.3456  -10.2331  -40.8580 H         1 UNK         0.0600 
    184 H184       -1.2018  -12.0101  -42.9695 H         1 UNK         0.3000 
    185 H185       -1.3683  -15.5014  -42.6344 H         1 UNK         0.0600 
    186 H186       -3.4621  -15.2086  -41.3452 H         1 UNK         0.0600 
    187 H187       -2.0730  -14.9583  -40.3009 H         1 UNK         0.0600 
    188 H188       -2.9839  -13.5723  -40.8890 H         1 UNK         0.0600 
    189 H189       -3.3687  -13.6007  -43.3324 H         1 UNK         0.3000 
    190 H190       -4.1473  -21.2263  -44.7719 H         1 UNK         0.3000 
    191 H191       -6.6797  -22.4889  -45.1653 H         1 UNK         0.0600 
    192 H192       -6.3531  -20.5699  -43.6348 H         1 UNK         0.0600 
    193 H193       -5.2821  -21.5271  -42.6114 H         1 UNK         0.0600 
    194 H194       -6.9875  -21.9430  -42.7422 H         1 UNK         0.0600 
    195 H195       -3.6180  -23.6894  -43.8769 H         1 UNK         0.3000 
    196 H196       -4.8251  -26.0911  -42.6566 H         1 UNK         0.0600 
    197 H197       -1.9096  -25.1746  -42.9081 H         1 UNK         0.0600 
    198 H198       -2.9460  -24.9527  -41.4995 H         1 UNK         0.0600 
    199 H199       -2.4755  -26.5701  -41.9987 H         1 UNK         0.0600 
    200 H200       -2.7679  -25.1542  -45.4206 H         1 UNK         0.3000 
    201 H201       -2.3759  -27.8485  -46.3883 H         1 UNK         0.0600 
    202 H202       -1.8099  -25.1161  -47.6567 H         1 UNK         0.0600 
    203 H203       -1.1464  -26.6585  -48.1941 H         1 UNK         0.0600 
    204 H204       -0.7012  -26.0157  -46.6227 H         1 UNK         0.0600 
    205 H205       -5.0074  -25.7288  -46.7072 H         1 UNK         0.3000 
    206 H206       -6.8249  -25.5458  -47.9661 H         1 UNK         0.0600 
    207 H207       -7.1161  -28.0095  -47.6429 H         1 UNK         0.0600 
    208 H208       -7.7402  -27.4749  -49.1956 H         1 UNK         0.0600 
    209 H209       -6.2024  -28.3200  -49.1181 H         1 UNK         0.0600 
    210 H210       -4.8763  -24.0974  -48.6823 H         1 UNK         0.3000 
    211 H211       -4.0354  -22.7213  -50.1306 H         1 UNK         0.0600 
    212 H212       -5.0770  -22.3223  -52.3270 H         1 UNK         0.0600 
    213 H213       -6.3208  -22.6014  -51.1208 H         1 UNK         0.0600 
    214 H214       -5.8976  -23.8742  -52.2681 H         1 UNK         0.0600 
    215 H215       -3.3865  -25.9760  -50.5470 H         1 UNK         0.3000 
    216 H216       -1.8370  -25.9963  -52.8921 H         1 UNK         0.0600 
    217 H217       -1.5182  -27.7203  -50.3797 H         1 UNK         0.0600 
    218 H218       -0.9199  -28.1108  -51.9856 H         1 UNK         0.0600 
    219 H219       -2.6507  -28.0312  -51.6942 H         1 UNK         0.0600 
    220 H220       -1.0178  -24.6566  -49.7873 H         1 UNK         0.3000 
    221 H221        1.8474  -24.7314  -50.0052 H         1 UNK         0.0600 
    222 H222        0.7724  -24.4959  -47.8131 H         1 UNK         0.0600 
    223 H223       -0.0374  -23.0064  -48.3076 H         1 UNK         0.0600 
    224 H224        1.7089  -23.0493  -48.1237 H         1 UNK         0.0600 
    225 H225       -0.5863  -22.5711  -51.3808 H         1 UNK         0.3000 
    226 H226        1.4473  -20.9072  -52.6600 H         1 UNK         0.0600 
    227 H227       -0.4109  -19.7487  -50.5176 H         1 UNK         0.0600 
    228 H228        1.3439  -19.7635  -50.4966 H         1 UNK         0.0600 
    229 H229        0.5072  -18.7777  -51.6725 H         1 UNK         0.0600 
    230 H230       -0.0983  -22.6810  -53.8732 H         1 UNK         0.3000 
    231 H231       -2.6475  -21.8348  -54.7305 H         1 UNK         0.0600 
    232 H232       -0.6116  -23.6683  -56.1080 H         1 UNK         0.0600 
    233 H233       -2.3237  -23.5675  -56.5046 H         1 UNK         0.0600 
    234 H234       -1.8274  -24.1629  -54.9284 H         1 UNK         0.0600 
    235 H235        0.4995  -20.7974  -55.7652 H         1 UNK         0.3000 
    236 H236       -0.0255  -19.7251  -58.3262 H         1 UNK         0.0600 
    237 H237        2.2555  -20.1128  -57.4224 H         1 UNK         0.0600 
    238 H238        2.0713  -18.4296  -57.8863 H         1 UNK         0.0600 
    239 H239        2.0035  -18.8784  -56.1865 H         1 UNK         0.0600 
    240 H240       -1.0368  -18.5393  -55.1890 H         1 UNK         0.3000 
    241 H241       -1.5027  -15.7978  -55.9924 H         1 UNK         0.0600 
    242 H242       -4.7034  -17.8980  -57.3290 H         1 UNK         0.3800 
    243 H243       -3.2330  -18.7190  -56.8705 H         1 UNK         0.3800 
    244 H244       -2.7137  -17.3427  -53.6588 H         1 UNK         0.0800 
    245 H245       -2.7836  -15.6117  -53.8843 H         1 UNK         0.0800 
    246 H246       -1.4032  -14.4156  -51.9385 H         1 UNK         0.0800 
    247 H247       -0.2845  -15.3569  -50.9843 H         1 UNK         0.0800 
@<TRIPOS>BOND
     1    1    2 1    
     2    1  127 1    
     3    1  128 1    
     4    1  129 1    
     5    2    3 2    
     6    2    4 am   BACKBONE|DICT|INTERRES
     7    4    5 1    
     8    4  130 1    
     9    5    6 1    
    10    5   65 1    
    11    5  131 1    
    12    6    7 1    
    13    6  132 1    
    14    6  133 1    
    15    7    8 1    
    16    8    9 1    
    17    8  134 1    
    18    8  135 1    
    19    9   10 ar   
    20    9   14 ar   
    21   10   11 ar   
    22   10  136 1    
    23   11   12 ar   
    24   11  126 1    
    25   12   13 ar   
    26   12  137 1    
    27   13   14 ar   
    28   13   15 1    
    29   14  138 1    
    30   15   16 1    
    31   15  139 1    
    32   15  140 1    
    33   16   17 1    
    34   17   18 1    
    35   17  141 1    
    36   17  142 1    
    37   18   19 1    
    38   18   67 1    
    39   18  143 1    
    40   19   20 am   BACKBONE|DICT|INTERRES
    41   19  144 1    
    42   20   21 2    
    43   20   22 1    
    44   22   23 1    
    45   22   24 1    
    46   22  145 1    
    47   23  146 1    
    48   23  147 1    
    49   23  148 1    
    50   24   25 am   BACKBONE|DICT|INTERRES
    51   24  149 1    
    52   25   26 2    
    53   25   27 1    
    54   27   28 1    
    55   27   29 1    
    56   27  150 1    
    57   28  151 1    
    58   28  152 1    
    59   28  153 1    
    60   29   30 am   BACKBONE|DICT|INTERRES
    61   29  154 1    
    62   30   31 2    
    63   30   32 1    
    64   32   33 1    
    65   32   34 1    
    66   32  155 1    
    67   33  156 1    
    68   33  157 1    
    69   33  158 1    
    70   34   35 am   BACKBONE|DICT|INTERRES
    71   34  159 1    
    72   35   36 2    
    73   35   37 1    
    74   37   38 1    
    75   37   39 1    
    76   37  160 1    
    77   38  161 1    
    78   38  162 1    
    79   38  163 1    
    80   39   40 am   BACKBONE|DICT|INTERRES
    81   39  164 1    
    82   40   41 2    
    83   40   42 1    
    84   42   43 1    
    85   42   44 1    
    86   42  165 1    
    87   43  166 1    
    88   43  167 1    
    89   43  168 1    
    90   44   45 am   BACKBONE|DICT|INTERRES
    91   44  169 1    
    92   45   46 2    
    93   45   47 1    
    94   47   48 1    
    95   47   49 1    
    96   47  170 1    
    97   48  171 1    
    98   48  172 1    
    99   48  173 1    
   100   49   50 am   BACKBONE|DICT|INTERRES
   101   49  174 1    
   102   50   51 2    
   103   50   52 1    
   104   52   53 1    
   105   52   54 1    
   106   52  175 1    
   107   53  176 1    
   108   53  177 1    
   109   53  178 1    
   110   54   55 am   BACKBONE|DICT|INTERRES
   111   54  179 1    
   112   55   56 2    
   113   55   57 1    
   114   57   58 1    
   115   57   59 1    
   116   57  180 1    
   117   58  181 1    
   118   58  182 1    
   119   58  183 1    
   120   59   60 am   BACKBONE|DICT|INTERRES
   121   59  184 1    
   122   60   61 2    
   123   60   62 1    
   124   62   63 1    
   125   62   64 1    
   126   62  185 1    
   127   63  186 1    
   128   63  187 1    
   129   63  188 1    
   130   64   65 am   BACKBONE|DICT|INTERRES
   131   64  189 1    
   132   65   66 2    
   133   67   68 2    
   134   67   69 am   BACKBONE|DICT|INTERRES
   135   69   70 1    
   136   69  190 1    
   137   70   71 1    
   138   70   72 1    
   139   70  191 1    
   140   71  192 1    
   141   71  193 1    
   142   71  194 1    
   143   72   73 2    
   144   72   74 am   BACKBONE|DICT|INTERRES
   145   74   75 1    
   146   74  195 1    
   147   75   76 1    
   148   75   77 1    
   149   75  196 1    
   150   76  197 1    
   151   76  198 1    
   152   76  199 1    
   153   77   78 2    
   154   77   79 am   BACKBONE|DICT|INTERRES
   155   79   80 1    
   156   79  200 1    
   157   80   81 1    
   158   80   82 1    
   159   80  201 1    
   160   81  202 1    
   161   81  203 1    
   162   81  204 1    
   163   82   83 2    
   164   82   84 am   BACKBONE|DICT|INTERRES
   165   84   85 1    
   166   84  205 1    
   167   85   86 1    
   168   85   87 1    
   169   85  206 1    
   170   86  207 1    
   171   86  208 1    
   172   86  209 1    
   173   87   88 2    
   174   87   89 am   BACKBONE|DICT|INTERRES
   175   89   90 1    
   176   89  210 1    
   177   90   91 1    
   178   90   92 1    
   179   90  211 1    
   180   91  212 1    
   181   91  213 1    
   182   91  214 1    
   183   92   93 2    
   184   92   94 am   BACKBONE|DICT|INTERRES
   185   94   95 1    
   186   94  215 1    
   187   95   96 1    
   188   95   97 1    
   189   95  216 1    
   190   96  217 1    
   191   96  218 1    
   192   96  219 1    
   193   97   98 2    
   194   97   99 am   BACKBONE|DICT|INTERRES
   195   99  100 1    
   196   99  220 1    
   197  100  101 1    
   198  100  102 1    
   199  100  221 1    
   200  101  222 1    
   201  101  223 1    
   202  101  224 1    
   203  102  103 2    
   204  102  104 am   BACKBONE|DICT|INTERRES
   205  104  105 1    
   206  104  225 1    
   207  105  106 1    
   208  105  107 1    
   209  105  226 1    
   210  106  227 1    
   211  106  228 1    
   212  106  229 1    
   213  107  108 2    
   214  107  109 am   BACKBONE|DICT|INTERRES
   215  109  110 1    
   216  109  230 1    
   217  110  111 1    
   218  110  112 1    
   219  110  231 1    
   220  111  232 1    
   221  111  233 1    
   222  111  234 1    
   223  112  113 2    
   224  112  114 am   BACKBONE|DICT|INTERRES
   225  114  115 1    
   226  114  235 1    
   227  115  116 1    
   228  115  117 1    
   229  115  236 1    
   230  116  237 1    
   231  116  238 1    
   232  116  239 1    
   233  117  118 2    
   234  117  119 am   BACKBONE|DICT|INTERRES
   235  119  120 1    
   236  119  240 1    
   237  120  121 1    
   238  120  124 1    
   239  120  241 1    
   240  121  122 am   BACKBONE|DICT|INTERRES
   241  121  123 2    
   242  122  242 1    
   243  122  243 1    
   244  124  125 1    
   245  124  244 1    
   246  124  245 1    
   247  125  126 1    
   248  126  246 1    
   249  126  247 1    
@<TRIPOS>SUBSTRUCTURE
     1 UNK         1 GROUP             0       ****    0 ROOT    
