@<TRIPOS>MOLECULE
3R540
247   249    1
SMALL
USER_CHARGES


@<TRIPOS>ATOM
      1 CA         -0.1823  -10.6299  -53.4244 C.3       0 UNK        -0.1800 
      2 C          -0.5830  -11.4942  -52.2365 C.2       0 UNK         0.5000 
      3 O          -1.1888  -10.9846  -51.2934 O.2       0 UNK        -0.5000 
      4 N          -0.2482  -12.7910  -52.2935 N.am      1 UNK        -0.5000 
      5 CA         -0.4922  -13.8233  -51.2727 C.3       1 UNK         0.1400 
      6 C6         -1.9967  -14.0073  -50.9101 C.3       23 UNK        -0.0398 
      7 S7         -3.0148  -14.4196  -52.3743 S.3       23 UNK        -0.2404 
      8 C8         -3.3296  -16.2028  -52.1534 C.3       23 UNK        -0.0205 
      9 C9         -2.0471  -17.0067  -51.9947 C.ar      23 UNK        -0.0193 
     10 C10        -1.1217  -17.0806  -53.0374 C.ar      23 UNK        -0.1150 
     11 C11         0.0772  -17.7797  -52.8740 C.ar      23 UNK        -0.0193 
     12 C12         0.3340  -18.4348  -51.6647 C.ar      23 UNK        -0.1150 
     13 C13        -0.5867  -18.3716  -50.6087 C.ar      23 UNK        -0.0193 
     14 C14        -1.7728  -17.6564  -50.7899 C.ar      23 UNK        -0.1150 
     15 C15        -0.3630  -19.0321  -49.2482 C.3       23 UNK        -0.0205 
     16 S16         1.3168  -19.6740  -48.9286 S.3       23 UNK        -0.2404 
     17 C17         1.2360  -19.9362  -47.1228 C.3       23 UNK        -0.0398 
     18 CA          0.9587  -21.4007  -46.7075 C.3       11 UNK         0.1400 
     19 N           1.1722  -21.6009  -45.2757 N.am      11 UNK        -0.5000 
     20 C           1.1858  -22.7875  -44.6538 C.2       10 UNK         0.5000 
     21 O           1.1003  -23.8697  -45.2350 O.2       10 UNK        -0.5000 
     22 CA          1.2617  -22.7520  -43.1160 C.3       10 UNK         0.1400 
     23 CB          2.7092  -22.5550  -42.6417 C.3       10 UNK        -0.1800 
     24 N           0.4085  -21.7122  -42.5355 N.am      10 UNK        -0.5000 
     25 C          -0.9287  -21.6862  -42.6409 C.2       9 UNK         0.5000 
     26 O          -1.5891  -22.5580  -43.2084 O.2       9 UNK        -0.5000 
     27 CA         -1.6453  -20.4592  -42.0488 C.3       9 UNK         0.1400 
     28 CB         -1.7684  -20.5855  -40.5232 C.3       9 UNK        -0.1800 
     29 N          -0.9860  -19.1970  -42.3915 N.am      9 UNK        -0.5000 
     30 C          -0.8629  -18.7249  -43.6406 C.2       8 UNK         0.5000 
     31 O          -1.3214  -19.2874  -44.6315 O.2       8 UNK        -0.5000 
     32 CA         -0.0386  -17.4448  -43.8387 C.3       8 UNK         0.1400 
     33 CB         -0.8596  -16.1907  -43.5072 C.3       8 UNK        -0.1800 
     34 N           1.1978  -17.4510  -43.0655 N.am      8 UNK        -0.5000 
     35 C           2.1965  -18.3300  -43.2161 C.2       7 UNK         0.5000 
     36 O           2.2005  -19.2252  -44.0599 O.2       7 UNK        -0.5000 
     37 CA          3.3628  -18.2191  -42.2224 C.3       7 UNK         0.1400 
     38 CB          4.3470  -17.1205  -42.6489 C.3       7 UNK        -0.1800 
     39 N           2.8931  -17.9566  -40.8630 N.am      7 UNK        -0.5000 
     40 C           2.2402  -18.8466  -40.1040 C.2       6 UNK         0.5000 
     41 O           1.9814  -19.9964  -40.4632 O.2       6 UNK        -0.5000 
     42 CA          1.7720  -18.3520  -38.7231 C.3       6 UNK         0.1400 
     43 CB          2.9340  -18.3602  -37.7183 C.3       6 UNK        -0.1800 
     44 N           1.1773  -17.0138  -38.7703 N.am      6 UNK        -0.5000 
     45 C           0.0163  -16.7348  -39.3775 C.2       5 UNK         0.5000 
     46 O          -0.6600  -17.5715  -39.9751 O.2       5 UNK        -0.5000 
     47 CA         -0.4623  -15.2710  -39.3387 C.3       5 UNK         0.1400 
     48 CB         -1.0972  -14.9495  -37.9769 C.3       5 UNK        -0.1800 
     49 N           0.5477  -14.2524  -39.6556 N.am      5 UNK        -0.5000 
     50 C           1.3634  -14.2549  -40.7188 C.2       4 UNK         0.5000 
     51 O           1.5233  -15.2273  -41.4533 O.2       4 UNK        -0.5000 
     52 CA          2.0956  -12.9381  -41.0316 C.3       4 UNK         0.1400 
     53 CB          3.6162  -13.0589  -40.8104 C.3       4 UNK        -0.1800 
     54 N           1.7485  -12.4634  -42.3799 N.am      4 UNK        -0.5000 
     55 C           2.1275  -12.9583  -43.5687 C.2       3 UNK         0.5000 
     56 O           3.0082  -13.8064  -43.7351 O.2       3 UNK        -0.5000 
     57 CA          1.3902  -12.3935  -44.7937 C.3       3 UNK         0.1400 
     58 CB          1.8986  -10.9878  -45.1566 C.3       3 UNK        -0.1800 
     59 N           1.6054  -13.2909  -45.9246 N.am      3 UNK        -0.5000 
     60 C           0.7013  -13.6232  -46.8501 C.2       2 UNK         0.5000 
     61 O          -0.4487  -13.1778  -46.8825 O.2       2 UNK        -0.5000 
     62 CA          1.1642  -14.6642  -47.8893 C.3       2 UNK         0.1400 
     63 CB          1.0991  -16.0809  -47.3001 C.3       2 UNK        -0.1800 
     64 N           0.3748  -14.6337  -49.1226 N.am      2 UNK        -0.5000 
     65 C           0.4123  -13.6464  -50.0274 C.2       1 UNK         0.5000 
     66 O           1.1652  -12.6734  -49.9246 O.2       1 UNK        -0.5000 
     67 C          -0.4474  -21.8711  -47.1286 C.2       11 UNK         0.5000 
     68 O          -0.5564  -22.6737  -48.0524 O.2       11 UNK        -0.5000 
     69 N          -1.4939  -21.3974  -46.4353 N.am      12 UNK        -0.5000 
     70 CA         -2.8999  -21.7022  -46.7135 C.3       12 UNK         0.1400 
     71 CB         -3.8069  -20.9295  -45.7455 C.3       12 UNK        -0.1800 
     72 C          -3.2357  -23.2011  -46.6697 C.2       12 UNK         0.5000 
     73 O          -4.0416  -23.6562  -47.4811 O.2       12 UNK        -0.5000 
     74 N          -2.5919  -23.9408  -45.7571 N.am      13 UNK        -0.5000 
     75 CA         -2.7053  -25.3946  -45.6384 C.3       13 UNK         0.1400 
     76 CB         -1.9607  -25.8579  -44.3775 C.3       13 UNK        -0.1800 
     77 C          -2.1947  -26.1504  -46.8821 C.2       13 UNK         0.5000 
     78 O          -2.7741  -27.1746  -47.2454 O.2       13 UNK        -0.5000 
     79 N          -1.1396  -25.6274  -47.5210 N.am      14 UNK        -0.5000 
     80 CA         -0.5863  -26.1547  -48.7682 C.3       14 UNK         0.1400 
     81 CB          0.9049  -25.7930  -48.8528 C.3       14 UNK        -0.1800 
     82 C          -1.3458  -25.6222  -49.9967 C.2       14 UNK         0.5000 
     83 O          -1.6044  -26.3796  -50.9316 O.2       14 UNK        -0.5000 
     84 N          -1.7021  -24.3325  -49.9637 N.am      15 UNK        -0.5000 
     85 CA         -2.3395  -23.5781  -51.0433 C.3       15 UNK         0.1400 
     86 CB         -1.9438  -22.0968  -50.9032 C.3       15 UNK        -0.1800 
     87 C          -3.8705  -23.7445  -51.1213 C.2       15 UNK         0.5000 
     88 O          -4.5294  -22.8885  -51.7104 O.2       15 UNK        -0.5000 
     89 N          -4.4180  -24.8160  -50.5294 N.am      16 UNK        -0.5000 
     90 CA         -5.8284  -25.2229  -50.5698 C.3       16 UNK         0.1400 
     91 CB         -6.1930  -25.7259  -51.9824 C.3       16 UNK        -0.1800 
     92 C          -6.7897  -24.1293  -50.0565 C.2       16 UNK         0.5000 
     93 O          -7.7285  -23.7453  -50.7564 O.2       16 UNK        -0.5000 
     94 N          -6.5080  -23.6411  -48.8412 N.am      17 UNK        -0.5000 
     95 CA         -7.1791  -22.5391  -48.1458 C.3       17 UNK         0.1400 
     96 CB         -8.6824  -22.8178  -47.9301 C.3       17 UNK        -0.1800 
     97 C          -6.8848  -21.1743  -48.8002 C.2       17 UNK         0.5000 
     98 O          -7.7793  -20.3345  -48.9122 O.2       17 UNK        -0.5000 
     99 N          -5.6142  -20.9830  -49.1882 N.am      18 UNK        -0.5000 
    100 CA        -5.0319  -19.7616  -49.7565 C.3       18 UNK         0.1400 
    101 CB        -5.0470  -18.6148  -48.7217 C.3       18 UNK        -0.1800 
    102 C         -5.6546  -19.3670  -51.1102 C.2       18 UNK         0.5000 
    103 O         -6.0530  -18.2161  -51.3022 O.2       18 UNK        -0.5000 
    104 N         -5.7219  -20.3338  -52.0329 N.am      19 UNK        -0.5000 
    105 CA        -6.1164  -20.1148  -53.4213 C.3       19 UNK         0.1400 
    106 CB        -6.4028  -21.4736  -54.0799 C.3       19 UNK        -0.1800 
    107 C         -5.0161  -19.3671  -54.1967 C.2       19 UNK         0.5000 
    108 O         -3.8290  -19.5447  -53.9129 O.2       19 UNK        -0.5000 
    109 N         -5.4270  -18.5902  -55.2076 N.am      20 UNK        -0.5000 
    110 CA        -4.5495  -17.8000  -56.0820 C.3       20 UNK         0.1400 
    111 CB        -5.4194  -16.8855  -56.9582 C.3       20 UNK        -0.1800 
    112 C         -3.5901  -18.6381  -56.9551 C.2       20 UNK         0.5000 
    113 O         -2.6308  -18.0902  -57.4981 O.2       20 UNK        -0.5000 
    114 N         -3.8543  -19.9475  -57.0627 N.am      21 UNK        -0.5000 
    115 CA        -2.9768  -20.9421  -57.6796 C.3       21 UNK         0.1400 
    116 CB        -3.7862  -22.2278  -57.9135 C.3       21 UNK        -0.1800 
    117 C         -1.7096  -21.2460  -56.8496 C.2       21 UNK         0.5000 
    118 O         -0.7664  -21.8178  -57.3990 O.2       21 UNK        -0.5000 
    119 N         -1.7065  -20.8623  -55.5637 N.am      22 UNK        -0.5000 
    120 CA        -0.6282  -21.0710  -54.5824 C.3       22 UNK         0.1400 
    121 C         -0.4418  -22.5665  -54.1765 C.2       22 UNK         0.5000 
    122 N          0.5538  -22.8860  -53.3584 N.am      22 UNK        -0.7600 
    123 O         -1.2061  -23.4492  -54.5610 O.2       22 UNK        -0.5000 
    124 C124        0.7167  -20.3934  -54.9833 C.3       23 UNK        -0.0398 
    125 S125        0.5505  -18.6433  -55.4780 S.3       23 UNK        -0.2404 
    126 C126        1.1164  -17.7703  -53.9857 C.3       23 UNK        -0.0205 
    127 H127       -1.0669  -10.1838  -53.8789 H         1 UNK         0.0600 
    128 H128        0.3384  -11.2062  -54.1896 H         1 UNK         0.0600 
    129 H129        0.4769   -9.8257  -53.0975 H         1 UNK         0.0600 
    130 H130        0.2646  -13.1157  -53.1005 H         1 UNK         0.3000 
    131 H131       -0.1527  -14.7523  -51.7314 H         1 UNK         0.0600 
    132 H132       -2.1314  -14.7902  -50.1636 H         1 UNK         0.0800 
    133 H133       -2.4004  -13.1034  -50.4536 H         1 UNK         0.0800 
    134 H134       -3.9838  -16.3396  -51.2912 H         1 UNK         0.0800 
    135 H135       -3.8819  -16.5788  -53.0151 H         1 UNK         0.0800 
    136 H136       -1.3225  -16.5693  -53.9686 H         1 UNK         0.1150 
    137 H137        1.2631  -18.9726  -51.5496 H         1 UNK         0.1150 
    138 H138       -2.4814  -17.5937  -49.9779 H         1 UNK         0.1150 
    139 H139       -0.6102  -18.3059  -48.4733 H         1 UNK         0.0800 
    140 H140       -1.0765  -19.8478  -49.1411 H         1 UNK         0.0800 
    141 H141        0.5124  -19.2563  -46.6719 H         1 UNK         0.0800 
    142 H142        2.2052  -19.6301  -46.7269 H         1 UNK         0.0800 
    143 H143        1.6814  -22.0347  -47.2259 H         1 UNK         0.0600 
    144 H144        1.3139  -20.7608  -44.7207 H         1 UNK         0.3000 
    145 H145        0.9103  -23.7170  -42.7449 H         1 UNK         0.0600 
    146 H146        2.7771  -22.6036  -41.5547 H         1 UNK         0.0600 
    147 H147        3.3612  -23.3313  -43.0441 H         1 UNK         0.0600 
    148 H148        3.1105  -21.5918  -42.9577 H         1 UNK         0.0600 
    149 H149        0.8759  -20.9683  -42.0293 H         1 UNK         0.3000 
    150 H150       -2.6534  -20.4320  -42.4674 H         1 UNK         0.0600 
    151 H151       -2.2477  -21.5248  -40.2449 H         1 UNK         0.0600 
    152 H152       -2.3728  -19.7780  -40.1099 H         1 UNK         0.0600 
    153 H153       -0.7930  -20.5553  -40.0361 H         1 UNK         0.0600 
    154 H154       -0.6182  -18.6518  -41.6173 H         1 UNK         0.3000 
    155 H155        0.2371  -17.3987  -44.8920 H         1 UNK         0.0600 
    156 H156       -1.1382  -16.1598  -42.4536 H         1 UNK         0.0600 
    157 H157       -0.2980  -15.2836  -43.7320 H         1 UNK         0.0600 
    158 H158       -1.7785  -16.1587  -44.0937 H         1 UNK         0.0600 
    159 H159        1.3035  -16.7112  -42.3715 H         1 UNK         0.3000 
    160 H160        3.8956  -19.1723  -42.2241 H         1 UNK         0.0600 
    161 H161        5.2113  -17.0857  -41.9858 H         1 UNK         0.0600 
    162 H162        3.8789  -16.1359  -42.6410 H         1 UNK         0.0600 
    163 H163        4.7174  -17.2990  -43.6591 H         1 UNK         0.0600 
    164 H164        2.9873  -17.0093  -40.5263 H         1 UNK         0.3000 
    165 H165        1.0105  -19.0482  -38.3647 H         1 UNK         0.0600 
    166 H166        2.5912  -18.0960  -36.7177 H         1 UNK         0.0600 
    167 H167        3.3872  -19.3504  -37.6545 H         1 UNK         0.0600 
    168 H168        3.7186  -17.6573  -38.0011 H         1 UNK         0.0600 
    169 H169        1.6813  -16.2655  -38.3177 H         1 UNK         0.3000 
    170 H170       -1.2429  -15.1775  -40.0962 H         1 UNK         0.0600 
    171 H171       -0.3566  -14.9535  -37.1763 H         1 UNK         0.0600 
    172 H172       -1.5771  -13.9707  -37.9856 H         1 UNK         0.0600 
    173 H173       -1.8638  -15.6817  -37.7189 H         1 UNK         0.0600 
    174 H174        0.5064  -13.4151  -39.0928 H         1 UNK         0.3000 
    175 H175        1.7291  -12.1719  -40.3466 H         1 UNK         0.0600 
    176 H176        4.1318  -12.1430  -41.0987 H         1 UNK         0.0600 
    177 H177        4.0520  -13.8832  -41.3753 H         1 UNK         0.0600 
    178 H178        3.8378  -13.2409  -39.7583 H         1 UNK         0.0600 
    179 H179        1.0257  -11.7573  -42.3908 H         1 UNK         0.3000 
    180 H180        0.3258  -12.3464  -44.5535 H         1 UNK         0.0600 
    181 H181        2.9652  -10.9939  -45.3848 H         1 UNK         0.0600 
    182 H182        1.7412  -10.2868  -44.3362 H         1 UNK         0.0600 
    183 H183        1.3730  -10.5922  -46.0260 H         1 UNK         0.0600 
    184 H184        2.4979  -13.7681  -45.8987 H         1 UNK         0.3000 
    185 H185        2.2031  -14.4471  -48.1474 H         1 UNK         0.0600 
    186 H186        1.6946  -16.1579  -46.3894 H         1 UNK         0.0600 
    187 H187        0.0755  -16.3645  -47.0532 H         1 UNK         0.0600 
    188 H188        1.4945  -16.8134  -48.0029 H         1 UNK         0.0600 
    189 H189       -0.2519  -15.4106  -49.2659 H         1 UNK         0.3000 
    190 H190       -1.3294  -20.7226  -45.6895 H         1 UNK         0.3000 
    191 H191       -3.1083  -21.3495  -47.7240 H         1 UNK         0.0600 
    192 H192       -3.6457  -19.8548  -45.8229 H         1 UNK         0.0600 
    193 H193       -4.8600  -21.1142  -45.9607 H         1 UNK         0.0600 
    194 H194       -3.6259  -21.2192  -44.7101 H         1 UNK         0.0600 
    195 H195       -1.9864  -23.4720  -45.0918 H         1 UNK         0.3000 
    196 H196       -3.7634  -25.6358  -45.5175 H         1 UNK         0.0600 
    197 H197       -2.0493  -26.9369  -44.2447 H         1 UNK         0.0600 
    198 H198       -2.3676  -25.3850  -43.4834 H         1 UNK         0.0600 
    199 H199       -0.8980  -25.6182  -44.4275 H         1 UNK         0.0600 
    200 H200       -0.7431  -24.7608  -47.1794 H         1 UNK         0.3000 
    201 H201       -0.6670  -27.2438  -48.7671 H         1 UNK         0.0600 
    202 H202        1.4576  -26.2047  -48.0081 H         1 UNK         0.0600 
    203 H203        1.0617  -24.7137  -48.8588 H         1 UNK         0.0600 
    204 H204        1.3526  -26.1947  -49.7625 H         1 UNK         0.0600 
    205 H205       -1.4028  -23.7793  -49.1626 H         1 UNK         0.3000 
    206 H206       -1.9444  -23.9435  -51.9915 H         1 UNK         0.0600 
    207 H207       -0.8605  -21.9750  -50.8905 H         1 UNK         0.0600 
    208 H208       -2.3252  -21.4969  -51.7307 H         1 UNK         0.0600 
    209 H209       -2.3357  -21.6738  -49.9803 H         1 UNK         0.0600 
    210 H210       -3.7929  -25.4389  -50.0383 H         1 UNK         0.3000 
    211 H211       -5.9274  -26.0658  -49.8844 H         1 UNK         0.0600 
    212 H212       -6.1360  -24.9279  -52.7238 H         1 UNK         0.0600 
    213 H213       -7.2085  -26.1230  -52.0061 H         1 UNK         0.0600 
    214 H214       -5.5246  -26.5260  -52.3002 H         1 UNK         0.0600 
    215 H215       -5.6634  -23.9740  -48.3805 H         1 UNK         0.3000 
    216 H216       -6.7215  -22.4962  -47.1565 H         1 UNK         0.0600 
    217 H217       -9.1209  -22.0764  -47.2613 H         1 UNK         0.0600 
    218 H218       -8.8418  -23.7964  -47.4776 H         1 UNK         0.0600 
    219 H219       -9.2449  -22.7821  -48.8631 H         1 UNK         0.0600 
    220 H220       -4.9918  -21.7741  -49.1103 H         1 UNK         0.3000 
    221 H221       -3.9866  -19.9851  -49.9703 H         1 UNK         0.0600 
    222 H222       -6.0603  -18.3508  -48.4193 H         1 UNK         0.0600 
    223 H223       -4.4897  -18.8849  -47.8264 H         1 UNK         0.0600 
    224 H224       -4.5910  -17.7106  -49.1235 H         1 UNK         0.0600 
    225 H225       -5.3394  -21.2540  -51.8219 H         1 UNK         0.3000 
    226 H226       -7.0316  -19.5192  -53.4327 H         1 UNK         0.0600 
    227 H227       -7.1503  -22.0347  -53.5180 H         1 UNK         0.0600 
    228 H228       -6.7841  -21.3466  -55.0936 H         1 UNK         0.0600 
    229 H229       -5.5036  -22.0884  -54.1417 H         1 UNK         0.0600 
    230 H230       -6.4175  -18.5133  -55.3903 H         1 UNK         0.3000 
    231 H231       -3.9264  -17.1694  -55.4444 H         1 UNK         0.0600 
    232 H232       -6.0822  -17.4613  -57.6053 H         1 UNK         0.0600 
    233 H233       -4.8026  -16.2538  -57.5988 H         1 UNK         0.0600 
    234 H234       -6.0344  -16.2229  -56.3489 H         1 UNK         0.0600 
    235 H235       -4.6737  -20.3011  -56.5927 H         1 UNK         0.3000 
    236 H236       -2.6509  -20.5591  -58.6489 H         1 UNK         0.0600 
    237 H237       -4.6507  -22.0409  -58.5508 H         1 UNK         0.0600 
    238 H238       -3.1787  -22.9878  -58.4066 H         1 UNK         0.0600 
    239 H239       -4.1441  -22.6528  -56.9747 H         1 UNK         0.0600 
    240 H240       -2.5311  -20.4052  -55.1894 H         1 UNK         0.3000 
    241 H241       -0.9853  -20.5759  -53.6787 H         1 UNK         0.0600 
    242 H242        1.1920  -22.1985  -52.9924 H         1 UNK         0.3800 
    243 H243        0.6701  -23.8522  -53.0977 H         1 UNK         0.3800 
    244 H244        1.4341  -20.4510  -54.1645 H         1 UNK         0.0800 
    245 H245        1.1766  -20.9296  -55.8144 H         1 UNK         0.0800 
    246 H246        1.3289  -16.7341  -54.2523 H         1 UNK         0.0800 
    247 H247        2.0633  -18.1932  -53.6467 H         1 UNK         0.0800 
@<TRIPOS>BOND
     1    1    2 1    
     2    1  127 1    
     3    1  128 1    
     4    1  129 1    
     5    2    3 2    
     6    2    4 am   BACKBONE|DICT|INTERRES
     7    4    5 1    
     8    4  130 1    
     9    5    6 1    
    10    5   65 1    
    11    5  131 1    
    12    6    7 1    
    13    6  132 1    
    14    6  133 1    
    15    7    8 1    
    16    8    9 1    
    17    8  134 1    
    18    8  135 1    
    19    9   10 ar   
    20    9   14 ar   
    21   10   11 ar   
    22   10  136 1    
    23   11   12 ar   
    24   11  126 1    
    25   12   13 ar   
    26   12  137 1    
    27   13   14 ar   
    28   13   15 1    
    29   14  138 1    
    30   15   16 1    
    31   15  139 1    
    32   15  140 1    
    33   16   17 1    
    34   17   18 1    
    35   17  141 1    
    36   17  142 1    
    37   18   19 1    
    38   18   67 1    
    39   18  143 1    
    40   19   20 am   BACKBONE|DICT|INTERRES
    41   19  144 1    
    42   20   21 2    
    43   20   22 1    
    44   22   23 1    
    45   22   24 1    
    46   22  145 1    
    47   23  146 1    
    48   23  147 1    
    49   23  148 1    
    50   24   25 am   BACKBONE|DICT|INTERRES
    51   24  149 1    
    52   25   26 2    
    53   25   27 1    
    54   27   28 1    
    55   27   29 1    
    56   27  150 1    
    57   28  151 1    
    58   28  152 1    
    59   28  153 1    
    60   29   30 am   BACKBONE|DICT|INTERRES
    61   29  154 1    
    62   30   31 2    
    63   30   32 1    
    64   32   33 1    
    65   32   34 1    
    66   32  155 1    
    67   33  156 1    
    68   33  157 1    
    69   33  158 1    
    70   34   35 am   BACKBONE|DICT|INTERRES
    71   34  159 1    
    72   35   36 2    
    73   35   37 1    
    74   37   38 1    
    75   37   39 1    
    76   37  160 1    
    77   38  161 1    
    78   38  162 1    
    79   38  163 1    
    80   39   40 am   BACKBONE|DICT|INTERRES
    81   39  164 1    
    82   40   41 2    
    83   40   42 1    
    84   42   43 1    
    85   42   44 1    
    86   42  165 1    
    87   43  166 1    
    88   43  167 1    
    89   43  168 1    
    90   44   45 am   BACKBONE|DICT|INTERRES
    91   44  169 1    
    92   45   46 2    
    93   45   47 1    
    94   47   48 1    
    95   47   49 1    
    96   47  170 1    
    97   48  171 1    
    98   48  172 1    
    99   48  173 1    
   100   49   50 am   BACKBONE|DICT|INTERRES
   101   49  174 1    
   102   50   51 2    
   103   50   52 1    
   104   52   53 1    
   105   52   54 1    
   106   52  175 1    
   107   53  176 1    
   108   53  177 1    
   109   53  178 1    
   110   54   55 am   BACKBONE|DICT|INTERRES
   111   54  179 1    
   112   55   56 2    
   113   55   57 1    
   114   57   58 1    
   115   57   59 1    
   116   57  180 1    
   117   58  181 1    
   118   58  182 1    
   119   58  183 1    
   120   59   60 am   BACKBONE|DICT|INTERRES
   121   59  184 1    
   122   60   61 2    
   123   60   62 1    
   124   62   63 1    
   125   62   64 1    
   126   62  185 1    
   127   63  186 1    
   128   63  187 1    
   129   63  188 1    
   130   64   65 am   BACKBONE|DICT|INTERRES
   131   64  189 1    
   132   65   66 2    
   133   67   68 2    
   134   67   69 am   BACKBONE|DICT|INTERRES
   135   69   70 1    
   136   69  190 1    
   137   70   71 1    
   138   70   72 1    
   139   70  191 1    
   140   71  192 1    
   141   71  193 1    
   142   71  194 1    
   143   72   73 2    
   144   72   74 am   BACKBONE|DICT|INTERRES
   145   74   75 1    
   146   74  195 1    
   147   75   76 1    
   148   75   77 1    
   149   75  196 1    
   150   76  197 1    
   151   76  198 1    
   152   76  199 1    
   153   77   78 2    
   154   77   79 am   BACKBONE|DICT|INTERRES
   155   79   80 1    
   156   79  200 1    
   157   80   81 1    
   158   80   82 1    
   159   80  201 1    
   160   81  202 1    
   161   81  203 1    
   162   81  204 1    
   163   82   83 2    
   164   82   84 am   BACKBONE|DICT|INTERRES
   165   84   85 1    
   166   84  205 1    
   167   85   86 1    
   168   85   87 1    
   169   85  206 1    
   170   86  207 1    
   171   86  208 1    
   172   86  209 1    
   173   87   88 2    
   174   87   89 am   BACKBONE|DICT|INTERRES
   175   89   90 1    
   176   89  210 1    
   177   90   91 1    
   178   90   92 1    
   179   90  211 1    
   180   91  212 1    
   181   91  213 1    
   182   91  214 1    
   183   92   93 2    
   184   92   94 am   BACKBONE|DICT|INTERRES
   185   94   95 1    
   186   94  215 1    
   187   95   96 1    
   188   95   97 1    
   189   95  216 1    
   190   96  217 1    
   191   96  218 1    
   192   96  219 1    
   193   97   98 2    
   194   97   99 am   BACKBONE|DICT|INTERRES
   195   99  100 1    
   196   99  220 1    
   197  100  101 1    
   198  100  102 1    
   199  100  221 1    
   200  101  222 1    
   201  101  223 1    
   202  101  224 1    
   203  102  103 2    
   204  102  104 am   BACKBONE|DICT|INTERRES
   205  104  105 1    
   206  104  225 1    
   207  105  106 1    
   208  105  107 1    
   209  105  226 1    
   210  106  227 1    
   211  106  228 1    
   212  106  229 1    
   213  107  108 2    
   214  107  109 am   BACKBONE|DICT|INTERRES
   215  109  110 1    
   216  109  230 1    
   217  110  111 1    
   218  110  112 1    
   219  110  231 1    
   220  111  232 1    
   221  111  233 1    
   222  111  234 1    
   223  112  113 2    
   224  112  114 am   BACKBONE|DICT|INTERRES
   225  114  115 1    
   226  114  235 1    
   227  115  116 1    
   228  115  117 1    
   229  115  236 1    
   230  116  237 1    
   231  116  238 1    
   232  116  239 1    
   233  117  118 2    
   234  117  119 am   BACKBONE|DICT|INTERRES
   235  119  120 1    
   236  119  240 1    
   237  120  121 1    
   238  120  124 1    
   239  120  241 1    
   240  121  122 am   BACKBONE|DICT|INTERRES
   241  121  123 2    
   242  122  242 1    
   243  122  243 1    
   244  124  125 1    
   245  124  244 1    
   246  124  245 1    
   247  125  126 1    
   248  126  246 1    
   249  126  247 1    
@<TRIPOS>SUBSTRUCTURE
     1 UNK         1 GROUP             0       ****    0 ROOT    
