@<TRIPOS>MOLECULE
3R540
247   249    1
SMALL
USER_CHARGES


@<TRIPOS>ATOM
      1 CA          3.4003  -10.7985  -46.7899 C.3       0 UNK        -0.1800 
      2 C           2.3344  -11.8052  -47.1929 C.2       0 UNK         0.5000 
      3 O           1.1964  -11.7129  -46.7339 O.2       0 UNK        -0.5000 
      4 N           2.6846  -12.7679  -48.0552 N.am      1 UNK        -0.5000 
      5 CA          1.7976  -13.8427  -48.5236 C.3       1 UNK         0.1400 
      6 C6          2.5430  -14.8638  -49.4106 C.3       23 UNK        -0.0398 
      7 S7          3.8081  -15.7740  -48.4634 S.3       23 UNK        -0.2404 
      8 C8          4.5862  -16.7735  -49.7695 C.3       23 UNK        -0.0205 
      9 C9          3.6480  -17.8480  -50.2971 C.ar      23 UNK        -0.0193 
     10 C10         2.8575  -17.5982  -51.4232 C.ar      23 UNK        -0.1150 
     11 C11         1.9774  -18.5722  -51.8997 C.ar      23 UNK        -0.0193 
     12 C12         1.9239  -19.8166  -51.2699 C.ar      23 UNK        -0.1150 
     13 C13         2.7120  -20.0828  -50.1473 C.ar      23 UNK        -0.0193 
     14 C14         3.5688  -19.0909  -49.6600 C.ar      23 UNK        -0.1150 
     15 C15         2.6365  -21.4455  -49.4761 C.3       23 UNK        -0.0205 
     16 S16         0.9504  -21.8143  -48.9054 S.3       23 UNK        -0.2404 
     17 C17         1.1263  -23.5523  -48.4036 C.3       23 UNK        -0.0398 
     18 CA          0.1354  -23.9981  -47.3045 C.3       11 UNK         0.1400 
     19 N           0.2827  -23.2460  -46.0534 N.am      11 UNK        -0.5000 
     20 C          -0.1379  -23.7071  -44.8668 C.2       10 UNK         0.5000 
     21 O          -0.6955  -24.7948  -44.7209 O.2       10 UNK        -0.5000 
     22 CA          0.0649  -22.7955  -43.6453 C.3       10 UNK         0.1400 
     23 CB          1.5462  -22.7451  -43.2414 C.3       10 UNK        -0.1800 
     24 N          -0.4378  -21.4388  -43.8549 N.am      10 UNK        -0.5000 
     25 C          -1.7183  -21.1265  -44.1006 C.2       9 UNK         0.5000 
     26 O          -2.6234  -21.9570  -44.1701 O.2       9 UNK        -0.5000 
     27 CA         -2.0393  -19.6418  -44.3526 C.3       9 UNK         0.1400 
     28 CB         -2.2200  -18.8861  -43.0294 C.3       9 UNK        -0.1800 
     29 N          -1.0239  -18.9742  -45.1660 N.am      9 UNK        -0.5000 
     30 C          -0.7275  -19.3094  -46.4294 C.2       8 UNK         0.5000 
     31 O          -1.3059  -20.1998  -47.0493 O.2       8 UNK        -0.5000 
     32 CA          0.4188  -18.5344  -47.0963 C.3       8 UNK         0.1400 
     33 CB         -0.0916  -17.2085  -47.6773 C.3       8 UNK        -0.1800 
     34 N           1.5111  -18.2781  -46.1583 N.am      8 UNK        -0.5000 
     35 C           2.3906  -19.2050  -45.7525 C.2       7 UNK         0.5000 
     36 O           2.3999  -20.3692  -46.1513 O.2       7 UNK        -0.5000 
     37 CA          3.4126  -18.7663  -44.6865 C.3       7 UNK         0.1400 
     38 CB          4.5862  -18.0164  -45.3344 C.3       7 UNK        -0.1800 
     39 N           2.8248  -17.9331  -43.6357 N.am      7 UNK        -0.5000 
     40 C           1.8868  -18.3504  -42.7741 C.2       6 UNK         0.5000 
     41 O           1.4389  -19.4958  -42.7544 O.2       6 UNK        -0.5000 
     42 CA          1.3192  -17.3051  -41.7940 C.3       6 UNK         0.1400 
     43 CB          2.1763  -17.2489  -40.5206 C.3       6 UNK        -0.1800 
     44 N           1.1757  -15.9493  -42.3372 N.am      6 UNK        -0.5000 
     45 C           0.5550  -15.6126  -43.4766 C.2       5 UNK         0.5000 
     46 O           0.1149  -16.4339  -44.2850 O.2       5 UNK        -0.5000 
     47 CA          0.4513  -14.1002  -43.7648 C.3       5 UNK         0.1400 
     48 CB          1.8372  -13.5280  -44.1019 C.3       5 UNK        -0.1800 
     49 N          -0.4741  -13.7857  -44.8576 N.am      5 UNK        -0.5000 
     50 C          -1.7922  -14.0360  -44.8414 C.2       4 UNK         0.5000 
     51 O          -2.3964  -14.4390  -43.8448 O.2       4 UNK        -0.5000 
     52 CA         -2.5491  -13.8008  -46.1648 C.3       4 UNK         0.1400 
     53 CB         -4.0819  -13.9065  -46.0174 C.3       4 UNK        -0.1800 
     54 N          -2.1671  -12.5517  -46.8278 N.am      4 UNK        -0.5000 
     55 C          -2.3413  -11.2989  -46.3761 C.2       3 UNK         0.5000 
     56 O          -2.8757  -11.0295  -45.2994 O.2       3 UNK        -0.5000 
     57 CA         -1.8406  -10.1466  -47.2734 C.3       3 UNK         0.1400 
     58 CB         -1.0300   -9.1153  -46.4683 C.3       3 UNK        -0.1800 
     59 N          -1.0122  -10.6387  -48.3744 N.am      3 UNK        -0.5000 
     60 C          -1.4231  -10.8251  -49.6364 C.2       2 UNK         0.5000 
     61 O          -2.5431  -10.5107  -50.0395 O.2       2 UNK        -0.5000 
     62 CA         -0.4212  -11.4730  -50.6167 C.3       2 UNK         0.1400 
     63 CB          0.1787  -10.4099  -51.5497 C.3       2 UNK        -0.1800 
     64 N           0.6734  -12.1939  -49.9605 N.am      2 UNK        -0.5000 
     65 C           0.5362  -13.3159  -49.2392 C.2       1 UNK         0.5000 
     66 O          -0.5366  -13.8909  -49.0649 O.2       1 UNK        -0.5000 
     67 C          -1.3278  -24.0542  -47.7975 C.2       11 UNK         0.5000 
     68 O          -1.6986  -25.0174  -48.4734 O.2       11 UNK        -0.5000 
     69 N          -2.1470  -23.0561  -47.4342 N.am      12 UNK        -0.5000 
     70 CA         -3.5930  -23.0667  -47.6437 C.3       12 UNK         0.1400 
     71 CB         -4.1805  -21.6748  -47.3808 C.3       12 UNK        -0.1800 
     72 C          -4.2808  -24.1366  -46.7802 C.2       12 UNK         0.5000 
     73 O          -5.0331  -24.9490  -47.3171 O.2       12 UNK        -0.5000 
     74 N          -3.9646  -24.1560  -45.4764 N.am      13 UNK        -0.5000 
     75 CA         -4.4652  -25.1297  -44.5008 C.3       13 UNK         0.1400 
     76 CB         -4.0201  -24.7161  -43.0901 C.3       13 UNK        -0.1800 
     77 C          -4.0319  -26.5768  -44.8023 C.2       13 UNK         0.5000 
     78 O          -4.8107  -27.5035  -44.5772 O.2       13 UNK        -0.5000 
     79 N          -2.8185  -26.7411  -45.3469 N.am      14 UNK        -0.5000 
     80 CA         -2.2797  -28.0123  -45.8381 C.3       14 UNK         0.1400 
     81 CB         -0.7600  -27.8697  -46.0161 C.3       14 UNK        -0.1800 
     82 C          -2.9251  -28.4966  -47.1550 C.2       14 UNK         0.5000 
     83 O          -2.6457  -29.6197  -47.5758 O.2       14 UNK        -0.5000 
     84 N          -3.7483  -27.6467  -47.7893 N.am      15 UNK        -0.5000 
     85 CA         -4.4398  -27.8491  -49.0663 C.3       15 UNK         0.1400 
     86 CB         -5.4171  -29.0409  -48.9961 C.3       15 UNK        -0.1800 
     87 C          -3.4897  -27.9165  -50.2803 C.2       15 UNK         0.5000 
     88 O          -3.8696  -28.4486  -51.3243 O.2       15 UNK        -0.5000 
     89 N          -2.2828  -27.3520  -50.1375 N.am      16 UNK        -0.5000 
     90 CA         -1.2961  -27.2248  -51.2072 C.3       16 UNK         0.1400 
     91 CB          0.1144  -27.1567  -50.6007 C.3       16 UNK        -0.1800 
     92 C          -1.5991  -25.9901  -52.0705 C.2       16 UNK         0.5000 
     93 O          -1.6499  -26.1011  -53.2958 O.2       16 UNK        -0.5000 
     94 N          -1.8361  -24.8482  -51.4094 N.am      17 UNK        -0.5000 
     95 CA         -2.2840  -23.6067  -52.0478 C.3       17 UNK         0.1400 
     96 CB         -1.6625  -22.4061  -51.3197 C.3       17 UNK        -0.1800 
     97 C          -3.8183  -23.4850  -52.0619 C.2       17 UNK         0.5000 
     98 O          -4.3523  -22.7135  -52.8577 O.2       17 UNK        -0.5000 
     99 N          -4.4942  -24.2264  -51.1699 N.am      18 UNK        -0.5000 
    100 CA        -5.9435  -24.3058  -50.9277 C.3       18 UNK         0.1400 
    101 CB        -6.6929  -24.7980  -52.1795 C.3       18 UNK        -0.1800 
    102 C         -6.5929  -23.0280  -50.3535 C.2       18 UNK         0.5000 
    103 O         -7.5171  -23.1412  -49.5480 O.2       18 UNK        -0.5000 
    104 N         -6.1026  -21.8480  -50.7415 N.am      19 UNK        -0.5000 
    105 CA        -6.5197  -20.5442  -50.2429 C.3       19 UNK         0.1400 
    106 CB        -7.6186  -19.9668  -51.1496 C.3       19 UNK        -0.1800 
    107 C         -5.2958  -19.6225  -50.2076 C.2       19 UNK         0.5000 
    108 O         -4.4615  -19.6757  -51.1142 O.2       19 UNK        -0.5000 
    109 N         -5.2178  -18.7762  -49.1752 N.am      20 UNK        -0.5000 
    110 CA        -4.1410  -17.8086  -48.9634 C.3       20 UNK         0.1400 
    111 CB        -3.9863  -17.5654  -47.4507 C.3       20 UNK        -0.1800 
    112 C         -4.4092  -16.5135  -49.7566 C.2       20 UNK         0.5000 
    113 O         -4.5914  -15.4500  -49.1636 O.2       20 UNK        -0.5000 
    114 N         -4.4776  -16.6455  -51.0869 N.am      21 UNK        -0.5000 
    115 CA        -4.6292  -15.5481  -52.0396 C.3       21 UNK         0.1400 
    116 CB        -5.2994  -16.0876  -53.3185 C.3       21 UNK        -0.1800 
    117 C         -3.2519  -14.9040  -52.2828 C.2       21 UNK         0.5000 
    118 O         -2.8369  -14.0557  -51.4957 O.2       21 UNK        -0.5000 
    119 N         -2.5548  -15.3499  -53.3366 N.am      22 UNK        -0.5000 
    120 CA        -1.1198  -15.1119  -53.5896 C.3       22 UNK         0.1400 
    121 C         -0.7088  -13.6309  -53.8560 C.2       22 UNK         0.5000 
    122 N         -1.6341  -12.7373  -54.1816 N.am      22 UNK        -0.7600 
    123 O          0.4698  -13.2909  -53.8062 O.2       22 UNK        -0.5000 
    124 C124       -0.2230  -15.8096  -52.5264 C.3       23 UNK        -0.0398 
    125 S125       -0.5286  -17.6124  -52.4855 S.3       23 UNK        -0.2404 
    126 C126        1.0575  -18.2836  -53.0727 C.3       23 UNK        -0.0205 
    127 H127        3.0792   -9.7899  -47.0497 H         1 UNK         0.0600 
    128 H128        3.5630  -10.8392  -45.7130 H         1 UNK         0.0600 
    129 H129        4.3508  -10.9937  -47.2868 H         1 UNK         0.0600 
    130 H130        3.6375  -12.8120  -48.3879 H         1 UNK         0.3000 
    131 H131        1.4442  -14.3672  -47.6328 H         1 UNK         0.0600 
    132 H132        3.0157  -14.3670  -50.2596 H         1 UNK         0.0800 
    133 H133        1.8440  -15.5888  -49.8290 H         1 UNK         0.0800 
    134 H134        5.4860  -17.2395  -49.3652 H         1 UNK         0.0800 
    135 H135        4.9193  -16.1234  -50.5800 H         1 UNK         0.0800 
    136 H136        2.9101  -16.6369  -51.9138 H         1 UNK         0.1150 
    137 H137        1.2470  -20.5746  -51.6386 H         1 UNK         0.1150 
    138 H138        4.1745  -19.2841  -48.7857 H         1 UNK         0.1150 
    139 H139        2.9559  -22.2083  -50.1873 H         1 UNK         0.0800 
    140 H140        3.3182  -21.4982  -48.6257 H         1 UNK         0.0800 
    141 H141        1.0239  -24.1758  -49.2926 H         1 UNK         0.0800 
    142 H142        2.1448  -23.7104  -48.0464 H         1 UNK         0.0800 
    143 H143        0.4034  -25.0315  -47.0780 H         1 UNK         0.0600 
    144 H144        0.7112  -22.3311  -46.1178 H         1 UNK         0.3000 
    145 H145       -0.4960  -23.2301  -42.8153 H         1 UNK         0.0600 
    146 H146        1.6778  -22.2148  -42.2982 H         1 UNK         0.0600 
    147 H147        1.9511  -23.7490  -43.1074 H         1 UNK         0.0600 
    148 H148        2.1534  -22.2414  -43.9946 H         1 UNK         0.0600 
    149 H149        0.2379  -20.6869  -43.7566 H         1 UNK         0.3000 
    150 H150       -2.9829  -19.5937  -44.8987 H         1 UNK         0.0600 
    151 H151       -3.0555  -19.2957  -42.4606 H         1 UNK         0.0600 
    152 H152       -2.4263  -17.8289  -43.1997 H         1 UNK         0.0600 
    153 H153       -1.3325  -18.9606  -42.4028 H         1 UNK         0.0600 
    154 H154       -0.5306  -18.1921  -44.7447 H         1 UNK         0.3000 
    155 H155        0.8047  -19.1312  -47.9231 H         1 UNK         0.0600 
    156 H156        0.7109  -16.6792  -48.1835 H         1 UNK         0.0600 
    157 H157       -0.4966  -16.5507  -46.9082 H         1 UNK         0.0600 
    158 H158       -0.8774  -17.3814  -48.4136 H         1 UNK         0.0600 
    159 H159        1.5095  -17.3758  -45.7022 H         1 UNK         0.3000 
    160 H160        3.8054  -19.6708  -44.2168 H         1 UNK         0.0600 
    161 H161        4.2695  -17.0621  -45.7558 H         1 UNK         0.0600 
    162 H162        5.0277  -18.6015  -46.1423 H         1 UNK         0.0600 
    163 H163        5.3749  -17.8168  -44.6089 H         1 UNK         0.0600 
    164 H164        3.1291  -16.9723  -43.5873 H         1 UNK         0.3000 
    165 H165        0.3208  -17.6372  -41.5077 H         1 UNK         0.0600 
    166 H166        3.1783  -16.8702  -40.7264 H         1 UNK         0.0600 
    167 H167        1.7222  -16.6066  -39.7659 H         1 UNK         0.0600 
    168 H168        2.2845  -18.2401  -40.0776 H         1 UNK         0.0600 
    169 H169        1.5248  -15.2069  -41.7486 H         1 UNK         0.3000 
    170 H170        0.0806  -13.6118  -42.8616 H         1 UNK         0.0600 
    171 H171        2.5591  -13.7292  -43.3098 H         1 UNK         0.0600 
    172 H172        2.2348  -13.9558  -45.0231 H         1 UNK         0.0600 
    173 H173        1.7937  -12.4454  -44.2193 H         1 UNK         0.0600 
    174 H174       -0.0640  -13.3924  -45.6939 H         1 UNK         0.3000 
    175 H175       -2.2343  -14.6003  -46.8367 H         1 UNK         0.0600 
    176 H176       -4.5811  -13.7451  -46.9727 H         1 UNK         0.0600 
    177 H177       -4.3708  -14.8974  -45.6658 H         1 UNK         0.0600 
    178 H178       -4.4755  -13.1804  -45.3059 H         1 UNK         0.0600 
    179 H179       -1.7067  -12.6727  -47.7225 H         1 UNK         0.3000 
    180 H180       -2.7252   -9.6418  -47.6662 H         1 UNK         0.0600 
    181 H181       -0.6646   -8.3134  -47.1099 H         1 UNK         0.0600 
    182 H182       -1.6424   -8.6540  -45.6928 H         1 UNK         0.0600 
    183 H183       -0.1696   -9.5702  -45.9771 H         1 UNK         0.0600 
    184 H184       -0.0888  -10.9596  -48.1036 H         1 UNK         0.3000 
    185 H185       -0.9776  -12.1875  -51.2243 H         1 UNK         0.0600 
    186 H186        0.8319  -10.8633  -52.2955 H         1 UNK         0.0600 
    187 H187       -0.6053   -9.8769  -52.0892 H         1 UNK         0.0600 
    188 H188        0.7592   -9.6704  -50.9968 H         1 UNK         0.0600 
    189 H189        1.5898  -11.7750  -50.0254 H         1 UNK         0.3000 
    190 H190       -1.7592  -22.2460  -46.9625 H         1 UNK         0.3000 
    191 H191       -3.7788  -23.3097  -48.6898 H         1 UNK         0.0600 
    192 H192       -5.2542  -21.6627  -47.5698 H         1 UNK         0.0600 
    193 H193       -3.7217  -20.9332  -48.0336 H         1 UNK         0.0600 
    194 H194       -4.0255  -21.3522  -46.3522 H         1 UNK         0.0600 
    195 H195       -3.3507  -23.4326  -45.1090 H         1 UNK         0.3000 
    196 H196       -5.5561  -25.1002  -44.5357 H         1 UNK         0.0600 
    197 H197       -4.3888  -25.4175  -42.3407 H         1 UNK         0.0600 
    198 H198       -4.4047  -23.7300  -42.8295 H         1 UNK         0.0600 
    199 H199       -2.9332  -24.6837  -43.0054 H         1 UNK         0.0600 
    200 H200       -2.2053  -25.9342  -45.4079 H         1 UNK         0.3000 
    201 H201       -2.4652  -28.7777  -45.0819 H         1 UNK         0.0600 
    202 H202       -0.2807  -27.5396  -45.0943 H         1 UNK         0.0600 
    203 H203       -0.5166  -27.1532  -46.8000 H         1 UNK         0.0600 
    204 H204       -0.3066  -28.8222  -46.2931 H         1 UNK         0.0600 
    205 H205       -3.9187  -26.7457  -47.3578 H         1 UNK         0.3000 
    206 H206       -5.0420  -26.9538  -49.2151 H         1 UNK         0.0600 
    207 H207       -6.0700  -28.9641  -48.1266 H         1 UNK         0.0600 
    208 H208       -6.0574  -29.0733  -49.8783 H         1 UNK         0.0600 
    209 H209       -4.8931  -29.9952  -48.9406 H         1 UNK         0.0600 
    210 H210       -2.0698  -26.8782  -49.2670 H         1 UNK         0.3000 
    211 H211       -1.3415  -28.1074  -51.8490 H         1 UNK         0.0600 
    212 H212        0.2219  -26.3216  -49.9101 H         1 UNK         0.0600 
    213 H213        0.8693  -27.0405  -51.3794 H         1 UNK         0.0600 
    214 H214        0.3485  -28.0703  -50.0541 H         1 UNK         0.0600 
    215 H215       -1.7561  -24.8486  -50.3972 H         1 UNK         0.3000 
    216 H216       -1.9439  -23.5779  -53.0851 H         1 UNK         0.0600 
    217 H217       -1.9717  -21.4652  -51.7775 H         1 UNK         0.0600 
    218 H218       -0.5748  -22.4447  -51.3676 H         1 UNK         0.0600 
    219 H219       -1.9551  -22.3668  -50.2706 H         1 UNK         0.0600 
    220 H220       -3.9348  -24.8105  -50.5675 H         1 UNK         0.3000 
    221 H221       -6.0666  -25.0697  -50.1595 H         1 UNK         0.0600 
    222 H222       -6.6447  -24.0759  -52.9948 H         1 UNK         0.0600 
    223 H223       -6.2807  -25.7407  -52.5398 H         1 UNK         0.0600 
    224 H224       -7.7475  -24.9674  -51.9590 H         1 UNK         0.0600 
    225 H225       -5.3499  -21.8323  -51.4254 H         1 UNK         0.3000 
    226 H226       -6.9085  -20.6446  -49.2273 H         1 UNK         0.0600 
    227 H227       -7.9367  -18.9833  -50.8017 H         1 UNK         0.0600 
    228 H228       -7.2725  -19.8565  -52.1783 H         1 UNK         0.0600 
    229 H229       -8.4991  -20.6094  -51.1599 H         1 UNK         0.0600 
    230 H230       -5.9668  -18.7569  -48.4983 H         1 UNK         0.3000 
    231 H231       -3.1993  -18.2275  -49.3260 H         1 UNK         0.0600 
    232 H232       -3.1675  -16.8754  -47.2465 H         1 UNK         0.0600 
    233 H233       -3.7632  -18.4943  -46.9270 H         1 UNK         0.0600 
    234 H234       -4.8912  -17.1428  -47.0127 H         1 UNK         0.0600 
    235 H235       -4.3242  -17.5698  -51.4737 H         1 UNK         0.3000 
    236 H236       -5.2817  -14.7820  -51.6154 H         1 UNK         0.0600 
    237 H237       -4.7580  -16.9325  -53.7457 H         1 UNK         0.0600 
    238 H238       -6.3147  -16.4250  -53.1084 H         1 UNK         0.0600 
    239 H239       -5.3707  -15.3122  -54.0824 H         1 UNK         0.0600 
    240 H240       -2.9907  -16.0318  -53.9398 H         1 UNK         0.3000 
    241 H241       -0.9169  -15.6044  -54.5412 H         1 UNK         0.0600 
    242 H242       -1.3618  -11.7871  -54.3752 H         1 UNK         0.3800 
    243 H243       -2.6050  -13.0019  -54.2267 H         1 UNK         0.3800 
    244 H244       -0.4139  -15.4002  -51.5333 H         1 UNK         0.0800 
    245 H245        0.8332  -15.6281  -52.7267 H         1 UNK         0.0800 
    246 H246        0.8637  -19.2054  -53.6233 H         1 UNK         0.0800 
    247 H247        1.5299  -17.6027  -53.7821 H         1 UNK         0.0800 
@<TRIPOS>BOND
     1    1    2 1    
     2    1  127 1    
     3    1  128 1    
     4    1  129 1    
     5    2    3 2    
     6    2    4 am   BACKBONE|DICT|INTERRES
     7    4    5 1    
     8    4  130 1    
     9    5    6 1    
    10    5   65 1    
    11    5  131 1    
    12    6    7 1    
    13    6  132 1    
    14    6  133 1    
    15    7    8 1    
    16    8    9 1    
    17    8  134 1    
    18    8  135 1    
    19    9   10 ar   
    20    9   14 ar   
    21   10   11 ar   
    22   10  136 1    
    23   11   12 ar   
    24   11  126 1    
    25   12   13 ar   
    26   12  137 1    
    27   13   14 ar   
    28   13   15 1    
    29   14  138 1    
    30   15   16 1    
    31   15  139 1    
    32   15  140 1    
    33   16   17 1    
    34   17   18 1    
    35   17  141 1    
    36   17  142 1    
    37   18   19 1    
    38   18   67 1    
    39   18  143 1    
    40   19   20 am   BACKBONE|DICT|INTERRES
    41   19  144 1    
    42   20   21 2    
    43   20   22 1    
    44   22   23 1    
    45   22   24 1    
    46   22  145 1    
    47   23  146 1    
    48   23  147 1    
    49   23  148 1    
    50   24   25 am   BACKBONE|DICT|INTERRES
    51   24  149 1    
    52   25   26 2    
    53   25   27 1    
    54   27   28 1    
    55   27   29 1    
    56   27  150 1    
    57   28  151 1    
    58   28  152 1    
    59   28  153 1    
    60   29   30 am   BACKBONE|DICT|INTERRES
    61   29  154 1    
    62   30   31 2    
    63   30   32 1    
    64   32   33 1    
    65   32   34 1    
    66   32  155 1    
    67   33  156 1    
    68   33  157 1    
    69   33  158 1    
    70   34   35 am   BACKBONE|DICT|INTERRES
    71   34  159 1    
    72   35   36 2    
    73   35   37 1    
    74   37   38 1    
    75   37   39 1    
    76   37  160 1    
    77   38  161 1    
    78   38  162 1    
    79   38  163 1    
    80   39   40 am   BACKBONE|DICT|INTERRES
    81   39  164 1    
    82   40   41 2    
    83   40   42 1    
    84   42   43 1    
    85   42   44 1    
    86   42  165 1    
    87   43  166 1    
    88   43  167 1    
    89   43  168 1    
    90   44   45 am   BACKBONE|DICT|INTERRES
    91   44  169 1    
    92   45   46 2    
    93   45   47 1    
    94   47   48 1    
    95   47   49 1    
    96   47  170 1    
    97   48  171 1    
    98   48  172 1    
    99   48  173 1    
   100   49   50 am   BACKBONE|DICT|INTERRES
   101   49  174 1    
   102   50   51 2    
   103   50   52 1    
   104   52   53 1    
   105   52   54 1    
   106   52  175 1    
   107   53  176 1    
   108   53  177 1    
   109   53  178 1    
   110   54   55 am   BACKBONE|DICT|INTERRES
   111   54  179 1    
   112   55   56 2    
   113   55   57 1    
   114   57   58 1    
   115   57   59 1    
   116   57  180 1    
   117   58  181 1    
   118   58  182 1    
   119   58  183 1    
   120   59   60 am   BACKBONE|DICT|INTERRES
   121   59  184 1    
   122   60   61 2    
   123   60   62 1    
   124   62   63 1    
   125   62   64 1    
   126   62  185 1    
   127   63  186 1    
   128   63  187 1    
   129   63  188 1    
   130   64   65 am   BACKBONE|DICT|INTERRES
   131   64  189 1    
   132   65   66 2    
   133   67   68 2    
   134   67   69 am   BACKBONE|DICT|INTERRES
   135   69   70 1    
   136   69  190 1    
   137   70   71 1    
   138   70   72 1    
   139   70  191 1    
   140   71  192 1    
   141   71  193 1    
   142   71  194 1    
   143   72   73 2    
   144   72   74 am   BACKBONE|DICT|INTERRES
   145   74   75 1    
   146   74  195 1    
   147   75   76 1    
   148   75   77 1    
   149   75  196 1    
   150   76  197 1    
   151   76  198 1    
   152   76  199 1    
   153   77   78 2    
   154   77   79 am   BACKBONE|DICT|INTERRES
   155   79   80 1    
   156   79  200 1    
   157   80   81 1    
   158   80   82 1    
   159   80  201 1    
   160   81  202 1    
   161   81  203 1    
   162   81  204 1    
   163   82   83 2    
   164   82   84 am   BACKBONE|DICT|INTERRES
   165   84   85 1    
   166   84  205 1    
   167   85   86 1    
   168   85   87 1    
   169   85  206 1    
   170   86  207 1    
   171   86  208 1    
   172   86  209 1    
   173   87   88 2    
   174   87   89 am   BACKBONE|DICT|INTERRES
   175   89   90 1    
   176   89  210 1    
   177   90   91 1    
   178   90   92 1    
   179   90  211 1    
   180   91  212 1    
   181   91  213 1    
   182   91  214 1    
   183   92   93 2    
   184   92   94 am   BACKBONE|DICT|INTERRES
   185   94   95 1    
   186   94  215 1    
   187   95   96 1    
   188   95   97 1    
   189   95  216 1    
   190   96  217 1    
   191   96  218 1    
   192   96  219 1    
   193   97   98 2    
   194   97   99 am   BACKBONE|DICT|INTERRES
   195   99  100 1    
   196   99  220 1    
   197  100  101 1    
   198  100  102 1    
   199  100  221 1    
   200  101  222 1    
   201  101  223 1    
   202  101  224 1    
   203  102  103 2    
   204  102  104 am   BACKBONE|DICT|INTERRES
   205  104  105 1    
   206  104  225 1    
   207  105  106 1    
   208  105  107 1    
   209  105  226 1    
   210  106  227 1    
   211  106  228 1    
   212  106  229 1    
   213  107  108 2    
   214  107  109 am   BACKBONE|DICT|INTERRES
   215  109  110 1    
   216  109  230 1    
   217  110  111 1    
   218  110  112 1    
   219  110  231 1    
   220  111  232 1    
   221  111  233 1    
   222  111  234 1    
   223  112  113 2    
   224  112  114 am   BACKBONE|DICT|INTERRES
   225  114  115 1    
   226  114  235 1    
   227  115  116 1    
   228  115  117 1    
   229  115  236 1    
   230  116  237 1    
   231  116  238 1    
   232  116  239 1    
   233  117  118 2    
   234  117  119 am   BACKBONE|DICT|INTERRES
   235  119  120 1    
   236  119  240 1    
   237  120  121 1    
   238  120  124 1    
   239  120  241 1    
   240  121  122 am   BACKBONE|DICT|INTERRES
   241  121  123 2    
   242  122  242 1    
   243  122  243 1    
   244  124  125 1    
   245  124  244 1    
   246  124  245 1    
   247  125  126 1    
   248  126  246 1    
   249  126  247 1    
@<TRIPOS>SUBSTRUCTURE
     1 UNK         1 GROUP             0       ****    0 ROOT    
