@<TRIPOS>MOLECULE
3R540
247   249    1
SMALL
USER_CHARGES


@<TRIPOS>ATOM
      1 CA          1.4316   -9.8857  -48.1787 C.3       0 UNK        -0.1800 
      2 C           1.8139  -11.3362  -47.9266 C.2       0 UNK         0.5000 
      3 O           2.5968  -11.6146  -47.0198 O.2       0 UNK        -0.5000 
      4 N           1.2518  -12.2662  -48.7082 N.am      1 UNK        -0.5000 
      5 CA          1.4898  -13.7152  -48.6318 C.3       1 UNK         0.1400 
      6 C6          0.7668  -14.4848  -49.7663 C.3       23 UNK        -0.0398 
      7 S7         -1.0059  -14.0634  -49.9466 S.3       23 UNK        -0.2404 
      8 C8         -1.5745  -15.3500  -51.1004 C.3       23 UNK        -0.0205 
      9 C9         -1.8447  -16.6615  -50.3817 C.ar      23 UNK        -0.0193 
     10 C10        -3.0884  -16.8917  -49.7844 C.ar      23 UNK        -0.1150 
     11 C11        -3.3393  -18.0898  -49.1100 C.ar      23 UNK        -0.0193 
     12 C12        -2.3360  -19.0588  -49.0369 C.ar      23 UNK        -0.1150 
     13 C13        -1.0872  -18.8375  -49.6248 C.ar      23 UNK        -0.0193 
     14 C14        -0.8518  -17.6421  -50.3069 C.ar      23 UNK        -0.1150 
     15 C15         0.0032  -19.8936  -49.5399 C.3       23 UNK        -0.0205 
     16 S16         1.1543  -19.6000  -48.1582 S.3       23 UNK        -0.2404 
     17 C17         0.1014  -19.8418  -46.6867 C.3       23 UNK        -0.0398 
     18 CA          0.1098  -21.2972  -46.1622 C.3       11 UNK         0.1400 
     19 N          -0.2090  -21.3588  -44.7353 N.am      11 UNK        -0.5000 
     20 C          -0.1659  -22.4686  -43.9851 C.2       10 UNK         0.5000 
     21 O           0.2051  -23.5650  -44.4029 O.2       10 UNK        -0.5000 
     22 CA         -0.6933  -22.3405  -42.5468 C.3       10 UNK         0.1400 
     23 CB          0.3623  -21.7128  -41.6237 C.3       10 UNK        -0.1800 
     24 N          -1.9269  -21.5543  -42.5019 N.am      10 UNK        -0.5000 
     25 C          -3.1039  -21.9730  -42.9903 C.2       9 UNK         0.5000 
     26 O          -3.2864  -23.0926  -43.4665 O.2       9 UNK        -0.5000 
     27 CA         -4.2627  -20.9593  -42.9741 C.3       9 UNK         0.1400 
     28 CB         -5.0051  -21.0111  -41.6306 C.3       9 UNK        -0.1800 
     29 N          -3.8244  -19.5862  -43.2300 N.am      9 UNK        -0.5000 
     30 C          -3.3164  -19.1502  -44.3920 C.2       8 UNK         0.5000 
     31 O          -3.1659  -19.8602  -45.3840 O.2       8 UNK        -0.5000 
     32 CA         -2.8402  -17.6861  -44.4238 C.3       8 UNK         0.1400 
     33 CB         -4.0327  -16.7458  -44.6539 C.3       8 UNK        -0.1800 
     34 N          -2.1367  -17.3045  -43.1941 N.am      8 UNK        -0.5000 
     35 C          -1.0019  -17.8800  -42.7757 C.2       7 UNK         0.5000 
     36 O          -0.3994  -18.7456  -43.4195 O.2       7 UNK        -0.5000 
     37 CA         -0.4944  -17.4843  -41.3827 C.3       7 UNK         0.1400 
     38 CB         -1.3351  -18.1796  -40.2927 C.3       7 UNK        -0.1800 
     39 N           0.9002  -17.8960  -41.2988 N.am      7 UNK        -0.5000 
     40 C           1.7825  -17.6175  -40.3336 C.2       6 UNK         0.5000 
     41 O           1.5119  -16.9973  -39.3046 O.2       6 UNK        -0.5000 
     42 CA          3.2282  -18.1000  -40.5791 C.3       6 UNK         0.1400 
     43 CB          3.4314  -19.5104  -40.0042 C.3       6 UNK        -0.1800 
     44 N           3.5966  -18.1004  -42.0003 N.am      6 UNK        -0.5000 
     45 C           3.6902  -16.9921  -42.7481 C.2       5 UNK         0.5000 
     46 O           3.5600  -15.8565  -42.2870 O.2       5 UNK        -0.5000 
     47 CA          3.9271  -17.2026  -44.2574 C.3       5 UNK         0.1400 
     48 CB          2.6988  -17.8586  -44.9073 C.3       5 UNK        -0.1800 
     49 N           4.1841  -15.9365  -44.9401 N.am      5 UNK        -0.5000 
     50 C           5.3398  -15.2613  -44.8956 C.2       4 UNK         0.5000 
     51 O           6.3823  -15.7120  -44.4179 O.2       4 UNK        -0.5000 
     52 CA          5.3101  -13.8245  -45.4489 C.3       4 UNK         0.1400 
     53 CB          5.4041  -13.8232  -46.9824 C.3       4 UNK        -0.1800 
     54 N           4.1021  -13.1103  -45.0343 N.am      4 UNK        -0.5000 
     55 C           3.8385  -12.7140  -43.7802 C.2       3 UNK         0.5000 
     56 O           4.6484  -12.7931  -42.8557 O.2       3 UNK        -0.5000 
     57 CA          2.4420  -12.1264  -43.5078 C.3       3 UNK         0.1400 
     58 CB          2.4618  -10.5961  -43.6496 C.3       3 UNK        -0.1800 
     59 N           1.4325  -12.6784  -44.4124 N.am      3 UNK        -0.5000 
     60 C           0.6619  -13.7425  -44.1435 C.2       2 UNK         0.5000 
     61 O           0.6706  -14.3454  -43.0708 O.2       2 UNK        -0.5000 
     62 CA         -0.3020  -14.2117  -45.2519 C.3       2 UNK         0.1400 
     63 CB         -1.7101  -13.6539  -45.0004 C.3       2 UNK        -0.1800 
     64 N           0.1166  -13.8245  -46.5990 N.am      2 UNK        -0.5000 
     65 C           1.1822  -14.3181  -47.2428 C.2       1 UNK         0.5000 
     66 O           1.9401  -15.1602  -46.7607 O.2       1 UNK        -0.5000 
     67 C          -0.8183  -22.2097  -46.9915 C.2       11 UNK         0.5000 
     68 O          -0.3272  -22.9862  -47.8073 O.2       11 UNK        -0.5000 
     69 N          -2.1317  -22.1347  -46.7341 N.am      12 UNK        -0.5000 
     70 CA         -3.1667  -22.9371  -47.3917 C.3       12 UNK         0.1400 
     71 CB         -4.5455  -22.3857  -47.0006 C.3       12 UNK        -0.1800 
     72 C          -3.0871  -24.4462  -47.0826 C.2       12 UNK         0.5000 
     73 O          -3.5952  -25.2500  -47.8650 O.2       12 UNK        -0.5000 
     74 N          -2.4682  -24.8126  -45.9527 N.am      13 UNK        -0.5000 
     75 CA         -2.1592  -26.1973  -45.6040 C.3       13 UNK         0.1400 
     76 CB         -2.0271  -26.3256  -44.0785 C.3       13 UNK        -0.1800 
     77 C          -0.8799  -26.6821  -46.3103 C.2       13 UNK         0.5000 
     78 O          -0.8315  -27.8278  -46.7598 O.2       13 UNK        -0.5000 
     79 N           0.1329  -25.8084  -46.3869 N.am      14 UNK        -0.5000 
     80 CA          1.4402  -26.0941  -46.9757 C.3       14 UNK         0.1400 
     81 CB          2.4475  -25.0404  -46.4892 C.3       14 UNK        -0.1800 
     82 C           1.4321  -26.1545  -48.5146 C.2       14 UNK         0.5000 
     83 O           2.1620  -26.9668  -49.0853 O.2       14 UNK        -0.5000 
     84 N           0.6391  -25.2914  -49.1587 N.am      15 UNK        -0.5000 
     85 CA          0.5910  -25.1124  -50.6074 C.3       15 UNK         0.1400 
     86 CB          1.5347  -23.9575  -50.9904 C.3       15 UNK        -0.1800 
     87 C          -0.8429  -24.8232  -51.0768 C.2       15 UNK         0.5000 
     88 O          -1.7150  -24.5108  -50.2668 O.2       15 UNK        -0.5000 
     89 N          -1.0529  -24.8989  -52.3978 N.am      16 UNK        -0.5000 
     90 CA         -2.3353  -24.6453  -53.0671 C.3       16 UNK         0.1400 
     91 CB         -2.2780  -25.2485  -54.4801 C.3       16 UNK        -0.1800 
     92 C          -2.7387  -23.1559  -53.1355 C.2       16 UNK         0.5000 
     93 O          -3.8548  -22.8629  -53.5656 O.2       16 UNK        -0.5000 
     94 N          -1.8327  -22.2589  -52.7203 N.am      17 UNK        -0.5000 
     95 CA         -1.9144  -20.7953  -52.7279 C.3       17 UNK         0.1400 
     96 CB         -3.2206  -20.2842  -52.0872 C.3       17 UNK        -0.1800 
     97 C          -1.7238  -20.1876  -54.1262 C.2       17 UNK         0.5000 
     98 O          -2.0636  -20.8052  -55.1369 O.2       17 UNK        -0.5000 
     99 N          -1.2276  -18.9432  -54.1525 N.am      18 UNK        -0.5000 
    100 CA        -1.0426  -18.1405  -55.3675 C.3       18 UNK         0.1400 
    101 CB        -0.2733  -16.8605  -55.0067 C.3       18 UNK        -0.1800 
    102 C         -2.3702  -17.7914  -56.0706 C.2       18 UNK         0.5000 
    103 O         -2.3878  -17.5935  -57.2855 O.2       18 UNK        -0.5000 
    104 N         -3.4583  -17.7518  -55.2904 N.am      19 UNK        -0.5000 
    105 CA        -4.8299  -17.5650  -55.7572 C.3       19 UNK         0.1400 
    106 CB        -5.6828  -17.1027  -54.5649 C.3       19 UNK        -0.1800 
    107 C         -5.4451  -18.8323  -56.3882 C.2       19 UNK         0.5000 
    108 O         -6.4975  -18.7160  -57.0158 O.2       19 UNK        -0.5000 
    109 N         -4.8024  -19.9991  -56.1993 N.am      20 UNK        -0.5000 
    110 CA        -5.2599  -21.3477  -56.5526 C.3       20 UNK         0.1400 
    111 CB        -5.3916  -21.5153  -58.0806 C.3       20 UNK        -0.1800 
    112 C         -6.5514  -21.7018  -55.7896 C.2       20 UNK         0.5000 
    113 O         -7.6498  -21.5467  -56.3259 O.2       20 UNK        -0.5000 
    114 N         -6.3715  -22.1331  -54.5333 N.am      21 UNK        -0.5000 
    115 CA        -7.3781  -22.3368  -53.4890 C.3       21 UNK         0.1400 
    116 CB        -8.4695  -23.3424  -53.9129 C.3       21 UNK        -0.1800 
    117 C         -7.9424  -20.9834  -53.0188 C.2       21 UNK         0.5000 
    118 O         -8.9871  -20.5377  -53.4963 O.2       21 UNK        -0.5000 
    119 N         -7.2058  -20.3423  -52.1027 N.am      22 UNK        -0.5000 
    120 CA        -7.5223  -19.0312  -51.5084 C.3       22 UNK         0.1400 
    121 C         -8.8111  -18.9675  -50.6316 C.2       22 UNK         0.5000 
    122 N         -9.3965  -20.0854  -50.2192 N.am      22 UNK        -0.7600 
    123 O         -9.2933  -17.8792  -50.3297 O.2       22 UNK        -0.5000 
    124 C124       -6.2953  -18.4435  -50.7605 C.3       23 UNK        -0.0398 
    125 S125       -5.7066  -19.5040  -49.3938 S.3       23 UNK        -0.2404 
    126 C126       -4.6825  -18.3400  -48.4427 C.3       23 UNK        -0.0205 
    127 H127        0.9874   -9.4547  -47.2815 H         1 UNK         0.0600 
    128 H128        0.7141   -9.7913  -48.9941 H         1 UNK         0.0600 
    129 H129        2.3176   -9.3049  -48.4345 H         1 UNK         0.0600 
    130 H130        0.5966  -11.9797  -49.4222 H         1 UNK         0.3000 
    131 H131        2.5614  -13.8549  -48.7868 H         1 UNK         0.0600 
    132 H132        1.2548  -14.2628  -50.7162 H         1 UNK         0.0800 
    133 H133        0.8794  -15.5599  -49.6231 H         1 UNK         0.0800 
    134 H134       -2.4878  -15.0065  -51.5886 H         1 UNK         0.0800 
    135 H135       -0.8386  -15.4871  -51.8938 H         1 UNK         0.0800 
    136 H136       -3.8569  -16.1335  -49.8384 H         1 UNK         0.1150 
    137 H137       -2.5342  -19.9869  -48.5204 H         1 UNK         0.1150 
    138 H138        0.1111  -17.4716  -50.7670 H         1 UNK         0.1150 
    139 H139       -0.4353  -20.8886  -49.4698 H         1 UNK         0.0800 
    140 H140        0.5831  -19.8921  -50.4636 H         1 UNK         0.0800 
    141 H141       -0.9090  -19.4745  -46.8538 H         1 UNK         0.0800 
    142 H142        0.5064  -19.1807  -45.9226 H         1 UNK         0.0800 
    143 H143        1.1248  -21.6882  -46.2615 H         1 UNK         0.0600 
    144 H144       -0.4938  -20.4874  -44.2984 H         1 UNK         0.3000 
    145 H145       -0.9126  -23.3450  -42.1782 H         1 UNK         0.0600 
    146 H146        0.0000  -21.6433  -40.5979 H         1 UNK         0.0600 
    147 H147        1.2702  -22.3169  -41.6069 H         1 UNK         0.0600 
    148 H148        0.6439  -20.7121  -41.9484 H         1 UNK         0.0600 
    149 H149       -1.8546  -20.6087  -42.1608 H         1 UNK         0.3000 
    150 H150       -4.9627  -21.2425  -43.7628 H         1 UNK         0.0600 
    151 H151       -5.3613  -22.0206  -41.4206 H         1 UNK         0.0600 
    152 H152       -5.8760  -20.3554  -41.6358 H         1 UNK         0.0600 
    153 H153       -4.3624  -20.7106  -40.8020 H         1 UNK         0.0600 
    154 H154       -3.9120  -18.9320  -42.4669 H         1 UNK         0.3000 
    155 H155       -2.1469  -17.5760  -45.2607 H         1 UNK         0.0600 
    156 H156       -4.7636  -16.8136  -43.8473 H         1 UNK         0.0600 
    157 H157       -3.7141  -15.7080  -44.7258 H         1 UNK         0.0600 
    158 H158       -4.5475  -16.9896  -45.5839 H         1 UNK         0.0600 
    159 H159       -2.5800  -16.6063  -42.6146 H         1 UNK         0.3000 
    160 H160       -0.5537  -16.3993  -41.2769 H         1 UNK         0.0600 
    161 H161       -1.2484  -19.2651  -40.3489 H         1 UNK         0.0600 
    162 H162       -2.3920  -17.9279  -40.3863 H         1 UNK         0.0600 
    163 H163       -1.0260  -17.8745  -39.2933 H         1 UNK         0.0600 
    164 H164        1.2133  -18.3950  -42.1218 H         1 UNK         0.3000 
    165 H165        3.8991  -17.4167  -40.0542 H         1 UNK         0.0600 
    166 H166        4.4692  -19.8300  -40.1000 H         1 UNK         0.0600 
    167 H167        3.1806  -19.5386  -38.9430 H         1 UNK         0.0600 
    168 H168        2.8047  -20.2466  -40.5085 H         1 UNK         0.0600 
    169 H169        3.7301  -19.0027  -42.4333 H         1 UNK         0.3000 
    170 H170        4.7898  -17.8593  -44.3861 H         1 UNK         0.0600 
    171 H171        2.5053  -18.8471  -44.4895 H         1 UNK         0.0600 
    172 H172        1.7994  -17.2578  -44.7621 H         1 UNK         0.0600 
    173 H173        2.8429  -17.9849  -45.9805 H         1 UNK         0.0600 
    174 H174        3.3815  -15.4951  -45.3763 H         1 UNK         0.3000 
    175 H175        6.1764  -13.2902  -45.0531 H         1 UNK         0.0600 
    176 H176        6.3248  -14.3031  -47.3159 H         1 UNK         0.0600 
    177 H177        4.5714  -14.3595  -47.4378 H         1 UNK         0.0600 
    178 H178        5.4036  -12.8069  -47.3772 H         1 UNK         0.0600 
    179 H179        3.4217  -12.9065  -45.7578 H         1 UNK         0.3000 
    180 H180        2.1791  -12.3642  -42.4748 H         1 UNK         0.0600 
    181 H181        2.7361  -10.2854  -44.6582 H         1 UNK         0.0600 
    182 H182        3.1828  -10.1512  -42.9628 H         1 UNK         0.0600 
    183 H183        1.4866  -10.1667  -43.4200 H         1 UNK         0.0600 
    184 H184        1.3885  -12.2655  -45.3350 H         1 UNK         0.3000 
    185 H185       -0.3496  -15.3024  -45.2105 H         1 UNK         0.0600 
    186 H186       -2.0878  -13.9716  -44.0277 H         1 UNK         0.0600 
    187 H187       -1.7185  -12.5633  -45.0149 H         1 UNK         0.0600 
    188 H188       -2.4132  -14.0029  -45.7568 H         1 UNK         0.0600 
    189 H189       -0.4455  -13.1305  -47.0702 H         1 UNK         0.3000 
    190 H190       -2.4623  -21.4312  -46.0773 H         1 UNK         0.3000 
    191 H191       -3.0436  -22.8159  -48.4700 H         1 UNK         0.0600 
    192 H192       -4.7297  -22.4917  -45.9313 H         1 UNK         0.0600 
    193 H193       -5.3421  -22.9123  -47.5273 H         1 UNK         0.0600 
    194 H194       -4.6337  -21.3294  -47.2514 H         1 UNK         0.0600 
    195 H195       -2.1329  -24.0935  -45.3259 H         1 UNK         0.3000 
    196 H196       -2.9835  -26.8399  -45.9208 H         1 UNK         0.0600 
    197 H197       -1.8293  -27.3587  -43.7906 H         1 UNK         0.0600 
    198 H198       -2.9451  -26.0175  -43.5774 H         1 UNK         0.0600 
    199 H199       -1.2135  -25.7150  -43.6870 H         1 UNK         0.0600 
    200 H200        0.0233  -24.8961  -45.9577 H         1 UNK         0.3000 
    201 H201        1.7711  -27.0682  -46.6092 H         1 UNK         0.0600 
    202 H202        2.5257  -25.0419  -45.4019 H         1 UNK         0.0600 
    203 H203        2.1597  -24.0359  -46.8019 H         1 UNK         0.0600 
    204 H204        3.4436  -25.2366  -46.8880 H         1 UNK         0.0600 
    205 H205        0.0670  -24.6387  -48.6251 H         1 UNK         0.3000 
    206 H206        0.9181  -26.0267  -51.1068 H         1 UNK         0.0600 
    207 H207        2.5594  -24.1697  -50.6849 H         1 UNK         0.0600 
    208 H208        1.5488  -23.7922  -52.0681 H         1 UNK         0.0600 
    209 H209        1.2336  -23.0225  -50.5152 H         1 UNK         0.0600 
    210 H210       -0.2831  -25.1543  -52.9998 H         1 UNK         0.3000 
    211 H211       -3.1194  -25.1615  -52.5094 H         1 UNK         0.0600 
    212 H212       -1.5114  -24.7691  -55.0903 H         1 UNK         0.0600 
    213 H213       -3.2307  -25.1282  -54.9978 H         1 UNK         0.0600 
    214 H214       -2.0632  -26.3167  -54.4459 H         1 UNK         0.0600 
    215 H215       -0.9490  -22.6347  -52.4118 H         1 UNK         0.3000 
    216 H216       -1.0819  -20.4586  -52.1120 H         1 UNK         0.0600 
    217 H217       -3.1651  -19.2121  -51.8994 H         1 UNK         0.0600 
    218 H218       -3.4093  -20.7728  -51.1314 H         1 UNK         0.0600 
    219 H219       -4.0883  -20.4486  -52.7261 H         1 UNK         0.0600 
    220 H220       -0.9740  -18.4976  -53.2829 H         1 UNK         0.3000 
    221 H221       -0.4393  -18.7210  -56.0687 H         1 UNK         0.0600 
    222 H222       -0.8313  -16.2398  -54.3049 H         1 UNK         0.0600 
    223 H223        0.6928  -17.0921  -54.5579 H         1 UNK         0.0600 
    224 H224       -0.0810  -16.2578  -55.8954 H         1 UNK         0.0600 
    225 H225       -3.3373  -17.9104  -54.3018 H         1 UNK         0.3000 
    226 H226       -4.8391  -16.7782  -56.5146 H         1 UNK         0.0600 
    227 H227       -5.2847  -16.1903  -54.1204 H         1 UNK         0.0600 
    228 H228       -6.7078  -16.8928  -54.8732 H         1 UNK         0.0600 
    229 H229       -5.7250  -17.8670  -53.7894 H         1 UNK         0.0600 
    230 H230       -3.9203  -19.9794  -55.7016 H         1 UNK         0.3000 
    231 H231       -4.4809  -22.0358  -56.2195 H         1 UNK         0.0600 
    232 H232       -5.6552  -22.5427  -58.3335 H         1 UNK         0.0600 
    233 H233       -4.4511  -21.2873  -58.5822 H         1 UNK         0.0600 
    234 H234       -6.1613  -20.8702  -58.5044 H         1 UNK         0.0600 
    235 H235       -5.4114  -22.2678  -54.2146 H         1 UNK         0.3000 
    236 H236       -6.8489  -22.7826  -52.6450 H         1 UNK         0.0600 
    237 H237       -9.0967  -22.9632  -54.7195 H         1 UNK         0.0600 
    238 H238       -8.0300  -24.2832  -54.2439 H         1 UNK         0.0600 
    239 H239       -9.1287  -23.5681  -53.0741 H         1 UNK         0.0600 
    240 H240       -6.3699  -20.7839  -51.7486 H         1 UNK         0.3000 
    241 H241       -7.7251  -18.3636  -52.3478 H         1 UNK         0.0600 
    242 H242      -10.2316  -20.0307  -49.6578 H         1 UNK         0.3800 
    243 H243       -9.0078  -20.9838  -50.4540 H         1 UNK         0.3800 
    244 H244       -5.4681  -18.3032  -51.4559 H         1 UNK         0.0800 
    245 H245       -6.5254  -17.4491  -50.3740 H         1 UNK         0.0800 
    246 H246       -5.2245  -17.4060  -48.2884 H         1 UNK         0.0800 
    247 H247       -4.5136  -18.7593  -47.4507 H         1 UNK         0.0800 
@<TRIPOS>BOND
     1    1    2 1    
     2    1  127 1    
     3    1  128 1    
     4    1  129 1    
     5    2    3 2    
     6    2    4 am   BACKBONE|DICT|INTERRES
     7    4    5 1    
     8    4  130 1    
     9    5    6 1    
    10    5   65 1    
    11    5  131 1    
    12    6    7 1    
    13    6  132 1    
    14    6  133 1    
    15    7    8 1    
    16    8    9 1    
    17    8  134 1    
    18    8  135 1    
    19    9   10 ar   
    20    9   14 ar   
    21   10   11 ar   
    22   10  136 1    
    23   11   12 ar   
    24   11  126 1    
    25   12   13 ar   
    26   12  137 1    
    27   13   14 ar   
    28   13   15 1    
    29   14  138 1    
    30   15   16 1    
    31   15  139 1    
    32   15  140 1    
    33   16   17 1    
    34   17   18 1    
    35   17  141 1    
    36   17  142 1    
    37   18   19 1    
    38   18   67 1    
    39   18  143 1    
    40   19   20 am   BACKBONE|DICT|INTERRES
    41   19  144 1    
    42   20   21 2    
    43   20   22 1    
    44   22   23 1    
    45   22   24 1    
    46   22  145 1    
    47   23  146 1    
    48   23  147 1    
    49   23  148 1    
    50   24   25 am   BACKBONE|DICT|INTERRES
    51   24  149 1    
    52   25   26 2    
    53   25   27 1    
    54   27   28 1    
    55   27   29 1    
    56   27  150 1    
    57   28  151 1    
    58   28  152 1    
    59   28  153 1    
    60   29   30 am   BACKBONE|DICT|INTERRES
    61   29  154 1    
    62   30   31 2    
    63   30   32 1    
    64   32   33 1    
    65   32   34 1    
    66   32  155 1    
    67   33  156 1    
    68   33  157 1    
    69   33  158 1    
    70   34   35 am   BACKBONE|DICT|INTERRES
    71   34  159 1    
    72   35   36 2    
    73   35   37 1    
    74   37   38 1    
    75   37   39 1    
    76   37  160 1    
    77   38  161 1    
    78   38  162 1    
    79   38  163 1    
    80   39   40 am   BACKBONE|DICT|INTERRES
    81   39  164 1    
    82   40   41 2    
    83   40   42 1    
    84   42   43 1    
    85   42   44 1    
    86   42  165 1    
    87   43  166 1    
    88   43  167 1    
    89   43  168 1    
    90   44   45 am   BACKBONE|DICT|INTERRES
    91   44  169 1    
    92   45   46 2    
    93   45   47 1    
    94   47   48 1    
    95   47   49 1    
    96   47  170 1    
    97   48  171 1    
    98   48  172 1    
    99   48  173 1    
   100   49   50 am   BACKBONE|DICT|INTERRES
   101   49  174 1    
   102   50   51 2    
   103   50   52 1    
   104   52   53 1    
   105   52   54 1    
   106   52  175 1    
   107   53  176 1    
   108   53  177 1    
   109   53  178 1    
   110   54   55 am   BACKBONE|DICT|INTERRES
   111   54  179 1    
   112   55   56 2    
   113   55   57 1    
   114   57   58 1    
   115   57   59 1    
   116   57  180 1    
   117   58  181 1    
   118   58  182 1    
   119   58  183 1    
   120   59   60 am   BACKBONE|DICT|INTERRES
   121   59  184 1    
   122   60   61 2    
   123   60   62 1    
   124   62   63 1    
   125   62   64 1    
   126   62  185 1    
   127   63  186 1    
   128   63  187 1    
   129   63  188 1    
   130   64   65 am   BACKBONE|DICT|INTERRES
   131   64  189 1    
   132   65   66 2    
   133   67   68 2    
   134   67   69 am   BACKBONE|DICT|INTERRES
   135   69   70 1    
   136   69  190 1    
   137   70   71 1    
   138   70   72 1    
   139   70  191 1    
   140   71  192 1    
   141   71  193 1    
   142   71  194 1    
   143   72   73 2    
   144   72   74 am   BACKBONE|DICT|INTERRES
   145   74   75 1    
   146   74  195 1    
   147   75   76 1    
   148   75   77 1    
   149   75  196 1    
   150   76  197 1    
   151   76  198 1    
   152   76  199 1    
   153   77   78 2    
   154   77   79 am   BACKBONE|DICT|INTERRES
   155   79   80 1    
   156   79  200 1    
   157   80   81 1    
   158   80   82 1    
   159   80  201 1    
   160   81  202 1    
   161   81  203 1    
   162   81  204 1    
   163   82   83 2    
   164   82   84 am   BACKBONE|DICT|INTERRES
   165   84   85 1    
   166   84  205 1    
   167   85   86 1    
   168   85   87 1    
   169   85  206 1    
   170   86  207 1    
   171   86  208 1    
   172   86  209 1    
   173   87   88 2    
   174   87   89 am   BACKBONE|DICT|INTERRES
   175   89   90 1    
   176   89  210 1    
   177   90   91 1    
   178   90   92 1    
   179   90  211 1    
   180   91  212 1    
   181   91  213 1    
   182   91  214 1    
   183   92   93 2    
   184   92   94 am   BACKBONE|DICT|INTERRES
   185   94   95 1    
   186   94  215 1    
   187   95   96 1    
   188   95   97 1    
   189   95  216 1    
   190   96  217 1    
   191   96  218 1    
   192   96  219 1    
   193   97   98 2    
   194   97   99 am   BACKBONE|DICT|INTERRES
   195   99  100 1    
   196   99  220 1    
   197  100  101 1    
   198  100  102 1    
   199  100  221 1    
   200  101  222 1    
   201  101  223 1    
   202  101  224 1    
   203  102  103 2    
   204  102  104 am   BACKBONE|DICT|INTERRES
   205  104  105 1    
   206  104  225 1    
   207  105  106 1    
   208  105  107 1    
   209  105  226 1    
   210  106  227 1    
   211  106  228 1    
   212  106  229 1    
   213  107  108 2    
   214  107  109 am   BACKBONE|DICT|INTERRES
   215  109  110 1    
   216  109  230 1    
   217  110  111 1    
   218  110  112 1    
   219  110  231 1    
   220  111  232 1    
   221  111  233 1    
   222  111  234 1    
   223  112  113 2    
   224  112  114 am   BACKBONE|DICT|INTERRES
   225  114  115 1    
   226  114  235 1    
   227  115  116 1    
   228  115  117 1    
   229  115  236 1    
   230  116  237 1    
   231  116  238 1    
   232  116  239 1    
   233  117  118 2    
   234  117  119 am   BACKBONE|DICT|INTERRES
   235  119  120 1    
   236  119  240 1    
   237  120  121 1    
   238  120  124 1    
   239  120  241 1    
   240  121  122 am   BACKBONE|DICT|INTERRES
   241  121  123 2    
   242  122  242 1    
   243  122  243 1    
   244  124  125 1    
   245  124  244 1    
   246  124  245 1    
   247  125  126 1    
   248  126  246 1    
   249  126  247 1    
@<TRIPOS>SUBSTRUCTURE
     1 UNK         1 GROUP             0       ****    0 ROOT    
