@<TRIPOS>MOLECULE
3R540
247   249    1
SMALL
USER_CHARGES


@<TRIPOS>ATOM
      1 CA         -1.3810  -13.5194  -50.1911 C.3       0 UNK        -0.1800 
      2 C           0.0441  -13.0024  -50.0542 C.2       0 UNK         0.5000 
      3 O           0.2614  -11.7910  -50.0720 O.2       0 UNK        -0.5000 
      4 N           1.0127  -13.9179  -49.9267 N.am      1 UNK        -0.5000 
      5 CA          2.4455  -13.6210  -49.7933 C.3       1 UNK         0.1400 
      6 C6          3.3161  -14.8853  -50.0065 C.3       23 UNK        -0.0398 
      7 S7          3.2665  -15.4976  -51.7287 S.3       23 UNK        -0.2404 
      8 C8          1.9405  -16.7475  -51.6827 C.3       23 UNK        -0.0205 
      9 C9          2.4455  -18.1762  -51.5128 C.ar      23 UNK        -0.0193 
     10 C10         2.1787  -19.1390  -52.4937 C.ar      23 UNK        -0.1150 
     11 C11         2.5676  -20.4698  -52.3112 C.ar      23 UNK        -0.0193 
     12 C12         3.2445  -20.8338  -51.1442 C.ar      23 UNK        -0.1150 
     13 C13         3.5191  -19.8833  -50.1584 C.ar      23 UNK        -0.0193 
     14 C14         3.1215  -18.5581  -50.3511 C.ar      23 UNK        -0.1150 
     15 C15         4.2406  -20.2881  -48.8821 C.3       23 UNK        -0.0205 
     16 S16         3.1439  -21.1580  -47.7165 S.3       23 UNK        -0.2404 
     17 C17         1.9239  -19.8695  -47.2903 C.3       23 UNK        -0.0398 
     18 CA          0.4641  -20.3415  -47.5407 C.3       11 UNK         0.1400 
     19 N          -0.2453  -20.5881  -46.2818 N.am      11 UNK        -0.5000 
     20 C          -1.4331  -21.1957  -46.1700 C.2       10 UNK         0.5000 
     21 O          -2.0350  -21.6936  -47.1199 O.2       10 UNK        -0.5000 
     22 CA         -2.0797  -21.2055  -44.7715 C.3       10 UNK         0.1400 
     23 CB         -1.5698  -22.3941  -43.9439 C.3       10 UNK        -0.1800 
     24 N          -1.8559  -19.9570  -44.0378 N.am      10 UNK        -0.5000 
     25 C          -2.3429  -18.7641  -44.4099 C.2       9 UNK         0.5000 
     26 O          -3.1008  -18.6124  -45.3663 O.2       9 UNK        -0.5000 
     27 CA         -1.8624  -17.5260  -43.6274 C.3       9 UNK         0.1400 
     28 CB         -2.6995  -17.3134  -42.3586 C.3       9 UNK        -0.1800 
     29 N          -0.4445  -17.5881  -43.2732 N.am      9 UNK        -0.5000 
     30 C           0.5610  -17.6464  -44.1581 C.2       8 UNK         0.5000 
     31 O           0.4040  -17.6419  -45.3780 O.2       8 UNK        -0.5000 
     32 CA          1.9746  -17.8169  -43.5780 C.3       8 UNK         0.1400 
     33 CB          2.5287  -16.4840  -43.0530 C.3       8 UNK        -0.1800 
     34 N           1.9969  -18.8207  -42.5143 N.am      8 UNK        -0.5000 
     35 C           1.8136  -20.1340  -42.7140 C.2       7 UNK         0.5000 
     36 O           1.6532  -20.6404  -43.8242 O.2       7 UNK        -0.5000 
     37 CA          1.7582  -21.0221  -41.4573 C.3       7 UNK         0.1400 
     38 CB          3.1745  -21.3867  -40.9882 C.3       7 UNK        -0.1800 
     39 N           1.0292  -20.3910  -40.3555 N.am      7 UNK        -0.5000 
     40 C          -0.2860  -20.1303  -40.3694 C.2       6 UNK         0.5000 
     41 O          -1.0312  -20.4317  -41.3002 O.2       6 UNK        -0.5000 
     42 CA         -0.8540  -19.3566  -39.1641 C.3       6 UNK         0.1400 
     43 CB         -1.2498  -20.3251  -38.0398 C.3       6 UNK        -0.1800 
     44 N           0.0643  -18.3436  -38.6337 N.am      6 UNK        -0.5000 
     45 C           0.5388  -17.3052  -39.3332 C.2       5 UNK         0.5000 
     46 O           0.2619  -17.0934  -40.5182 O.2       5 UNK        -0.5000 
     47 CA          1.5193  -16.3780  -38.6033 C.3       5 UNK         0.1400 
     48 CB          2.8730  -17.0747  -38.3731 C.3       5 UNK        -0.1800 
     49 N           1.7167  -15.1903  -39.4228 N.am      5 UNK        -0.5000 
     50 C           2.0792  -13.9782  -38.9944 C.2       4 UNK         0.5000 
     51 O           2.3177  -13.7156  -37.8148 O.2       4 UNK        -0.5000 
     52 CA          2.2122  -12.8704  -40.0601 C.3       4 UNK         0.1400 
     53 CB          3.6937  -12.5475  -40.3119 C.3       4 UNK        -0.1800 
     54 N           1.5854  -13.1995  -41.3451 N.am      4 UNK        -0.5000 
     55 C           0.2655  -13.1921  -41.5840 C.2       3 UNK         0.5000 
     56 O          -0.5762  -12.9284  -40.7248 O.2       3 UNK        -0.5000 
     57 CA         -0.1693  -13.5123  -43.0269 C.3       3 UNK         0.1400 
     58 CB         -1.5765  -12.9861  -43.3710 C.3       3 UNK        -0.1800 
     59 N           0.8153  -12.9992  -43.9834 N.am      3 UNK        -0.5000 
     60 C           1.0544  -13.5303  -45.1861 C.2       2 UNK         0.5000 
     61 O           0.4284  -14.4859  -45.6467 O.2       2 UNK        -0.5000 
     62 CA          2.2025  -12.9138  -45.9993 C.3       2 UNK         0.1400 
     63 CB          3.5681  -13.3121  -45.4016 C.3       2 UNK        -0.1800 
     64 N           2.0860  -13.3888  -47.3744 N.am      2 UNK        -0.5000 
     65 C           2.7763  -12.9595  -48.4372 C.2       1 UNK         0.5000 
     66 O           3.6337  -12.0765  -48.3867 O.2       1 UNK        -0.5000 
     67 C          -0.3229  -19.3717  -48.4512 C.2       11 UNK         0.5000 
     68 O          -0.4800  -19.6448  -49.6402 O.2       11 UNK        -0.5000 
     69 N          -0.8614  -18.2878  -47.8744 N.am      12 UNK        -0.5000 
     70 CA         -1.7508  -17.3469  -48.5599 C.3       12 UNK         0.1400 
     71 CB         -1.9980  -16.1192  -47.6738 C.3       12 UNK        -0.1800 
     72 C          -3.0799  -17.9873  -49.0041 C.2       12 UNK         0.5000 
     73 O          -3.5364  -17.7226  -50.1157 O.2       12 UNK        -0.5000 
     74 N          -3.6554  -18.8558  -48.1614 N.am      13 UNK        -0.5000 
     75 CA         -4.8373  -19.6561  -48.4863 C.3       13 UNK         0.1400 
     76 CB         -5.3500  -20.3714  -47.2286 C.3       13 UNK        -0.1800 
     77 C          -4.5755  -20.6665  -49.6171 C.2       13 UNK         0.5000 
     78 O          -5.4653  -20.9061  -50.4326 O.2       13 UNK        -0.5000 
     79 N          -3.3639  -21.2339  -49.6701 N.am      14 UNK        -0.5000 
     80 CA         -2.9160  -22.1096  -50.7508 C.3       14 UNK         0.1400 
     81 CB         -1.6578  -22.8732  -50.3213 C.3       14 UNK        -0.1800 
     82 C          -2.6925  -21.3459  -52.0670 C.2       14 UNK         0.5000 
     83 O          -3.0252  -21.8742  -53.1282 O.2       14 UNK        -0.5000 
     84 N          -2.1939  -20.1061  -51.9780 N.am      15 UNK        -0.5000 
     85 CA         -2.0533  -19.1800  -53.1038 C.3       15 UNK         0.1400 
     86 CB         -1.2725  -17.9386  -52.6519 C.3       15 UNK        -0.1800 
     87 C          -3.4163  -18.7733  -53.6946 C.2       15 UNK         0.5000 
     88 O          -3.5696  -18.7366  -54.9153 O.2       15 UNK        -0.5000 
     89 N          -4.3879  -18.5139  -52.8085 N.am      16 UNK        -0.5000 
     90 CA         -5.7811  -18.2017  -53.1372 C.3       16 UNK         0.1400 
     91 CB         -6.4408  -17.5703  -51.9009 C.3       16 UNK        -0.1800 
     92 C          -6.5987  -19.4227  -53.6107 C.2       16 UNK         0.5000 
     93 O          -7.7118  -19.2437  -54.1062 O.2       16 UNK        -0.5000 
     94 N          -6.0461  -20.6306  -53.4301 N.am      17 UNK        -0.5000 
     95 CA         -6.6349  -21.9415  -53.7145 C.3       17 UNK         0.1400 
     96 CB         -6.8766  -22.1384  -55.2246 C.3       17 UNK        -0.1800 
     97 C          -7.8560  -22.2824  -52.8381 C.2       17 UNK         0.5000 
     98 O          -8.7305  -23.0418  -53.2577 O.2       17 UNK        -0.5000 
     99 N          -7.8608  -21.7503  -51.6109 N.am      18 UNK        -0.5000 
    100 CA        -8.7644  -22.1433  -50.5333 C.3       18 UNK         0.1400 
    101 CB        -8.9460  -20.9550  -49.5762 C.3       18 UNK        -0.1800 
    102 C         -8.2244  -23.3749  -49.7801 C.2       18 UNK         0.5000 
    103 O         -9.0203  -24.1761  -49.2894 O.2       18 UNK        -0.5000 
    104 N         -6.8907  -23.5032  -49.7119 N.am      19 UNK        -0.5000 
    105 CA        -6.1778  -24.6276  -49.1075 C.3       19 UNK         0.1400 
    106 CB        -5.1667  -24.0961  -48.0703 C.3       19 UNK        -0.1800 
    107 C         -5.5553  -25.5067  -50.2123 C.2       19 UNK         0.5000 
    108 O         -6.2925  -26.0257  -51.0508 O.2       19 UNK        -0.5000 
    109 N         -4.2255  -25.6843  -50.1881 N.am      20 UNK        -0.5000 
    110 CA        -3.4728  -26.6567  -50.9928 C.3       20 UNK         0.1400 
    111 CB        -2.0511  -26.7754  -50.4194 C.3       20 UNK        -0.1800 
    112 C         -3.4256  -26.3989  -52.5151 C.2       20 UNK         0.5000 
    113 O         -3.0202  -27.2990  -53.2515 O.2       20 UNK        -0.5000 
    114 N         -3.8396  -25.2037  -52.9605 N.am      21 UNK        -0.5000 
    115 CA        -3.9648  -24.7891  -54.3639 C.3       21 UNK         0.1400 
    116 CB        -5.0690  -25.5960  -55.0793 C.3       21 UNK        -0.1800 
    117 C         -2.6275  -24.7587  -55.1298 C.2       21 UNK         0.5000 
    118 O         -2.5509  -25.2370  -56.2634 O.2       21 UNK        -0.5000 
    119 N         -1.6042  -24.1623  -54.5048 N.am      22 UNK        -0.5000 
    120 CA        -0.3416  -23.7993  -55.1687 C.3       22 UNK         0.1400 
    121 C         -0.4230  -22.4784  -55.9912 C.2       22 UNK         0.5000 
    122 N         -1.4522  -21.6550  -55.8222 N.am      22 UNK        -0.7600 
    123 O          0.4527  -22.2083  -56.8083 O.2       22 UNK        -0.5000 
    124 C124        0.8643  -23.8199  -54.1951 C.3       23 UNK        -0.0398 
    125 S125        0.8279  -22.5407  -52.8898 S.3       23 UNK        -0.2404 
    126 C126        2.2584  -21.5201  -53.3665 C.3       23 UNK        -0.0205 
    127 H127       -1.4106  -14.6018  -50.3161 H         1 UNK         0.0600 
    128 H128       -1.8623  -13.0684  -51.0588 H         1 UNK         0.0600 
    129 H129       -1.9604  -13.2591  -49.3055 H         1 UNK         0.0600 
    130 H130        0.7660  -14.8947  -49.9226 H         1 UNK         0.3000 
    131 H131        2.7072  -12.8970  -50.5683 H         1 UNK         0.0600 
    132 H132        3.0213  -15.6714  -49.3120 H         1 UNK         0.0800 
    133 H133        4.3627  -14.6668  -49.7851 H         1 UNK         0.0800 
    134 H134        1.2292  -16.5279  -50.8873 H         1 UNK         0.0800 
    135 H135        1.3840  -16.6569  -52.6162 H         1 UNK         0.0800 
    136 H136        1.6453  -18.8599  -53.3914 H         1 UNK         0.1150 
    137 H137        3.5422  -21.8623  -50.9952 H         1 UNK         0.1150 
    138 H138        3.3290  -17.8285  -49.5846 H         1 UNK         0.1150 
    139 H139        5.0769  -20.9420  -49.1333 H         1 UNK         0.0800 
    140 H140        4.6745  -19.4169  -48.3887 H         1 UNK         0.0800 
    141 H141        2.1566  -18.9495  -47.8256 H         1 UNK         0.0800 
    142 H142        2.0807  -19.6160  -46.2428 H         1 UNK         0.0800 
    143 H143        0.4844  -21.2937  -48.0755 H         1 UNK         0.0600 
    144 H144        0.1961  -20.2371  -45.4408 H         1 UNK         0.3000 
    145 H145       -3.1564  -21.3261  -44.9044 H         1 UNK         0.0600 
    146 H146       -1.7428  -23.3360  -44.4661 H         1 UNK         0.0600 
    147 H147       -0.5004  -22.3194  -43.7460 H         1 UNK         0.0600 
    148 H148       -2.0838  -22.4550  -42.9846 H         1 UNK         0.0600 
    149 H149       -1.3032  -20.0193  -43.1880 H         1 UNK         0.3000 
    150 H150       -1.9980  -16.6543  -44.2710 H         1 UNK         0.0600 
    151 H151       -2.3892  -16.4134  -41.8270 H         1 UNK         0.0600 
    152 H152       -2.6102  -18.1556  -41.6730 H         1 UNK         0.0600 
    153 H153       -3.7561  -17.2003  -42.6040 H         1 UNK         0.0600 
    154 H154       -0.2207  -17.5805  -42.2816 H         1 UNK         0.3000 
    155 H155        2.6308  -18.1574  -44.3813 H         1 UNK         0.0600 
    156 H156        2.5808  -15.7496  -43.8555 H         1 UNK         0.0600 
    157 H157        3.5367  -16.6028  -42.6555 H         1 UNK         0.0600 
    158 H158        1.9045  -16.0634  -42.2670 H         1 UNK         0.0600 
    159 H159        2.0632  -18.4797  -41.5674 H         1 UNK         0.3000 
    160 H160        1.2384  -21.9446  -41.7246 H         1 UNK         0.0600 
    161 H161        3.7364  -21.8727  -41.7870 H         1 UNK         0.0600 
    162 H162        3.1448  -22.0786  -40.1463 H         1 UNK         0.0600 
    163 H163        3.7380  -20.5054  -40.6793 H         1 UNK         0.0600 
    164 H164        1.5673  -20.1123  -39.5486 H         1 UNK         0.3000 
    165 H165       -1.7554  -18.8408  -39.5000 H         1 UNK         0.0600 
    166 H166       -1.7385  -19.7991  -37.2196 H         1 UNK         0.0600 
    167 H167       -1.9496  -21.0792  -38.4028 H         1 UNK         0.0600 
    168 H168       -0.3832  -20.8492  -37.6348 H         1 UNK         0.0600 
    169 H169        0.3425  -18.4523  -37.6690 H         1 UNK         0.3000 
    170 H170        1.0760  -16.0948  -37.6465 H         1 UNK         0.0600 
    171 H171        3.5736  -16.4153  -37.8605 H         1 UNK         0.0600 
    172 H172        2.7615  -17.9659  -37.7548 H         1 UNK         0.0600 
    173 H173        3.3324  -17.3806  -39.3140 H         1 UNK         0.0600 
    174 H174        1.4573  -15.3138  -40.3918 H         1 UNK         0.3000 
    175 H175        1.7313  -11.9753  -39.6599 H         1 UNK         0.0600 
    176 H176        4.2285  -13.4057  -40.7210 H         1 UNK         0.0600 
    177 H177        3.8044  -11.7176  -41.0100 H         1 UNK         0.0600 
    178 H178        4.1950  -12.2596  -39.3868 H         1 UNK         0.0600 
    179 H179        2.2131  -13.4469  -42.0953 H         1 UNK         0.3000 
    180 H180       -0.1925  -14.6021  -43.0931 H         1 UNK         0.0600 
    181 H181       -1.8717  -13.2761  -44.3795 H         1 UNK         0.0600 
    182 H182       -1.6227  -11.8986  -43.3071 H         1 UNK         0.0600 
    183 H183       -2.3259  -13.3913  -42.6900 H         1 UNK         0.0600 
    184 H184        1.3456  -12.1934  -43.6802 H         1 UNK         0.3000 
    185 H185        2.0918  -11.8279  -45.9877 H         1 UNK         0.0600 
    186 H186        3.7417  -14.3856  -45.4814 H         1 UNK         0.0600 
    187 H187        4.3893  -12.8063  -45.9087 H         1 UNK         0.0600 
    188 H188        3.6365  -13.0439  -44.3469 H         1 UNK         0.0600 
    189 H189        1.3685  -14.0949  -47.4893 H         1 UNK         0.3000 
    190 H190       -0.6427  -18.0945  -46.8999 H         1 UNK         0.3000 
    191 H191       -1.2390  -17.0099  -49.4634 H         1 UNK         0.0600 
    192 H192       -2.4199  -16.3935  -46.7077 H         1 UNK         0.0600 
    193 H193       -2.6926  -15.4252  -48.1480 H         1 UNK         0.0600 
    194 H194       -1.0705  -15.5782  -47.4925 H         1 UNK         0.0600 
    195 H195       -3.2700  -18.9605  -47.2264 H         1 UNK         0.3000 
    196 H196       -5.6183  -18.9743  -48.8280 H         1 UNK         0.0600 
    197 H197       -6.2600  -20.9334  -47.4407 H         1 UNK         0.0600 
    198 H198       -5.5841  -19.6589  -46.4374 H         1 UNK         0.0600 
    199 H199       -4.6172  -21.0761  -46.8380 H         1 UNK         0.0600 
    200 H200       -2.7063  -21.0581  -48.9174 H         1 UNK         0.3000 
    201 H201       -3.7023  -22.8434  -50.9329 H         1 UNK         0.0600 
    202 H202       -1.8313  -23.4437  -49.4090 H         1 UNK         0.0600 
    203 H203       -0.8180  -22.2029  -50.1401 H         1 UNK         0.0600 
    204 H204       -1.3509  -23.5764  -51.0951 H         1 UNK         0.0600 
    205 H205       -1.8633  -19.7835  -51.0739 H         1 UNK         0.3000 
    206 H206       -1.4711  -19.6852  -53.8758 H         1 UNK         0.0600 
    207 H207       -0.9081  -17.3767  -53.5121 H         1 UNK         0.0600 
    208 H208       -1.8807  -17.2602  -52.0547 H         1 UNK         0.0600 
    209 H209       -0.4140  -18.2224  -52.0479 H         1 UNK         0.0600 
    210 H210       -4.1421  -18.4944  -51.8227 H         1 UNK         0.3000 
    211 H211       -5.7884  -17.4676  -53.9454 H         1 UNK         0.0600 
    212 H212       -6.4740  -18.2692  -51.0646 H         1 UNK         0.0600 
    213 H213       -7.4659  -17.2652  -52.1146 H         1 UNK         0.0600 
    214 H214       -5.8992  -16.6824  -51.5737 H         1 UNK         0.0600 
    215 H215       -5.1309  -20.6520  -53.0016 H         1 UNK         0.3000 
    216 H216       -5.8813  -22.6602  -53.4027 H         1 UNK         0.0600 
    217 H217       -7.1682  -23.1660  -55.4441 H         1 UNK         0.0600 
    218 H218       -5.9726  -21.9303  -55.7971 H         1 UNK         0.0600 
    219 H219       -7.6684  -21.4879  -55.5965 H         1 UNK         0.0600 
    220 H220       -7.0698  -21.1716  -51.3406 H         1 UNK         0.3000 
    221 H221       -9.7412  -22.4001  -50.9489 H         1 UNK         0.0600 
    222 H222       -7.9981  -20.6365  -49.1423 H         1 UNK         0.0600 
    223 H223       -9.3800  -20.0986  -50.0926 H         1 UNK         0.0600 
    224 H224       -9.6149  -21.2134  -48.7545 H         1 UNK         0.0600 
    225 H225       -6.3247  -22.7828  -50.1417 H         1 UNK         0.3000 
    226 H226       -6.8774  -25.2704  -48.5698 H         1 UNK         0.0600 
    227 H227       -5.6701  -23.4957  -47.3125 H         1 UNK         0.0600 
    228 H228       -4.6727  -24.9147  -47.5453 H         1 UNK         0.0600 
    229 H229       -4.3943  -23.4751  -48.5195 H         1 UNK         0.0600 
    230 H230       -3.7030  -25.2238  -49.4574 H         1 UNK         0.3000 
    231 H231       -3.9615  -27.6247  -50.8631 H         1 UNK         0.0600 
    232 H232       -1.4988  -25.8407  -50.5064 H         1 UNK         0.0600 
    233 H233       -2.0711  -27.0577  -49.3666 H         1 UNK         0.0600 
    234 H234       -1.4787  -27.5409  -50.9451 H         1 UNK         0.0600 
    235 H235       -4.1554  -24.5388  -52.2728 H         1 UNK         0.3000 
    236 H236       -4.2923  -23.7534  -54.3575 H         1 UNK         0.0600 
    237 H237       -4.7990  -26.6465  -55.1904 H         1 UNK         0.0600 
    238 H238       -6.0092  -25.5473  -54.5297 H         1 UNK         0.0600 
    239 H239       -5.2578  -25.1998  -56.0777 H         1 UNK         0.0600 
    240 H240       -1.7668  -23.7440  -53.5999 H         1 UNK         0.3000 
    241 H241       -0.1308  -24.5752  -55.9073 H         1 UNK         0.0600 
    242 H242       -1.5096  -20.8132  -56.3722 H         1 UNK         0.3800 
    243 H243       -2.1437  -21.8391  -55.1072 H         1 UNK         0.3800 
    244 H244        0.9131  -24.7923  -53.7035 H         1 UNK         0.0800 
    245 H245        1.7939  -23.7389  -54.7606 H         1 UNK         0.0800 
    246 H246        3.1334  -22.1571  -53.5040 H         1 UNK         0.0800 
    247 H247        2.0603  -21.0502  -54.3312 H         1 UNK         0.0800 
@<TRIPOS>BOND
     1    1    2 1    
     2    1  127 1    
     3    1  128 1    
     4    1  129 1    
     5    2    3 2    
     6    2    4 am   BACKBONE|DICT|INTERRES
     7    4    5 1    
     8    4  130 1    
     9    5    6 1    
    10    5   65 1    
    11    5  131 1    
    12    6    7 1    
    13    6  132 1    
    14    6  133 1    
    15    7    8 1    
    16    8    9 1    
    17    8  134 1    
    18    8  135 1    
    19    9   10 ar   
    20    9   14 ar   
    21   10   11 ar   
    22   10  136 1    
    23   11   12 ar   
    24   11  126 1    
    25   12   13 ar   
    26   12  137 1    
    27   13   14 ar   
    28   13   15 1    
    29   14  138 1    
    30   15   16 1    
    31   15  139 1    
    32   15  140 1    
    33   16   17 1    
    34   17   18 1    
    35   17  141 1    
    36   17  142 1    
    37   18   19 1    
    38   18   67 1    
    39   18  143 1    
    40   19   20 am   BACKBONE|DICT|INTERRES
    41   19  144 1    
    42   20   21 2    
    43   20   22 1    
    44   22   23 1    
    45   22   24 1    
    46   22  145 1    
    47   23  146 1    
    48   23  147 1    
    49   23  148 1    
    50   24   25 am   BACKBONE|DICT|INTERRES
    51   24  149 1    
    52   25   26 2    
    53   25   27 1    
    54   27   28 1    
    55   27   29 1    
    56   27  150 1    
    57   28  151 1    
    58   28  152 1    
    59   28  153 1    
    60   29   30 am   BACKBONE|DICT|INTERRES
    61   29  154 1    
    62   30   31 2    
    63   30   32 1    
    64   32   33 1    
    65   32   34 1    
    66   32  155 1    
    67   33  156 1    
    68   33  157 1    
    69   33  158 1    
    70   34   35 am   BACKBONE|DICT|INTERRES
    71   34  159 1    
    72   35   36 2    
    73   35   37 1    
    74   37   38 1    
    75   37   39 1    
    76   37  160 1    
    77   38  161 1    
    78   38  162 1    
    79   38  163 1    
    80   39   40 am   BACKBONE|DICT|INTERRES
    81   39  164 1    
    82   40   41 2    
    83   40   42 1    
    84   42   43 1    
    85   42   44 1    
    86   42  165 1    
    87   43  166 1    
    88   43  167 1    
    89   43  168 1    
    90   44   45 am   BACKBONE|DICT|INTERRES
    91   44  169 1    
    92   45   46 2    
    93   45   47 1    
    94   47   48 1    
    95   47   49 1    
    96   47  170 1    
    97   48  171 1    
    98   48  172 1    
    99   48  173 1    
   100   49   50 am   BACKBONE|DICT|INTERRES
   101   49  174 1    
   102   50   51 2    
   103   50   52 1    
   104   52   53 1    
   105   52   54 1    
   106   52  175 1    
   107   53  176 1    
   108   53  177 1    
   109   53  178 1    
   110   54   55 am   BACKBONE|DICT|INTERRES
   111   54  179 1    
   112   55   56 2    
   113   55   57 1    
   114   57   58 1    
   115   57   59 1    
   116   57  180 1    
   117   58  181 1    
   118   58  182 1    
   119   58  183 1    
   120   59   60 am   BACKBONE|DICT|INTERRES
   121   59  184 1    
   122   60   61 2    
   123   60   62 1    
   124   62   63 1    
   125   62   64 1    
   126   62  185 1    
   127   63  186 1    
   128   63  187 1    
   129   63  188 1    
   130   64   65 am   BACKBONE|DICT|INTERRES
   131   64  189 1    
   132   65   66 2    
   133   67   68 2    
   134   67   69 am   BACKBONE|DICT|INTERRES
   135   69   70 1    
   136   69  190 1    
   137   70   71 1    
   138   70   72 1    
   139   70  191 1    
   140   71  192 1    
   141   71  193 1    
   142   71  194 1    
   143   72   73 2    
   144   72   74 am   BACKBONE|DICT|INTERRES
   145   74   75 1    
   146   74  195 1    
   147   75   76 1    
   148   75   77 1    
   149   75  196 1    
   150   76  197 1    
   151   76  198 1    
   152   76  199 1    
   153   77   78 2    
   154   77   79 am   BACKBONE|DICT|INTERRES
   155   79   80 1    
   156   79  200 1    
   157   80   81 1    
   158   80   82 1    
   159   80  201 1    
   160   81  202 1    
   161   81  203 1    
   162   81  204 1    
   163   82   83 2    
   164   82   84 am   BACKBONE|DICT|INTERRES
   165   84   85 1    
   166   84  205 1    
   167   85   86 1    
   168   85   87 1    
   169   85  206 1    
   170   86  207 1    
   171   86  208 1    
   172   86  209 1    
   173   87   88 2    
   174   87   89 am   BACKBONE|DICT|INTERRES
   175   89   90 1    
   176   89  210 1    
   177   90   91 1    
   178   90   92 1    
   179   90  211 1    
   180   91  212 1    
   181   91  213 1    
   182   91  214 1    
   183   92   93 2    
   184   92   94 am   BACKBONE|DICT|INTERRES
   185   94   95 1    
   186   94  215 1    
   187   95   96 1    
   188   95   97 1    
   189   95  216 1    
   190   96  217 1    
   191   96  218 1    
   192   96  219 1    
   193   97   98 2    
   194   97   99 am   BACKBONE|DICT|INTERRES
   195   99  100 1    
   196   99  220 1    
   197  100  101 1    
   198  100  102 1    
   199  100  221 1    
   200  101  222 1    
   201  101  223 1    
   202  101  224 1    
   203  102  103 2    
   204  102  104 am   BACKBONE|DICT|INTERRES
   205  104  105 1    
   206  104  225 1    
   207  105  106 1    
   208  105  107 1    
   209  105  226 1    
   210  106  227 1    
   211  106  228 1    
   212  106  229 1    
   213  107  108 2    
   214  107  109 am   BACKBONE|DICT|INTERRES
   215  109  110 1    
   216  109  230 1    
   217  110  111 1    
   218  110  112 1    
   219  110  231 1    
   220  111  232 1    
   221  111  233 1    
   222  111  234 1    
   223  112  113 2    
   224  112  114 am   BACKBONE|DICT|INTERRES
   225  114  115 1    
   226  114  235 1    
   227  115  116 1    
   228  115  117 1    
   229  115  236 1    
   230  116  237 1    
   231  116  238 1    
   232  116  239 1    
   233  117  118 2    
   234  117  119 am   BACKBONE|DICT|INTERRES
   235  119  120 1    
   236  119  240 1    
   237  120  121 1    
   238  120  124 1    
   239  120  241 1    
   240  121  122 am   BACKBONE|DICT|INTERRES
   241  121  123 2    
   242  122  242 1    
   243  122  243 1    
   244  124  125 1    
   245  124  244 1    
   246  124  245 1    
   247  125  126 1    
   248  126  246 1    
   249  126  247 1    
@<TRIPOS>SUBSTRUCTURE
     1 UNK         1 GROUP             0       ****    0 ROOT    
