@<TRIPOS>MOLECULE
3R540
247   249    1
SMALL
USER_CHARGES


@<TRIPOS>ATOM
      1 CA          2.2380  -14.8406  -46.0470 C.3       0 UNK        -0.1800 
      2 C           1.4869  -13.5410  -45.8158 C.2       0 UNK         0.5000 
      3 O           1.9804  -12.6612  -45.1113 O.2       0 UNK        -0.5000 
      4 N           0.2962  -13.4132  -46.4111 N.am      1 UNK        -0.5000 
      5 CA         -0.6447  -12.2961  -46.2444 C.3       1 UNK         0.1400 
      6 C6         -2.0175  -12.5843  -46.9044 C.3       23 UNK        -0.0398 
      7 S7         -1.8904  -13.2285  -48.6112 S.3       23 UNK        -0.2404 
      8 C8         -2.3655  -14.9629  -48.3363 C.3       23 UNK        -0.0205 
      9 C9         -2.0561  -15.8328  -49.5421 C.ar      23 UNK        -0.0193 
     10 C10        -2.8428  -15.7378  -50.6914 C.ar      23 UNK        -0.1150 
     11 C11        -2.5919  -16.5600  -51.7921 C.ar      23 UNK        -0.0193 
     12 C12        -1.5531  -17.4938  -51.7312 C.ar      23 UNK        -0.1150 
     13 C13        -0.7563  -17.6026  -50.5863 C.ar      23 UNK        -0.0193 
     14 C14        -1.0033  -16.7520  -49.5017 C.ar      23 UNK        -0.1150 
     15 C15         0.3666  -18.6394  -50.5456 C.3       23 UNK        -0.0205 
     16 S16         0.5262  -19.5118  -48.9473 S.3       23 UNK        -0.2404 
     17 C17        -1.1683  -20.1356  -48.7007 C.3       23 UNK        -0.0398 
     18 CA         -1.2148  -21.5574  -48.0955 C.3       11 UNK         0.1400 
     19 N          -0.6363  -21.6415  -46.7471 N.am      11 UNK        -0.5000 
     20 C          -0.4891  -22.7819  -46.0532 C.2       10 UNK         0.5000 
     21 O          -0.7574  -23.8940  -46.5029 O.2       10 UNK        -0.5000 
     22 CA         -0.0477  -22.6664  -44.5840 C.3       10 UNK         0.1400 
     23 CB          1.4764  -22.5187  -44.4613 C.3       10 UNK        -0.1800 
     24 N          -0.7307  -21.5692  -43.8984 N.am      10 UNK        -0.5000 
     25 C          -2.0473  -21.5526  -43.6413 C.2       9 UNK         0.5000 
     26 O          -2.8010  -22.4922  -43.8924 O.2       9 UNK        -0.5000 
     27 CA         -2.6296  -20.2588  -43.0468 C.3       9 UNK         0.1400 
     28 CB         -2.6175  -20.3108  -41.5121 C.3       9 UNK        -0.1800 
     29 N          -1.9115  -19.0709  -43.5089 N.am      9 UNK        -0.5000 
     30 C          -2.0163  -18.5668  -44.7482 C.2       8 UNK         0.5000 
     31 O          -2.7593  -19.0345  -45.6120 O.2       8 UNK        -0.5000 
     32 CA         -1.0980  -17.3752  -45.0936 C.3       8 UNK         0.1400 
     33 CB         -1.7356  -16.0590  -44.6241 C.3       8 UNK        -0.1800 
     34 N           0.2385  -17.4954  -44.5056 N.am      8 UNK        -0.5000 
     35 C           1.0816  -18.5119  -44.7454 C.2       7 UNK         0.5000 
     36 O           0.8598  -19.3806  -45.5862 O.2       7 UNK        -0.5000 
     37 CA          2.3364  -18.6402  -43.8544 C.3       7 UNK         0.1400 
     38 CB          3.6095  -18.2481  -44.6189 C.3       7 UNK        -0.1800 
     39 N           2.2660  -17.8860  -42.6002 N.am      7 UNK        -0.5000 
     40 C           1.3517  -18.0686  -41.6355 C.2       6 UNK         0.5000 
     41 O           0.4824  -18.9387  -41.6862 O.2       6 UNK        -0.5000 
     42 CA          1.3735  -17.0942  -40.4408 C.3       6 UNK         0.1400 
     43 CB          1.9646  -17.7829  -39.2016 C.3       6 UNK        -0.1800 
     44 N           2.1033  -15.8449  -40.6850 N.am      6 UNK        -0.5000 
     45 C           1.7815  -14.9150  -41.5947 C.2       5 UNK         0.5000 
     46 O           0.8433  -15.0263  -42.3894 O.2       5 UNK        -0.5000 
     47 CA          2.7169  -13.6965  -41.6541 C.3       5 UNK         0.1400 
     48 CB          3.9771  -14.0255  -42.4709 C.3       5 UNK        -0.1800 
     49 N           2.0595  -12.5469  -42.2642 N.am      5 UNK        -0.5000 
     50 C           1.3138  -11.6437  -41.6163 C.2       4 UNK         0.5000 
     51 O           1.0848  -11.6926  -40.4060 O.2       4 UNK        -0.5000 
     52 CA          0.7510  -10.4844  -42.4719 C.3       4 UNK         0.1400 
     53 CB          0.3355   -9.2564  -41.6356 C.3       4 UNK        -0.1800 
     54 N           1.6546  -10.0976  -43.5629 N.am      4 UNK        -0.5000 
     55 C           2.9145   -9.6428  -43.4649 C.2       3 UNK         0.5000 
     56 O           3.4498   -9.3301  -42.4006 O.2       3 UNK        -0.5000 
     57 CA          3.7347   -9.5598  -44.7687 C.3       3 UNK         0.1400 
     58 CB          4.9565  -10.4912  -44.6901 C.3       3 UNK        -0.1800 
     59 N           2.9471   -9.9464  -45.9414 N.am      3 UNK        -0.5000 
     60 C           2.5089   -9.1118  -46.8935 C.2       2 UNK         0.5000 
     61 O           2.7536   -7.9050  -46.9132 O.2       2 UNK        -0.5000 
     62 CA          1.6375   -9.7241  -48.0110 C.3       2 UNK         0.1400 
     63 CB          2.5014  -10.0823  -49.2297 C.3       2 UNK        -0.1800 
     64 N           0.8980  -10.9158  -47.5869 N.am      2 UNK        -0.5000 
     65 C          -0.0823  -10.9235  -46.6729 C.2       1 UNK         0.5000 
     66 O          -0.5083   -9.9063  -46.1259 O.2       1 UNK        -0.5000 
     67 C          -2.6632  -22.0825  -48.1262 C.2       11 UNK         0.5000 
     68 O          -2.9971  -22.8710  -49.0089 O.2       11 UNK        -0.5000 
     69 N          -3.4811  -21.6720  -47.1451 N.am      12 UNK        -0.5000 
     70 CA         -4.8669  -22.1175  -46.9890 C.3       12 UNK         0.1400 
     71 CB         -5.5459  -21.3182  -45.8675 C.3       12 UNK        -0.1800 
     72 C          -4.9926  -23.6340  -46.7449 C.2       12 UNK         0.5000 
     73 O          -5.8787  -24.2665  -47.3196 O.2       12 UNK        -0.5000 
     74 N          -4.0959  -24.1874  -45.9169 N.am      13 UNK        -0.5000 
     75 CA         -4.0162  -25.6152  -45.6119 C.3       13 UNK         0.1400 
     76 CB         -3.1265  -25.8231  -44.3765 C.3       13 UNK        -0.1800 
     77 C          -3.5071  -26.4546  -46.7986 C.2       13 UNK         0.5000 
     78 O          -4.0822  -27.5047  -47.0876 O.2       13 UNK        -0.5000 
     79 N          -2.4375  -25.9861  -47.4562 N.am      14 UNK        -0.5000 
     80 CA         -1.8076  -26.6449  -48.6022 C.3       14 UNK         0.1400 
     81 CB         -0.4363  -26.0028  -48.8557 C.3       14 UNK        -0.1800 
     82 C          -2.6651  -26.5874  -49.8775 C.2       14 UNK         0.5000 
     83 O          -2.6580  -27.5413  -50.6577 O.2       14 UNK        -0.5000 
     84 N          -3.3779  -25.4689  -50.0677 N.am      15 UNK        -0.5000 
     85 CA         -4.2434  -25.1531  -51.2003 C.3       15 UNK         0.1400 
     86 CB         -5.5310  -26.0040  -51.1488 C.3       15 UNK        -0.1800 
     87 C          -3.4710  -25.2366  -52.5310 C.2       15 UNK         0.5000 
     88 O          -2.5140  -24.4833  -52.7201 O.2       15 UNK        -0.5000 
     89 N          -3.8623  -26.1663  -53.4113 N.am      16 UNK        -0.5000 
     90 CA         -3.2412  -26.4257  -54.7121 C.3       16 UNK         0.1400 
     91 CB         -4.0443  -27.5163  -55.4365 C.3       16 UNK        -0.1800 
     92 C          -1.7485  -26.8101  -54.6454 C.2       16 UNK         0.5000 
     93 O          -1.0327  -26.5908  -55.6229 O.2       16 UNK        -0.5000 
     94 N          -1.2956  -27.3513  -53.5034 N.am      17 UNK        -0.5000 
     95 CA          0.1125  -27.6661  -53.2537 C.3       17 UNK         0.1400 
     96 CB          0.2231  -28.6578  -52.0860 C.3       17 UNK        -0.1800 
     97 C           0.9776  -26.4130  -53.0059 C.2       17 UNK         0.5000 
     98 O           2.1856  -26.4714  -53.2391 O.2       17 UNK        -0.5000 
     99 N           0.3601  -25.3058  -52.5655 N.am      18 UNK        -0.5000 
    100 CA         0.9958  -23.9899  -52.5002 C.3       18 UNK         0.1400 
    101 CB         0.4125  -23.1659  -51.3386 C.3       18 UNK        -0.1800 
    102 C          0.8282  -23.2677  -53.8455 C.2       18 UNK         0.5000 
    103 O          1.8265  -22.9198  -54.4765 O.2       18 UNK        -0.5000 
    104 N         -0.4312  -23.0990  -54.2667 N.am      19 UNK        -0.5000 
    105 CA        -0.8612  -22.5159  -55.5387 C.3       19 UNK         0.1400 
    106 CB        -0.3590  -21.0661  -55.7185 C.3       19 UNK        -0.1800 
    107 C         -2.3923  -22.5537  -55.5947 C.2       19 UNK         0.5000 
    108 O         -2.9669  -23.1047  -56.5334 O.2       19 UNK        -0.5000 
    109 N         -3.0128  -21.9931  -54.5543 N.am      20 UNK        -0.5000 
    110 CA        -4.4407  -21.9741  -54.2794 C.3       20 UNK         0.1400 
    111 CB        -5.1524  -20.9620  -55.1952 C.3       20 UNK        -0.1800 
    112 C         -4.6085  -21.6089  -52.7974 C.2       20 UNK         0.5000 
    113 O         -3.6763  -21.0709  -52.1925 O.2       20 UNK        -0.5000 
    114 N         -5.7833  -21.9172  -52.2329 N.am      21 UNK        -0.5000 
    115 CA        -6.1057  -21.6164  -50.8349 C.3       21 UNK         0.1400 
    116 CB        -7.3151  -22.4541  -50.3934 C.3       21 UNK        -0.1800 
    117 C         -6.3594  -20.1170  -50.5925 C.2       21 UNK         0.5000 
    118 O         -6.0295  -19.6141  -49.5189 O.2       21 UNK        -0.5000 
    119 N         -6.9279  -19.4421  -51.6026 N.am      22 UNK        -0.5000 
    120 CA        -7.1484  -17.9847  -51.6702 C.3       22 UNK         0.1400 
    121 C         -8.1606  -17.4141  -50.6282 C.2       22 UNK         0.5000 
    122 N         -9.0038  -18.2320  -50.0101 N.am      22 UNK        -0.7600 
    123 O         -8.2131  -16.2085  -50.3997 O.2       22 UNK        -0.5000 
    124 C124       -5.8167  -17.1837  -51.7157 C.3       23 UNK        -0.0398 
    125 S125       -4.7548  -17.6864  -53.1142 S.3       23 UNK        -0.2404 
    126 C126       -3.4403  -16.4324  -53.0478 C.3       23 UNK        -0.0205 
    127 H127        1.7744  -15.4482  -46.8246 H         1 UNK         0.0600 
    128 H128        3.2692  -14.6381  -46.3356 H         1 UNK         0.0600 
    129 H129        2.2427  -15.4148  -45.1225 H         1 UNK         0.0600 
    130 H130       -0.0222  -14.1432  -47.0307 H         1 UNK         0.3000 
    131 H131       -0.8229  -12.2121  -45.1701 H         1 UNK         0.0600 
    132 H132       -2.5630  -13.3032  -46.2917 H         1 UNK         0.0800 
    133 H133       -2.6460  -11.6916  -46.9140 H         1 UNK         0.0800 
    134 H134       -1.8489  -15.3488  -47.4580 H         1 UNK         0.0800 
    135 H135       -3.4324  -15.0147  -48.1132 H         1 UNK         0.0800 
    136 H136       -3.6523  -15.0220  -50.7264 H         1 UNK         0.1150 
    137 H137       -1.3703  -18.1391  -52.5792 H         1 UNK         0.1150 
    138 H138       -0.3883  -16.8230  -48.6160 H         1 UNK         0.1150 
    139 H139        0.2210  -19.3870  -51.3271 H         1 UNK         0.0800 
    140 H140        1.3103  -18.1401  -50.7677 H         1 UNK         0.0800 
    141 H141       -1.7043  -19.4258  -48.0690 H         1 UNK         0.0800 
    142 H142       -1.6794  -20.1280  -49.6663 H         1 UNK         0.0800 
    143 H143       -0.6242  -22.2141  -48.7366 H         1 UNK         0.0600 
    144 H144       -0.3225  -20.7701  -46.3295 H         1 UNK         0.3000 
    145 H145       -0.3292  -23.5934  -44.0799 H         1 UNK         0.0600 
    146 H146        1.7810  -22.3922  -43.4223 H         1 UNK         0.0600 
    147 H147        1.9778  -23.4098  -44.8405 H         1 UNK         0.0600 
    148 H148        1.8565  -21.6725  -45.0314 H         1 UNK         0.0600 
    149 H149       -0.1852  -20.7484  -43.6811 H         1 UNK         0.3000 
    150 H150       -3.6690  -20.1788  -43.3714 H         1 UNK         0.0600 
    151 H151       -3.2214  -21.1433  -41.1488 H         1 UNK         0.0600 
    152 H152       -3.0294  -19.3979  -41.0818 H         1 UNK         0.0600 
    153 H153       -1.6100  -20.4444  -41.1178 H         1 UNK         0.0600 
    154 H154       -1.2261  -18.6835  -42.8707 H         1 UNK         0.3000 
    155 H155       -0.9847  -17.3438  -46.1789 H         1 UNK         0.0600 
    156 H156       -2.7138  -15.9111  -45.0832 H         1 UNK         0.0600 
    157 H157       -1.8741  -16.0438  -43.5422 H         1 UNK         0.0600 
    158 H158       -1.1172  -15.2025  -44.8861 H         1 UNK         0.0600 
    159 H159        0.4834  -16.8176  -43.7941 H         1 UNK         0.3000 
    160 H160        2.4217  -19.6956  -43.5892 H         1 UNK         0.0600 
    161 H161        3.6741  -18.7776  -45.5707 H         1 UNK         0.0600 
    162 H162        3.6470  -17.1814  -44.8337 H         1 UNK         0.0600 
    163 H163        4.5024  -18.5029  -44.0479 H         1 UNK         0.0600 
    164 H164        2.9418  -17.1474  -42.4770 H         1 UNK         0.3000 
    165 H165        0.3357  -16.8330  -40.2242 H         1 UNK         0.0600 
    166 H166        3.0128  -18.0458  -39.3493 H         1 UNK         0.0600 
    167 H167        1.8987  -17.1406  -38.3232 H         1 UNK         0.0600 
    168 H168        1.4252  -18.7024  -38.9697 H         1 UNK         0.0600 
    169 H169        2.9026  -15.6803  -40.0897 H         1 UNK         0.3000 
    170 H170        3.0207  -13.4388  -40.6372 H         1 UNK         0.0600 
    171 H171        4.5243  -14.8626  -42.0359 H         1 UNK         0.0600 
    172 H172        3.7353  -14.2898  -43.5003 H         1 UNK         0.0600 
    173 H173        4.6583  -13.1747  -42.4985 H         1 UNK         0.0600 
    174 H174        2.1254  -12.4822  -43.2771 H         1 UNK         0.3000 
    175 H175       -0.1485  -10.8746  -42.9498 H         1 UNK         0.0600 
    176 H176       -0.0578   -8.4627  -42.2708 H         1 UNK         0.0600 
    177 H177       -0.4467   -9.5168  -40.9218 H         1 UNK         0.0600 
    178 H178        1.1723   -8.8489  -41.0678 H         1 UNK         0.0600 
    179 H179        1.3220  -10.3122  -44.4918 H         1 UNK         0.3000 
    180 H180        4.0909   -8.5321  -44.8629 H         1 UNK         0.0600 
    181 H181        5.5643  -10.4198  -45.5923 H         1 UNK         0.0600 
    182 H182        5.5977  -10.2317  -43.8468 H         1 UNK         0.0600 
    183 H183        4.6586  -11.5337  -44.5686 H         1 UNK         0.0600 
    184 H184        2.6841  -10.9250  -45.9878 H         1 UNK         0.3000 
    185 H185        0.9121   -8.9667  -48.3155 H         1 UNK         0.0600 
    186 H186        1.8886  -10.4461  -50.0548 H         1 UNK         0.0600 
    187 H187        3.0470   -9.2099  -49.5919 H         1 UNK         0.0600 
    188 H188        3.2355  -10.8526  -48.9901 H         1 UNK         0.0600 
    189 H189        1.1867  -11.7979  -47.9843 H         1 UNK         0.3000 
    190 H190       -3.1406  -20.9942  -46.4730 H         1 UNK         0.3000 
    191 H191       -5.3909  -21.8900  -47.9170 H         1 UNK         0.0600 
    192 H192       -6.6005  -21.5836  -45.7859 H         1 UNK         0.0600 
    193 H193       -5.4942  -20.2463  -46.0609 H         1 UNK         0.0600 
    194 H194       -5.0857  -21.5077  -44.8984 H         1 UNK         0.0600 
    195 H195       -3.4385  -23.5821  -45.4351 H         1 UNK         0.3000 
    196 H196       -5.0209  -25.9644  -45.3645 H         1 UNK         0.0600 
    197 H197       -3.0606  -26.8798  -44.1148 H         1 UNK         0.0600 
    198 H198       -3.5276  -25.2971  -43.5099 H         1 UNK         0.0600 
    199 H199       -2.1116  -25.4614  -44.5449 H         1 UNK         0.0600 
    200 H200       -1.9894  -25.1339  -47.1262 H         1 UNK         0.3000 
    201 H201       -1.6526  -27.6966  -48.3530 H         1 UNK         0.0600 
    202 H202        0.2250  -26.1356  -47.9994 H         1 UNK         0.0600 
    203 H203       -0.5350  -24.9330  -49.0372 H         1 UNK         0.0600 
    204 H204        0.0606  -26.4385  -49.7217 H         1 UNK         0.0600 
    205 H205       -3.2432  -24.6981  -49.4180 H         1 UNK         0.3000 
    206 H206       -4.5282  -24.1102  -51.0758 H         1 UNK         0.0600 
    207 H207       -6.0538  -25.8514  -50.2041 H         1 UNK         0.0600 
    208 H208       -6.2220  -25.7240  -51.9449 H         1 UNK         0.0600 
    209 H209       -5.3273  -27.0716  -51.2380 H         1 UNK         0.0600 
    210 H210       -4.6321  -26.7679  -53.1565 H         1 UNK         0.3000 
    211 H211       -3.3123  -25.5072  -55.2964 H         1 UNK         0.0600 
    212 H212       -4.0376  -28.4553  -54.8815 H         1 UNK         0.0600 
    213 H213       -3.6293  -27.7160  -56.4254 H         1 UNK         0.0600 
    214 H214       -5.0825  -27.2150  -55.5772 H         1 UNK         0.0600 
    215 H215       -1.9387  -27.4933  -52.7325 H         1 UNK         0.3000 
    216 H216        0.5115  -28.1610  -54.1419 H         1 UNK         0.0600 
    217 H217        1.2614  -28.9456  -51.9165 H         1 UNK         0.0600 
    218 H218       -0.3373  -29.5702  -52.2900 H         1 UNK         0.0600 
    219 H219       -0.1537  -28.2363  -51.1561 H         1 UNK         0.0600 
    220 H220       -0.6470  -25.3212  -52.4547 H         1 UNK         0.3000 
    221 H221        2.0661  -24.1011  -52.3136 H         1 UNK         0.0600 
    222 H222       -0.6773  -23.1341  -51.3541 H         1 UNK         0.0600 
    223 H223        0.7242  -23.5795  -50.3810 H         1 UNK         0.0600 
    224 H224        0.7703  -22.1358  -51.3693 H         1 UNK         0.0600 
    225 H225       -1.1836  -23.4732  -53.6920 H         1 UNK         0.3000 
    226 H226       -0.4745  -23.1347  -56.3507 H         1 UNK         0.0600 
    227 H227        0.7186  -21.0280  -55.8741 H         1 UNK         0.0600 
    228 H228       -0.8183  -20.5993  -56.5909 H         1 UNK         0.0600 
    229 H229       -0.5936  -20.4456  -54.8529 H         1 UNK         0.0600 
    230 H230       -2.4666  -21.5850  -53.8041 H         1 UNK         0.3000 
    231 H231       -4.8477  -22.9742  -54.4414 H         1 UNK         0.0600 
    232 H232       -6.2135  -20.8887  -54.9553 H         1 UNK         0.0600 
    233 H233       -5.0784  -21.2547  -56.2425 H         1 UNK         0.0600 
    234 H234       -4.7224  -19.9649  -55.0982 H         1 UNK         0.0600 
    235 H235       -6.5059  -22.3554  -52.7860 H         1 UNK         0.3000 
    236 H236       -5.2513  -21.9066  -50.2214 H         1 UNK         0.0600 
    237 H237       -8.2007  -22.2328  -50.9902 H         1 UNK         0.0600 
    238 H238       -7.1091  -23.5205  -50.4793 H         1 UNK         0.0600 
    239 H239       -7.5643  -22.2590  -49.3495 H         1 UNK         0.0600 
    240 H240       -7.1665  -19.9545  -52.4380 H         1 UNK         0.3000 
    241 H241       -7.6441  -17.8197  -52.6274 H         1 UNK         0.0600 
    242 H242       -9.6637  -17.8566  -49.3470 H         1 UNK         0.3800 
    243 H243       -8.9809  -19.2225  -50.1903 H         1 UNK         0.3800 
    244 H244       -5.2645  -17.3117  -50.7838 H         1 UNK         0.0800 
    245 H245       -6.0129  -16.1150  -51.8155 H         1 UNK         0.0800 
    246 H246       -2.8051  -16.5428  -53.9279 H         1 UNK         0.0800 
    247 H247       -3.8820  -15.4370  -53.1155 H         1 UNK         0.0800 
@<TRIPOS>BOND
     1    1    2 1    
     2    1  127 1    
     3    1  128 1    
     4    1  129 1    
     5    2    3 2    
     6    2    4 am   BACKBONE|DICT|INTERRES
     7    4    5 1    
     8    4  130 1    
     9    5    6 1    
    10    5   65 1    
    11    5  131 1    
    12    6    7 1    
    13    6  132 1    
    14    6  133 1    
    15    7    8 1    
    16    8    9 1    
    17    8  134 1    
    18    8  135 1    
    19    9   10 ar   
    20    9   14 ar   
    21   10   11 ar   
    22   10  136 1    
    23   11   12 ar   
    24   11  126 1    
    25   12   13 ar   
    26   12  137 1    
    27   13   14 ar   
    28   13   15 1    
    29   14  138 1    
    30   15   16 1    
    31   15  139 1    
    32   15  140 1    
    33   16   17 1    
    34   17   18 1    
    35   17  141 1    
    36   17  142 1    
    37   18   19 1    
    38   18   67 1    
    39   18  143 1    
    40   19   20 am   BACKBONE|DICT|INTERRES
    41   19  144 1    
    42   20   21 2    
    43   20   22 1    
    44   22   23 1    
    45   22   24 1    
    46   22  145 1    
    47   23  146 1    
    48   23  147 1    
    49   23  148 1    
    50   24   25 am   BACKBONE|DICT|INTERRES
    51   24  149 1    
    52   25   26 2    
    53   25   27 1    
    54   27   28 1    
    55   27   29 1    
    56   27  150 1    
    57   28  151 1    
    58   28  152 1    
    59   28  153 1    
    60   29   30 am   BACKBONE|DICT|INTERRES
    61   29  154 1    
    62   30   31 2    
    63   30   32 1    
    64   32   33 1    
    65   32   34 1    
    66   32  155 1    
    67   33  156 1    
    68   33  157 1    
    69   33  158 1    
    70   34   35 am   BACKBONE|DICT|INTERRES
    71   34  159 1    
    72   35   36 2    
    73   35   37 1    
    74   37   38 1    
    75   37   39 1    
    76   37  160 1    
    77   38  161 1    
    78   38  162 1    
    79   38  163 1    
    80   39   40 am   BACKBONE|DICT|INTERRES
    81   39  164 1    
    82   40   41 2    
    83   40   42 1    
    84   42   43 1    
    85   42   44 1    
    86   42  165 1    
    87   43  166 1    
    88   43  167 1    
    89   43  168 1    
    90   44   45 am   BACKBONE|DICT|INTERRES
    91   44  169 1    
    92   45   46 2    
    93   45   47 1    
    94   47   48 1    
    95   47   49 1    
    96   47  170 1    
    97   48  171 1    
    98   48  172 1    
    99   48  173 1    
   100   49   50 am   BACKBONE|DICT|INTERRES
   101   49  174 1    
   102   50   51 2    
   103   50   52 1    
   104   52   53 1    
   105   52   54 1    
   106   52  175 1    
   107   53  176 1    
   108   53  177 1    
   109   53  178 1    
   110   54   55 am   BACKBONE|DICT|INTERRES
   111   54  179 1    
   112   55   56 2    
   113   55   57 1    
   114   57   58 1    
   115   57   59 1    
   116   57  180 1    
   117   58  181 1    
   118   58  182 1    
   119   58  183 1    
   120   59   60 am   BACKBONE|DICT|INTERRES
   121   59  184 1    
   122   60   61 2    
   123   60   62 1    
   124   62   63 1    
   125   62   64 1    
   126   62  185 1    
   127   63  186 1    
   128   63  187 1    
   129   63  188 1    
   130   64   65 am   BACKBONE|DICT|INTERRES
   131   64  189 1    
   132   65   66 2    
   133   67   68 2    
   134   67   69 am   BACKBONE|DICT|INTERRES
   135   69   70 1    
   136   69  190 1    
   137   70   71 1    
   138   70   72 1    
   139   70  191 1    
   140   71  192 1    
   141   71  193 1    
   142   71  194 1    
   143   72   73 2    
   144   72   74 am   BACKBONE|DICT|INTERRES
   145   74   75 1    
   146   74  195 1    
   147   75   76 1    
   148   75   77 1    
   149   75  196 1    
   150   76  197 1    
   151   76  198 1    
   152   76  199 1    
   153   77   78 2    
   154   77   79 am   BACKBONE|DICT|INTERRES
   155   79   80 1    
   156   79  200 1    
   157   80   81 1    
   158   80   82 1    
   159   80  201 1    
   160   81  202 1    
   161   81  203 1    
   162   81  204 1    
   163   82   83 2    
   164   82   84 am   BACKBONE|DICT|INTERRES
   165   84   85 1    
   166   84  205 1    
   167   85   86 1    
   168   85   87 1    
   169   85  206 1    
   170   86  207 1    
   171   86  208 1    
   172   86  209 1    
   173   87   88 2    
   174   87   89 am   BACKBONE|DICT|INTERRES
   175   89   90 1    
   176   89  210 1    
   177   90   91 1    
   178   90   92 1    
   179   90  211 1    
   180   91  212 1    
   181   91  213 1    
   182   91  214 1    
   183   92   93 2    
   184   92   94 am   BACKBONE|DICT|INTERRES
   185   94   95 1    
   186   94  215 1    
   187   95   96 1    
   188   95   97 1    
   189   95  216 1    
   190   96  217 1    
   191   96  218 1    
   192   96  219 1    
   193   97   98 2    
   194   97   99 am   BACKBONE|DICT|INTERRES
   195   99  100 1    
   196   99  220 1    
   197  100  101 1    
   198  100  102 1    
   199  100  221 1    
   200  101  222 1    
   201  101  223 1    
   202  101  224 1    
   203  102  103 2    
   204  102  104 am   BACKBONE|DICT|INTERRES
   205  104  105 1    
   206  104  225 1    
   207  105  106 1    
   208  105  107 1    
   209  105  226 1    
   210  106  227 1    
   211  106  228 1    
   212  106  229 1    
   213  107  108 2    
   214  107  109 am   BACKBONE|DICT|INTERRES
   215  109  110 1    
   216  109  230 1    
   217  110  111 1    
   218  110  112 1    
   219  110  231 1    
   220  111  232 1    
   221  111  233 1    
   222  111  234 1    
   223  112  113 2    
   224  112  114 am   BACKBONE|DICT|INTERRES
   225  114  115 1    
   226  114  235 1    
   227  115  116 1    
   228  115  117 1    
   229  115  236 1    
   230  116  237 1    
   231  116  238 1    
   232  116  239 1    
   233  117  118 2    
   234  117  119 am   BACKBONE|DICT|INTERRES
   235  119  120 1    
   236  119  240 1    
   237  120  121 1    
   238  120  124 1    
   239  120  241 1    
   240  121  122 am   BACKBONE|DICT|INTERRES
   241  121  123 2    
   242  122  242 1    
   243  122  243 1    
   244  124  125 1    
   245  124  244 1    
   246  124  245 1    
   247  125  126 1    
   248  126  246 1    
   249  126  247 1    
@<TRIPOS>SUBSTRUCTURE
     1 UNK         1 GROUP             0       ****    0 ROOT    
