@<TRIPOS>MOLECULE
3R540
247   249    1
SMALL
USER_CHARGES


@<TRIPOS>ATOM
      1 CA         -5.2916  -14.2014  -51.2760 C.3       0 UNK        -0.1800 
      2 C          -3.8239  -13.9834  -50.9380 C.2       0 UNK         0.5000 
      3 O          -3.2037  -13.0751  -51.4918 O.2       0 UNK        -0.5000 
      4 N          -3.2672  -14.8018  -50.0350 N.am      1 UNK        -0.5000 
      5 CA         -1.9054  -14.6574  -49.5075 C.3       1 UNK         0.1400 
      6 C6         -1.4876  -15.8440  -48.6076 C.3       23 UNK        -0.0398 
      7 S7         -1.1535  -17.3781  -49.5282 S.3       23 UNK        -0.2404 
      8 C8          0.6142  -17.1617  -49.9297 C.3       23 UNK        -0.0205 
      9 C9          1.2547  -18.4852  -50.3179 C.ar      23 UNK        -0.0193 
     10 C10         0.9645  -19.0717  -51.5523 C.ar      23 UNK        -0.1150 
     11 C11         1.4461  -20.3451  -51.8629 C.ar      23 UNK        -0.0193 
     12 C12         2.3063  -20.9911  -50.9717 C.ar      23 UNK        -0.1150 
     13 C13         2.6418  -20.3957  -49.7532 C.ar      23 UNK        -0.0193 
     14 C14         2.1039  -19.1474  -49.4262 C.ar      23 UNK        -0.1150 
     15 C15         3.5586  -21.1215  -48.7810 C.3       23 UNK        -0.0205 
     16 S16         2.7241  -22.5306  -47.9870 S.3       23 UNK        -0.2404 
     17 C17         1.5694  -21.6640  -46.8737 C.3       23 UNK        -0.0398 
     18 CA          0.6832  -22.6388  -46.0557 C.3       11 UNK         0.1400 
     19 N           0.4133  -22.0943  -44.7237 N.am      11 UNK        -0.5000 
     20 C           0.6424  -22.7187  -43.5609 C.2       10 UNK         0.5000 
     21 O           1.1078  -23.8556  -43.4770 O.2       10 UNK        -0.5000 
     22 CA          0.2903  -21.9568  -42.2649 C.3       10 UNK         0.1400 
     23 CB          1.5629  -21.4060  -41.6081 C.3       10 UNK        -0.1800 
     24 N          -0.6530  -20.8542  -42.4608 N.am      10 UNK        -0.5000 
     25 C          -1.9262  -21.0000  -42.8444 C.2       9 UNK         0.5000 
     26 O          -2.4527  -22.0954  -43.0338 O.2       9 UNK        -0.5000 
     27 CA         -2.7310  -19.7150  -43.1132 C.3       9 UNK         0.1400 
     28 CB         -3.4272  -19.2404  -41.8300 C.3       9 UNK        -0.1800 
     29 N          -1.9507  -18.6070  -43.6745 N.am      9 UNK        -0.5000 
     30 C          -1.2389  -18.6354  -44.8104 C.2       8 UNK         0.5000 
     31 O          -1.0716  -19.6511  -45.4857 O.2       8 UNK        -0.5000 
     32 CA         -0.6409  -17.2960  -45.2797 C.3       8 UNK         0.1400 
     33 CB         -1.5825  -16.1012  -45.0312 C.3       8 UNK        -0.1800 
     34 N           0.6461  -17.0130  -44.6530 N.am      8 UNK        -0.5000 
     35 C           1.8144  -17.5617  -45.0120 C.2       7 UNK         0.5000 
     36 O           1.9334  -18.4211  -45.8832 O.2       7 UNK        -0.5000 
     37 CA          3.0672  -17.0505  -44.2832 C.3       7 UNK         0.1400 
     38 CB          3.4643  -15.6595  -44.8046 C.3       7 UNK        -0.1800 
     39 N           2.8312  -16.9780  -42.8432 N.am      7 UNK        -0.5000 
     40 C           3.2543  -17.8875  -41.9550 C.2       6 UNK         0.5000 
     41 O           3.9878  -18.8332  -42.2441 O.2       6 UNK        -0.5000 
     42 CA          2.7861  -17.7263  -40.4925 C.3       6 UNK         0.1400 
     43 CB          3.8944  -17.0855  -39.6431 C.3       6 UNK        -0.1800 
     44 N           1.5638  -16.9345  -40.3436 N.am      6 UNK        -0.5000 
     45 C           0.3529  -17.2872  -40.7968 C.2       5 UNK         0.5000 
     46 O           0.1143  -18.3626  -41.3422 O.2       5 UNK        -0.5000 
     47 CA         -0.7705  -16.2380  -40.6734 C.3       5 UNK         0.1400 
     48 CB         -1.5785  -16.4690  -39.3880 C.3       5 UNK        -0.1800 
     49 N          -0.2990  -14.8487  -40.6988 N.am      5 UNK        -0.5000 
     50 C           0.4224  -14.2843  -41.6772 C.2       4 UNK         0.5000 
     51 O           0.7756  -14.8845  -42.6958 O.2       4 UNK        -0.5000 
     52 CA          0.8907  -12.8422  -41.4117 C.3       4 UNK         0.1400 
     53 CB          1.9791  -12.8305  -40.3244 C.3       4 UNK        -0.1800 
     54 N           1.4322  -12.1857  -42.5999 N.am      4 UNK        -0.5000 
     55 C           0.7203  -11.7489  -43.6452 C.2       3 UNK         0.5000 
     56 O          -0.5062  -11.8533  -43.7287 O.2       3 UNK        -0.5000 
     57 CA          1.5115  -10.9883  -44.7327 C.3       3 UNK         0.1400 
     58 CB          2.9582  -11.5004  -44.9260 C.3       3 UNK        -0.1800 
     59 N           0.8067  -10.9098  -46.0160 N.am      3 UNK        -0.5000 
     60 C           0.5321  -11.9164  -46.8560 C.2       2 UNK         0.5000 
     61 O           0.8442  -13.0941  -46.6583 O.2       2 UNK        -0.5000 
     62 CA         -0.1683  -11.5072  -48.1673 C.3       2 UNK         0.1400 
     63 CB          0.7787  -10.6853  -49.0593 C.3       2 UNK        -0.1800 
     64 N          -0.6018  -12.6787  -48.9237 N.am      2 UNK        -0.5000 
     65 C          -1.7448  -13.3408  -48.7190 C.2       1 UNK         0.5000 
     66 O          -2.6232  -12.9782  -47.9321 O.2       1 UNK        -0.5000 
     67 C          -0.6266  -22.9930  -46.7969 C.2       11 UNK         0.5000 
     68 O          -0.5780  -23.3334  -47.9796 O.2       11 UNK        -0.5000 
     69 N          -1.7797  -22.9279  -46.1094 N.am      12 UNK        -0.5000 
     70 CA         -3.1254  -23.0920  -46.6720 C.3       12 UNK         0.1400 
     71 CB         -4.1681  -22.9053  -45.5623 C.3       12 UNK        -0.1800 
     72 C          -3.3813  -24.4130  -47.4220 C.2       12 UNK         0.5000 
     73 O          -4.2185  -24.4322  -48.3249 O.2       12 UNK        -0.5000 
     74 N          -2.6531  -25.4769  -47.0603 N.am      13 UNK        -0.5000 
     75 CA         -2.6979  -26.7772  -47.7308 C.3       13 UNK         0.1400 
     76 CB         -1.9637  -27.8129  -46.8661 C.3       13 UNK        -0.1800 
     77 C          -2.1069  -26.7468  -49.1550 C.2       13 UNK         0.5000 
     78 O          -2.5841  -27.4811  -50.0206 O.2       13 UNK        -0.5000 
     79 N          -1.0918  -25.9001  -49.3736 N.am      14 UNK        -0.5000 
     80 CA         -0.4446  -25.6964  -50.6703 C.3       14 UNK         0.1400 
     81 CB          1.0534  -25.4351  -50.4488 C.3       14 UNK        -0.1800 
     82 C          -1.0759  -24.5220  -51.4344 C.2       14 UNK         0.5000 
     83 O          -1.1695  -24.5766  -52.6609 O.2       14 UNK        -0.5000 
     84 N          -1.4842  -23.4857  -50.6900 N.am      15 UNK        -0.5000 
     85 CA         -2.0148  -22.2210  -51.1949 C.3       15 UNK         0.1400 
     86 CB         -1.6535  -21.1199  -50.1868 C.3       15 UNK        -0.1800 
     87 C          -3.5268  -22.2258  -51.4800 C.2       15 UNK         0.5000 
     88 O          -4.0545  -21.1797  -51.8633 O.2       15 UNK        -0.5000 
     89 N          -4.1894  -23.3723  -51.2707 N.am      16 UNK        -0.5000 
     90 CA         -5.6130  -23.6369  -51.4986 C.3       16 UNK         0.1400 
     91 CB         -5.9501  -23.5390  -52.9999 C.3       16 UNK        -0.1800 
     92 C          -6.5095  -22.7388  -50.6262 C.2       16 UNK         0.5000 
     93 O          -7.1950  -21.8534  -51.1375 O.2       16 UNK        -0.5000 
     94 N          -6.4428  -22.9639  -49.3072 N.am      17 UNK        -0.5000 
     95 CA         -7.1416  -22.2184  -48.2510 C.3       17 UNK         0.1400 
     96 CB         -8.6746  -22.3138  -48.4064 C.3       17 UNK        -0.1800 
     97 C          -6.6324  -20.7673  -48.1124 C.2       17 UNK         0.5000 
     98 O          -7.3958  -19.8763  -47.7384 O.2       17 UNK        -0.5000 
     99 N          -5.3411  -20.5707  -48.4224 N.am      18 UNK        -0.5000 
    100 CA        -4.6052  -19.3004  -48.4222 C.3       18 UNK         0.1400 
    101 CB        -4.5194  -18.6976  -47.0047 C.3       18 UNK        -0.1800 
    102 C         -5.1018  -18.2983  -49.4868 C.2       18 UNK         0.5000 
    103 O         -4.9055  -17.0925  -49.3306 O.2       18 UNK        -0.5000 
    104 N         -5.6924  -18.8168  -50.5748 N.am      19 UNK        -0.5000 
    105 CA        -6.1100  -18.0571  -51.7578 C.3       19 UNK         0.1400 
    106 CB        -7.1331  -18.8916  -52.5427 C.3       19 UNK        -0.1800 
    107 C         -4.9302  -17.6663  -52.6726 C.2       19 UNK         0.5000 
    108 O         -5.1162  -16.8726  -53.5946 O.2       19 UNK        -0.5000 
    109 N         -3.7536  -18.2466  -52.4051 N.am      20 UNK        -0.5000 
    110 CA        -2.4789  -18.0954  -53.1061 C.3       20 UNK         0.1400 
    111 CB        -2.0037  -16.6287  -53.1467 C.3       20 UNK        -0.1800 
    112 C         -2.4419  -18.7821  -54.4830 C.2       20 UNK         0.5000 
    113 O         -1.5999  -18.4442  -55.3163 O.2       20 UNK        -0.5000 
    114 N         -3.3214  -19.7689  -54.6861 N.am      21 UNK        -0.5000 
    115 CA        -3.3354  -20.6359  -55.8574 C.3       21 UNK         0.1400 
    116 CB        -4.7906  -21.0163  -56.1803 C.3       21 UNK        -0.1800 
    117 C         -2.4518  -21.8555  -55.5547 C.2       21 UNK         0.5000 
    118 O         -2.9616  -22.8768  -55.0936 O.2       21 UNK        -0.5000 
    119 N         -1.1359  -21.6929  -55.7510 N.am      22 UNK        -0.5000 
    120 CA        -0.1088  -22.7138  -55.4946 C.3       22 UNK         0.1400 
    121 C         -0.3297  -24.0124  -56.3188 C.2       22 UNK         0.5000 
    122 N         -0.6210  -25.1257  -55.6589 N.am      22 UNK        -0.7600 
    123 O         -0.2087  -24.0174  -57.5416 O.2       22 UNK        -0.5000 
    124 C124        1.3315  -22.1583  -55.7061 C.3       23 UNK        -0.0398 
    125 S125        1.9104  -20.8231  -54.5839 S.3       23 UNK        -0.2404 
    126 C126        0.9278  -21.0856  -53.0821 C.3       23 UNK        -0.0205 
    127 H127       -5.8518  -13.2801  -51.1169 H         1 UNK         0.0600 
    128 H128       -5.3983  -14.4872  -52.3219 H         1 UNK         0.0600 
    129 H129       -5.7411  -14.9769  -50.6578 H         1 UNK         0.0600 
    130 H130       -3.8237  -15.5559  -49.6393 H         1 UNK         0.3000 
    131 H131       -1.2283  -14.6202  -50.3636 H         1 UNK         0.0600 
    132 H132       -0.5965  -15.6025  -48.0244 H         1 UNK         0.0800 
    133 H133       -2.2725  -16.0510  -47.8794 H         1 UNK         0.0800 
    134 H134        0.7162  -16.4476  -50.7480 H         1 UNK         0.0800 
    135 H135        1.1395  -16.7342  -49.0743 H         1 UNK         0.0800 
    136 H136        0.3195  -18.5586  -52.2460 H         1 UNK         0.1150 
    137 H137        2.6797  -21.9790  -51.2029 H         1 UNK         0.1150 
    138 H138        2.3315  -18.7005  -48.4689 H         1 UNK         0.1150 
    139 H139        4.4335  -21.4874  -49.3201 H         1 UNK         0.0800 
    140 H140        3.9329  -20.4399  -48.0154 H         1 UNK         0.0800 
    141 H141        2.1867  -21.0665  -46.2015 H         1 UNK         0.0800 
    142 H142        0.9672  -20.9462  -47.4347 H         1 UNK         0.0800 
    143 H143        1.2228  -23.5815  -45.9477 H         1 UNK         0.0600 
    144 H144       -0.0036  -21.1677  -44.7158 H         1 UNK         0.3000 
    145 H145       -0.1672  -22.6722  -41.5787 H         1 UNK         0.0600 
    146 H146        1.3392  -20.9146  -40.6611 H         1 UNK         0.0600 
    147 H147        2.2774  -22.2038  -41.4012 H         1 UNK         0.0600 
    148 H148        2.0561  -20.6821  -42.2561 H         1 UNK         0.0600 
    149 H149       -0.3121  -19.9157  -42.2615 H         1 UNK         0.3000 
    150 H150       -3.5028  -19.9630  -43.8436 H         1 UNK         0.0600 
    151 H151       -4.0631  -20.0252  -41.4181 H         1 UNK         0.0600 
    152 H152       -4.0622  -18.3745  -42.0184 H         1 UNK         0.0600 
    153 H153       -2.7039  -18.9689  -41.0612 H         1 UNK         0.0600 
    154 H154       -2.0100  -17.7324  -43.1785 H         1 UNK         0.3000 
    155 H155       -0.4889  -17.3825  -46.3570 H         1 UNK         0.0600 
    156 H156       -1.6828  -15.8672  -43.9713 H         1 UNK         0.0600 
    157 H157       -2.5814  -16.2940  -45.4241 H         1 UNK         0.0600 
    158 H158       -1.2081  -15.2031  -45.5240 H         1 UNK         0.0600 
    159 H159        0.6526  -16.2846  -43.9444 H         1 UNK         0.3000 
    160 H160        3.8878  -17.7365  -44.5032 H         1 UNK         0.0600 
    161 H161        4.3690  -15.2987  -44.3152 H         1 UNK         0.0600 
    162 H162        2.6773  -14.9235  -44.6371 H         1 UNK         0.0600 
    163 H163        3.6617  -15.6871  -45.8769 H         1 UNK         0.0600 
    164 H164        2.2083  -16.2406  -42.5330 H         1 UNK         0.3000 
    165 H165        2.5884  -18.7263  -40.1012 H         1 UNK         0.0600 
    166 H166        3.6096  -17.0391  -38.5918 H         1 UNK         0.0600 
    167 H167        4.8171  -17.6643  -39.7026 H         1 UNK         0.0600 
    168 H168        4.1206  -16.0717  -39.9762 H         1 UNK         0.0600 
    169 H169        1.6629  -16.0314  -39.9053 H         1 UNK         0.3000 
    170 H170       -1.4378  -16.3746  -41.5255 H         1 UNK         0.0600 
    171 H171       -1.9407  -17.4957  -39.3275 H         1 UNK         0.0600 
    172 H172       -0.9774  -16.2832  -38.4970 H         1 UNK         0.0600 
    173 H173       -2.4505  -15.8161  -39.3475 H         1 UNK         0.0600 
    174 H174       -0.5341  -14.2900  -39.8908 H         1 UNK         0.3000 
    175 H175        0.0333  -12.2644  -41.0600 H         1 UNK         0.0600 
    176 H176        2.8527  -13.4120  -40.6231 H         1 UNK         0.0600 
    177 H177        2.3115  -11.8143  -40.1107 H         1 UNK         0.0600 
    178 H178        1.6119  -13.2485  -39.3864 H         1 UNK         0.0600 
    179 H179        2.4348  -12.0765  -42.6268 H         1 UNK         0.3000 
    180 H180        1.5802   -9.9592  -44.3775 H         1 UNK         0.0600 
    181 H181        2.9862  -12.5667  -45.1502 H         1 UNK         0.0600 
    182 H182        3.5649  -11.3343  -44.0356 H         1 UNK         0.0600 
    183 H183        3.4525  -10.9774  -45.7448 H         1 UNK         0.0600 
    184 H184        0.4806   -9.9863  -46.2636 H         1 UNK         0.3000 
    185 H185       -1.0366  -10.8931  -47.9186 H         1 UNK         0.0600 
    186 H186        1.0854   -9.7610  -48.5685 H         1 UNK         0.0600 
    187 H187        1.6844  -11.2415  -49.3049 H         1 UNK         0.0600 
    188 H188        0.2940  -10.4050  -49.9948 H         1 UNK         0.0600 
    189 H189        0.0823  -13.0671  -49.5560 H         1 UNK         0.3000 
    190 H190       -1.7373  -22.6642  -45.1332 H         1 UNK         0.3000 
    191 H191       -3.2636  -22.2902  -47.3974 H         1 UNK         0.0600 
    192 H192       -3.9868  -23.5809  -44.7256 H         1 UNK         0.0600 
    193 H193       -5.1765  -23.1045  -45.9206 H         1 UNK         0.0600 
    194 H194       -4.1588  -21.8842  -45.1831 H         1 UNK         0.0600 
    195 H195       -1.9930  -25.3727  -46.3040 H         1 UNK         0.3000 
    196 H196       -3.7437  -27.0810  -47.8131 H         1 UNK         0.0600 
    197 H197       -1.9984  -28.8011  -47.3266 H         1 UNK         0.0600 
    198 H198       -2.4209  -27.8991  -45.8802 H         1 UNK         0.0600 
    199 H199       -0.9136  -27.5515  -46.7285 H         1 UNK         0.0600 
    200 H200       -0.7972  -25.2846  -48.6244 H         1 UNK         0.3000 
    201 H201       -0.5446  -26.5935  -51.2850 H         1 UNK         0.0600 
    202 H202        1.5290  -26.2743  -49.9413 H         1 UNK         0.0600 
    203 H203        1.2226  -24.5409  -49.8474 H         1 UNK         0.0600 
    204 H204        1.5702  -25.2931  -51.3989 H         1 UNK         0.0600 
    205 H205       -1.2931  -23.5145  -49.6917 H         1 UNK         0.3000 
    206 H206       -1.5345  -21.9979  -52.1452 H         1 UNK         0.0600 
    207 H207       -1.9453  -20.1349  -50.5491 H         1 UNK         0.0600 
    208 H208       -0.5805  -21.0908  -49.9996 H         1 UNK         0.0600 
    209 H209       -2.1407  -21.2822  -49.2270 H         1 UNK         0.0600 
    210 H210       -3.6575  -24.1464  -50.8988 H         1 UNK         0.3000 
    211 H211       -5.7928  -24.6670  -51.1871 H         1 UNK         0.0600 
    212 H212       -5.8427  -22.5203  -53.3701 H         1 UNK         0.0600 
    213 H213       -6.9789  -23.8470  -53.1887 H         1 UNK         0.0600 
    214 H214       -5.2999  -24.1806  -53.5948 H         1 UNK         0.0600 
    215 H215       -5.7877  -23.6732  -48.9822 H         1 UNK         0.3000 
    216 H216       -6.8915  -22.7175  -47.3162 H         1 UNK         0.0600 
    217 H217       -9.1799  -21.9157  -47.5258 H         1 UNK         0.0600 
    218 H218       -8.9960  -23.3488  -48.5228 H         1 UNK         0.0600 
    219 H219       -9.0349  -21.7504  -49.2673 H         1 UNK         0.0600 
    220 H220       -4.8317  -21.3729  -48.7609 H         1 UNK         0.3000 
    221 H221       -3.5852  -19.5428  -48.7162 H         1 UNK         0.0600 
    222 H222       -5.4895  -18.3504  -46.6492 H         1 UNK         0.0600 
    223 H223       -4.1379  -19.4268  -46.2901 H         1 UNK         0.0600 
    224 H224       -3.8410  -17.8446  -46.9852 H         1 UNK         0.0600 
    225 H225       -5.8119  -19.8203  -50.6330 H         1 UNK         0.3000 
    226 H226       -6.5967  -17.1373  -51.4290 H         1 UNK         0.0600 
    227 H227       -7.9850  -19.1623  -51.9185 H         1 UNK         0.0600 
    228 H228       -7.5199  -18.3363  -53.3981 H         1 UNK         0.0600 
    229 H229       -6.6899  -19.8133  -52.9229 H         1 UNK         0.0600 
    230 H230       -3.7633  -18.9521  -51.6805 H         1 UNK         0.3000 
    231 H231       -1.7785  -18.6530  -52.4907 H         1 UNK         0.0600 
    232 H232       -2.0257  -16.1814  -52.1556 H         1 UNK         0.0600 
    233 H233       -2.6208  -16.0174  -53.8050 H         1 UNK         0.0600 
    234 H234       -0.9766  -16.5598  -53.5062 H         1 UNK         0.0600 
    235 H235       -3.9244  -20.0385  -53.9190 H         1 UNK         0.3000 
    236 H236       -2.9277  -20.1165  -56.7275 H         1 UNK         0.0600 
    237 H237       -4.8353  -21.6961  -57.0319 H         1 UNK         0.0600 
    238 H238       -5.2798  -21.5082  -55.3408 H         1 UNK         0.0600 
    239 H239       -5.3780  -20.1342  -56.4356 H         1 UNK         0.0600 
    240 H240       -0.8034  -20.8048  -56.1002 H         1 UNK         0.3000 
    241 H241       -0.2200  -23.0017  -54.4532 H         1 UNK         0.0600 
    242 H242       -0.7636  -25.9842  -56.1669 H         1 UNK         0.3800 
    243 H243       -0.7923  -25.0965  -54.6589 H         1 UNK         0.3800 
    244 H244        2.0529  -22.9708  -55.6008 H         1 UNK         0.0800 
    245 H245        1.4436  -21.8020  -56.7315 H         1 UNK         0.0800 
    246 H246        0.9043  -22.1483  -52.8390 H         1 UNK         0.0800 
    247 H247       -0.0958  -20.7744  -53.2878 H         1 UNK         0.0800 
@<TRIPOS>BOND
     1    1    2 1    
     2    1  127 1    
     3    1  128 1    
     4    1  129 1    
     5    2    3 2    
     6    2    4 am   BACKBONE|DICT|INTERRES
     7    4    5 1    
     8    4  130 1    
     9    5    6 1    
    10    5   65 1    
    11    5  131 1    
    12    6    7 1    
    13    6  132 1    
    14    6  133 1    
    15    7    8 1    
    16    8    9 1    
    17    8  134 1    
    18    8  135 1    
    19    9   10 ar   
    20    9   14 ar   
    21   10   11 ar   
    22   10  136 1    
    23   11   12 ar   
    24   11  126 1    
    25   12   13 ar   
    26   12  137 1    
    27   13   14 ar   
    28   13   15 1    
    29   14  138 1    
    30   15   16 1    
    31   15  139 1    
    32   15  140 1    
    33   16   17 1    
    34   17   18 1    
    35   17  141 1    
    36   17  142 1    
    37   18   19 1    
    38   18   67 1    
    39   18  143 1    
    40   19   20 am   BACKBONE|DICT|INTERRES
    41   19  144 1    
    42   20   21 2    
    43   20   22 1    
    44   22   23 1    
    45   22   24 1    
    46   22  145 1    
    47   23  146 1    
    48   23  147 1    
    49   23  148 1    
    50   24   25 am   BACKBONE|DICT|INTERRES
    51   24  149 1    
    52   25   26 2    
    53   25   27 1    
    54   27   28 1    
    55   27   29 1    
    56   27  150 1    
    57   28  151 1    
    58   28  152 1    
    59   28  153 1    
    60   29   30 am   BACKBONE|DICT|INTERRES
    61   29  154 1    
    62   30   31 2    
    63   30   32 1    
    64   32   33 1    
    65   32   34 1    
    66   32  155 1    
    67   33  156 1    
    68   33  157 1    
    69   33  158 1    
    70   34   35 am   BACKBONE|DICT|INTERRES
    71   34  159 1    
    72   35   36 2    
    73   35   37 1    
    74   37   38 1    
    75   37   39 1    
    76   37  160 1    
    77   38  161 1    
    78   38  162 1    
    79   38  163 1    
    80   39   40 am   BACKBONE|DICT|INTERRES
    81   39  164 1    
    82   40   41 2    
    83   40   42 1    
    84   42   43 1    
    85   42   44 1    
    86   42  165 1    
    87   43  166 1    
    88   43  167 1    
    89   43  168 1    
    90   44   45 am   BACKBONE|DICT|INTERRES
    91   44  169 1    
    92   45   46 2    
    93   45   47 1    
    94   47   48 1    
    95   47   49 1    
    96   47  170 1    
    97   48  171 1    
    98   48  172 1    
    99   48  173 1    
   100   49   50 am   BACKBONE|DICT|INTERRES
   101   49  174 1    
   102   50   51 2    
   103   50   52 1    
   104   52   53 1    
   105   52   54 1    
   106   52  175 1    
   107   53  176 1    
   108   53  177 1    
   109   53  178 1    
   110   54   55 am   BACKBONE|DICT|INTERRES
   111   54  179 1    
   112   55   56 2    
   113   55   57 1    
   114   57   58 1    
   115   57   59 1    
   116   57  180 1    
   117   58  181 1    
   118   58  182 1    
   119   58  183 1    
   120   59   60 am   BACKBONE|DICT|INTERRES
   121   59  184 1    
   122   60   61 2    
   123   60   62 1    
   124   62   63 1    
   125   62   64 1    
   126   62  185 1    
   127   63  186 1    
   128   63  187 1    
   129   63  188 1    
   130   64   65 am   BACKBONE|DICT|INTERRES
   131   64  189 1    
   132   65   66 2    
   133   67   68 2    
   134   67   69 am   BACKBONE|DICT|INTERRES
   135   69   70 1    
   136   69  190 1    
   137   70   71 1    
   138   70   72 1    
   139   70  191 1    
   140   71  192 1    
   141   71  193 1    
   142   71  194 1    
   143   72   73 2    
   144   72   74 am   BACKBONE|DICT|INTERRES
   145   74   75 1    
   146   74  195 1    
   147   75   76 1    
   148   75   77 1    
   149   75  196 1    
   150   76  197 1    
   151   76  198 1    
   152   76  199 1    
   153   77   78 2    
   154   77   79 am   BACKBONE|DICT|INTERRES
   155   79   80 1    
   156   79  200 1    
   157   80   81 1    
   158   80   82 1    
   159   80  201 1    
   160   81  202 1    
   161   81  203 1    
   162   81  204 1    
   163   82   83 2    
   164   82   84 am   BACKBONE|DICT|INTERRES
   165   84   85 1    
   166   84  205 1    
   167   85   86 1    
   168   85   87 1    
   169   85  206 1    
   170   86  207 1    
   171   86  208 1    
   172   86  209 1    
   173   87   88 2    
   174   87   89 am   BACKBONE|DICT|INTERRES
   175   89   90 1    
   176   89  210 1    
   177   90   91 1    
   178   90   92 1    
   179   90  211 1    
   180   91  212 1    
   181   91  213 1    
   182   91  214 1    
   183   92   93 2    
   184   92   94 am   BACKBONE|DICT|INTERRES
   185   94   95 1    
   186   94  215 1    
   187   95   96 1    
   188   95   97 1    
   189   95  216 1    
   190   96  217 1    
   191   96  218 1    
   192   96  219 1    
   193   97   98 2    
   194   97   99 am   BACKBONE|DICT|INTERRES
   195   99  100 1    
   196   99  220 1    
   197  100  101 1    
   198  100  102 1    
   199  100  221 1    
   200  101  222 1    
   201  101  223 1    
   202  101  224 1    
   203  102  103 2    
   204  102  104 am   BACKBONE|DICT|INTERRES
   205  104  105 1    
   206  104  225 1    
   207  105  106 1    
   208  105  107 1    
   209  105  226 1    
   210  106  227 1    
   211  106  228 1    
   212  106  229 1    
   213  107  108 2    
   214  107  109 am   BACKBONE|DICT|INTERRES
   215  109  110 1    
   216  109  230 1    
   217  110  111 1    
   218  110  112 1    
   219  110  231 1    
   220  111  232 1    
   221  111  233 1    
   222  111  234 1    
   223  112  113 2    
   224  112  114 am   BACKBONE|DICT|INTERRES
   225  114  115 1    
   226  114  235 1    
   227  115  116 1    
   228  115  117 1    
   229  115  236 1    
   230  116  237 1    
   231  116  238 1    
   232  116  239 1    
   233  117  118 2    
   234  117  119 am   BACKBONE|DICT|INTERRES
   235  119  120 1    
   236  119  240 1    
   237  120  121 1    
   238  120  124 1    
   239  120  241 1    
   240  121  122 am   BACKBONE|DICT|INTERRES
   241  121  123 2    
   242  122  242 1    
   243  122  243 1    
   244  124  125 1    
   245  124  244 1    
   246  124  245 1    
   247  125  126 1    
   248  126  246 1    
   249  126  247 1    
@<TRIPOS>SUBSTRUCTURE
     1 UNK         1 GROUP             0       ****    0 ROOT    
