@<TRIPOS>MOLECULE
3R540
247   249    1
SMALL
USER_CHARGES


@<TRIPOS>ATOM
      1 CA         -3.5530  -12.3697  -51.3821 C.3       0 UNK        -0.1800 
      2 C          -4.8480  -13.0691  -50.9701 C.2       0 UNK         0.5000 
      3 O          -5.9165  -12.6611  -51.4206 O.2       0 UNK        -0.5000 
      4 N          -4.8207  -14.1209  -50.1384 N.am      1 UNK        -0.5000 
      5 CA         -3.6621  -14.6831  -49.4366 C.3       1 UNK         0.1400 
      6 C6         -4.0311  -16.0350  -48.7783 C.3       23 UNK        -0.0398 
      7 S7         -2.5665  -16.9803  -48.2579 S.3       23 UNK        -0.2404 
      8 C8         -2.1162  -17.7938  -49.8213 C.3       23 UNK        -0.0205 
      9 C9         -0.6730  -18.2718  -49.8289 C.ar      23 UNK        -0.0193 
     10 C10         0.3704  -17.3613  -49.6482 C.ar      23 UNK        -0.1150 
     11 C11         1.7033  -17.7714  -49.7322 C.ar      23 UNK        -0.0193 
     12 C12         1.9870  -19.1131  -50.0074 C.ar      23 UNK        -0.1150 
     13 C13         0.9503  -20.0393  -50.1812 C.ar      23 UNK        -0.0193 
     14 C14        -0.3762  -19.6117  -50.0826 C.ar      23 UNK        -0.1150 
     15 C15         1.2437  -21.5042  -50.4842 C.3       23 UNK        -0.0205 
     16 S16         2.3412  -22.3089  -49.2681 S.3       23 UNK        -0.2404 
     17 C17         1.6444  -21.7800  -47.6660 C.3       23 UNK        -0.0398 
     18 CA          0.6822  -22.7914  -47.0059 C.3       11 UNK         0.1400 
     19 N           0.4998  -22.4723  -45.5887 N.am      11 UNK        -0.5000 
     20 C          -0.1201  -23.2474  -44.6907 C.2       10 UNK         0.5000 
     21 O          -0.5781  -24.3604  -44.9497 O.2       10 UNK        -0.5000 
     22 CA         -0.2868  -22.6600  -43.2756 C.3       10 UNK         0.1400 
     23 CB          1.0134  -22.7977  -42.4701 C.3       10 UNK        -0.1800 
     24 N          -0.7056  -21.2561  -43.2932 N.am      10 UNK        -0.5000 
     25 C          -1.8856  -20.8282  -43.7654 C.2       9 UNK         0.5000 
     26 O          -2.7638  -21.5813  -44.1857 O.2       9 UNK        -0.5000 
     27 CA         -2.1056  -19.3040  -43.8253 C.3       9 UNK         0.1400 
     28 CB         -2.5104  -18.7499  -42.4515 C.3       9 UNK        -0.1800 
     29 N          -0.9371  -18.5765  -44.3215 N.am      9 UNK        -0.5000 
     30 C          -0.3898  -18.7517  -45.5328 C.2       8 UNK         0.5000 
     31 O          -0.8217  -19.5359  -46.3723 O.2       8 UNK        -0.5000 
     32 CA          0.9029  -17.9766  -45.8231 C.3       8 UNK         0.1400 
     33 CB          0.5900  -16.5109  -46.1630 C.3       8 UNK        -0.1800 
     34 N           1.8371  -18.0655  -44.6974 N.am      8 UNK        -0.5000 
     35 C           2.4249  -19.2053  -44.2993 C.2       7 UNK         0.5000 
     36 O           2.2968  -20.2777  -44.8862 O.2       7 UNK        -0.5000 
     37 CA          3.2397  -19.1664  -42.9953 C.3       7 UNK         0.1400 
     38 CB          4.7190  -18.8604  -43.2655 C.3       7 UNK        -0.1800 
     39 N           2.6947  -18.2050  -42.0392 N.am      7 UNK        -0.5000 
     40 C           1.5692  -18.4155  -41.3416 C.2       6 UNK         0.5000 
     41 O           0.9156  -19.4578  -41.4033 O.2       6 UNK        -0.5000 
     42 CA          1.0630  -17.2517  -40.4685 C.3       6 UNK         0.1400 
     43 CB          1.7011  -17.3059  -39.0727 C.3       6 UNK        -0.1800 
     44 N           1.3097  -15.9359  -41.0636 N.am      6 UNK        -0.5000 
     45 C           0.7786  -15.5130  -42.2188 C.2       5 UNK         0.5000 
     46 O           0.0020  -16.1944  -42.8874 O.2       5 UNK        -0.5000 
     47 CA          1.1863  -14.1138  -42.7298 C.3       5 UNK         0.1400 
     48 CB          1.8481  -13.2275  -41.6514 C.3       5 UNK        -0.1800 
     49 N           2.0382  -14.1632  -43.9259 N.am      5 UNK        -0.5000 
     50 C           3.2076  -14.8063  -44.0713 C.2       4 UNK         0.5000 
     51 O           3.6758  -15.5609  -43.2183 O.2       4 UNK        -0.5000 
     52 CA          3.9987  -14.5630  -45.3755 C.3       4 UNK         0.1400 
     53 CB          4.4292  -15.8711  -46.0632 C.3       4 UNK        -0.1800 
     54 N           3.2911  -13.7146  -46.3430 N.am      4 UNK        -0.5000 
     55 C           3.4589  -12.3902  -46.4404 C.2       3 UNK         0.5000 
     56 O           4.1418  -11.7289  -45.6576 O.2       3 UNK        -0.5000 
     57 CA          2.7504  -11.6755  -47.6026 C.3       3 UNK         0.1400 
     58 CB          3.2830  -12.1385  -48.9745 C.3       3 UNK        -0.1800 
     59 N           1.2873  -11.7342  -47.5226 N.am      3 UNK        -0.5000 
     60 C           0.4670  -12.7638  -47.7696 C.2       2 UNK         0.5000 
     61 O           0.8554  -13.8921  -48.0804 O.2       2 UNK        -0.5000 
     62 CA         -1.0434  -12.4741  -47.6597 C.3       2 UNK         0.1400 
     63 CB         -1.4084  -11.0377  -48.1067 C.3       2 UNK        -0.1800 
     64 N          -1.7753  -13.4538  -48.4579 N.am      2 UNK        -0.5000 
     65 C          -3.0945  -13.6736  -48.4140 C.2       1 UNK         0.5000 
     66 O          -3.8622  -13.1066  -47.6330 O.2       1 UNK        -0.5000 
     67 C          -0.6695  -22.8942  -47.7467 C.2       11 UNK         0.5000 
     68 O          -0.8726  -23.8404  -48.5066 O.2       11 UNK        -0.5000 
     69 N          -1.5911  -21.9600  -47.4728 N.am      12 UNK        -0.5000 
     70 CA         -2.9633  -21.9675  -47.9766 C.3       12 UNK         0.1400 
     71 CB         -3.6772  -20.6684  -47.5830 C.3       12 UNK        -0.1800 
     72 C          -3.7585  -23.1848  -47.4840 C.2       12 UNK         0.5000 
     73 O          -4.4363  -23.8207  -48.2871 O.2       12 UNK        -0.5000 
     74 N          -3.6366  -23.5222  -46.1918 N.am      13 UNK        -0.5000 
     75 CA         -4.2472  -24.7088  -45.5875 C.3       13 UNK         0.1400 
     76 CB         -4.0254  -24.6987  -44.0681 C.3       13 UNK        -0.1800 
     77 C          -3.7414  -26.0217  -46.2146 C.2       13 UNK         0.5000 
     78 O          -4.5513  -26.9012  -46.5099 O.2       13 UNK        -0.5000 
     79 N          -2.4282  -26.1041  -46.4744 N.am      14 UNK        -0.5000 
     80 CA         -1.7911  -27.2050  -47.2043 C.3       14 UNK         0.1400 
     81 CB         -0.2643  -27.0607  -47.1187 C.3       14 UNK        -0.1800 
     82 C          -2.2548  -27.3087  -48.6732 C.2       14 UNK         0.5000 
     83 O          -2.3302  -28.4144  -49.2093 O.2       14 UNK        -0.5000 
     84 N          -2.6072  -26.1663  -49.2773 N.am      15 UNK        -0.5000 
     85 CA         -3.2086  -26.0419  -50.6068 C.3       15 UNK         0.1400 
     86 CB         -2.7976  -24.6873  -51.2140 C.3       15 UNK        -0.1800 
     87 C          -4.7458  -26.2187  -50.6008 C.2       15 UNK         0.5000 
     88 O          -5.3889  -25.8852  -51.5959 O.2       15 UNK        -0.5000 
     89 N          -5.3138  -26.7312  -49.4975 N.am      16 UNK        -0.5000 
     90 CA         -6.7364  -27.0132  -49.2719 C.3       16 UNK         0.1400 
     91 CB         -7.2599  -28.0780  -50.2595 C.3       16 UNK        -0.1800 
     92 C          -7.6086  -25.7411  -49.2215 C.2       16 UNK         0.5000 
     93 O          -8.7231  -25.7287  -49.7467 O.2       16 UNK        -0.5000 
     94 N          -7.0747  -24.6995  -48.5696 N.am      17 UNK        -0.5000 
     95 CA         -7.6568  -23.3737  -48.3334 C.3       17 UNK         0.1400 
     96 CB         -9.0023  -23.4651  -47.5830 C.3       17 UNK        -0.1800 
     97 C          -7.7244  -22.4896  -49.5953 C.2       17 UNK         0.5000 
     98 O          -8.4691  -21.5076  -49.6110 O.2       17 UNK        -0.5000 
     99 N          -6.9358  -22.8273  -50.6232 N.am      18 UNK        -0.5000 
    100 CA        -6.7817  -22.0318  -51.8374 C.3       18 UNK         0.1400 
    101 CB        -6.2237  -22.9252  -52.9550 C.3       18 UNK        -0.1800 
    102 C         -5.8402  -20.8405  -51.5965 C.2       18 UNK         0.5000 
    103 O         -4.8286  -20.9850  -50.9046 O.2       18 UNK        -0.5000 
    104 N         -6.1429  -19.7023  -52.2328 N.am      19 UNK        -0.5000 
    105 CA        -5.2955  -18.5076  -52.2649 C.3       19 UNK         0.1400 
    106 CB        -6.1760  -17.2678  -52.5018 C.3       19 UNK        -0.1800 
    107 C         -4.1759  -18.6622  -53.3162 C.2       19 UNK         0.5000 
    108 O         -4.1125  -17.9016  -54.2837 O.2       19 UNK        -0.5000 
    109 N         -3.3435  -19.6902  -53.1213 N.am      20 UNK        -0.5000 
    110 CA        -2.1981  -20.0437  -53.9563 C.3       20 UNK         0.1400 
    111 CB        -1.7378  -21.4542  -53.5469 C.3       20 UNK        -0.1800 
    112 C         -1.0392  -19.0357  -53.8270 C.2       20 UNK         0.5000 
    113 O         -1.0560  -18.1930  -52.9287 O.2       20 UNK        -0.5000 
    114 N         -0.0419  -19.1774  -54.7132 N.am      21 UNK        -0.5000 
    115 CA         1.2685  -18.5144  -54.7134 C.3       21 UNK         0.1400 
    116 CB         2.2092  -19.2305  -53.7243 C.3       21 UNK        -0.1800 
    117 C          1.2071  -16.9882  -54.4917 C.2       21 UNK         0.5000 
    118 O          1.0042  -16.2498  -55.4571 O.2       21 UNK        -0.5000 
    119 N          1.3885  -16.5493  -53.2386 N.am      22 UNK        -0.5000 
    120 CA         1.3339  -15.1404  -52.8196 C.3       22 UNK         0.1400 
    121 C         -0.0938  -14.5185  -52.8567 C.2       22 UNK         0.5000 
    122 N         -1.1612  -15.3083  -52.9049 N.am      22 UNK        -0.7600 
    123 O         -0.2316  -13.2989  -52.8433 O.2       22 UNK        -0.5000 
    124 C124        1.9991  -14.8759  -51.4367 C.3       23 UNK        -0.0398 
    125 S125        3.4122  -15.9627  -51.0176 S.3       23 UNK        -0.2404 
    126 C126        2.8294  -16.7732  -49.4897 C.3       23 UNK        -0.0205 
    127 H127       -2.7272  -13.0670  -51.5114 H         1 UNK         0.0600 
    128 H128       -3.6896  -11.8526  -52.3321 H         1 UNK         0.0600 
    129 H129       -3.2696  -11.6272  -50.6363 H         1 UNK         0.0600 
    130 H130       -5.7071  -14.5279  -49.8784 H         1 UNK         0.3000 
    131 H131       -2.8988  -14.8804  -50.1908 H         1 UNK         0.0600 
    132 H132       -4.6774  -15.8844  -47.9116 H         1 UNK         0.0800 
    133 H133       -4.6026  -16.6530  -49.4721 H         1 UNK         0.0800 
    134 H134       -2.2458  -17.1037  -50.6550 H         1 UNK         0.0800 
    135 H135       -2.7995  -18.6246  -50.0004 H         1 UNK         0.0800 
    136 H136        0.1336  -16.3307  -49.4316 H         1 UNK         0.1150 
    137 H137        3.0145  -19.4408  -50.0782 H         1 UNK         0.1150 
    138 H138       -1.1819  -20.3171  -50.2267 H         1 UNK         0.1150 
    139 H139        0.3174  -22.0781  -50.5406 H         1 UNK         0.0800 
    140 H140        1.7026  -21.5732  -51.4711 H         1 UNK         0.0800 
    141 H141        1.1875  -20.7932  -47.7274 H         1 UNK         0.0800 
    142 H142        2.5130  -21.6490  -47.0210 H         1 UNK         0.0800 
    143 H143        1.1505  -23.7770  -47.0478 H         1 UNK         0.0600 
    144 H144        0.8831  -21.5833  -45.2820 H         1 UNK         0.3000 
    145 H145       -1.0635  -23.2347  -42.7668 H         1 UNK         0.0600 
    146 H146        0.8855  -22.4349  -41.4500 H         1 UNK         0.0600 
    147 H147        1.3253  -23.8410  -42.4087 H         1 UNK         0.0600 
    148 H148        1.8306  -22.2368  -42.9239 H         1 UNK         0.0600 
    149 H149       -0.0539  -20.5764  -42.9176 H         1 UNK         0.3000 
    150 H150       -2.9255  -19.1165  -44.5216 H         1 UNK         0.0600 
    151 H151       -3.4070  -19.2473  -42.0796 H         1 UNK         0.0600 
    152 H152       -2.7278  -17.6829  -42.5058 H         1 UNK         0.0600 
    153 H153       -1.7243  -18.8927  -41.7102 H         1 UNK         0.0600 
    154 H154       -0.5356  -17.8745  -43.7066 H         1 UNK         0.3000 
    155 H155        1.3795  -18.4295  -46.6952 H         1 UNK         0.0600 
    156 H156        0.0704  -15.9923  -45.3610 H         1 UNK         0.0600 
    157 H157       -0.0531  -16.4494  -47.0372 H         1 UNK         0.0600 
    158 H158        1.4853  -15.9466  -46.4013 H         1 UNK         0.0600 
    159 H159        1.9422  -17.2440  -44.1204 H         1 UNK         0.3000 
    160 H160        3.1889  -20.1619  -42.5491 H         1 UNK         0.0600 
    161 H161        5.3080  -18.9353  -42.3514 H         1 UNK         0.0600 
    162 H162        4.8594  -17.8602  -43.6697 H         1 UNK         0.0600 
    163 H163        5.1394  -19.5669  -43.9824 H         1 UNK         0.0600 
    164 H164        3.1450  -17.2980  -41.9950 H         1 UNK         0.3000 
    165 H165       -0.0166  -17.3708  -40.3553 H         1 UNK         0.0600 
    166 H166        1.2877  -16.5370  -38.4197 H         1 UNK         0.0600 
    167 H167        1.5157  -18.2695  -38.5962 H         1 UNK         0.0600 
    168 H168        2.7817  -17.1641  -39.1178 H         1 UNK         0.0600 
    169 H169        1.9566  -15.3304  -40.5797 H         1 UNK         0.3000 
    170 H170        0.2591  -13.6246  -43.0316 H         1 UNK         0.0600 
    171 H171        1.2144  -13.1396  -40.7679 H         1 UNK         0.0600 
    172 H172        2.8161  -13.6161  -41.3331 H         1 UNK         0.0600 
    173 H173        2.0105  -12.2175  -42.0280 H         1 UNK         0.0600 
    174 H174        1.7317  -13.5955  -44.7019 H         1 UNK         0.3000 
    175 H175        4.9197  -14.0607  -45.0724 H         1 UNK         0.0600 
    176 H176        3.5935  -16.5294  -46.2878 H         1 UNK         0.0600 
    177 H177        4.9507  -15.6682  -46.9988 H         1 UNK         0.0600 
    178 H178        5.1213  -16.4283  -45.4332 H         1 UNK         0.0600 
    179 H179        2.6641  -14.1645  -47.0007 H         1 UNK         0.3000 
    180 H180        2.9987  -10.6167  -47.5123 H         1 UNK         0.0600 
    181 H181        4.3522  -11.9413  -49.0593 H         1 UNK         0.0600 
    182 H182        2.7892  -11.6087  -49.7891 H         1 UNK         0.0600 
    183 H183        3.1419  -13.2071  -49.1352 H         1 UNK         0.0600 
    184 H184        0.8540  -10.8610  -47.2568 H         1 UNK         0.3000 
    185 H185       -1.3209  -12.6059  -46.6122 H         1 UNK         0.0600 
    186 H186       -0.9519  -10.2862  -47.4623 H         1 UNK         0.0600 
    187 H187       -1.0825  -10.8436  -49.1296 H         1 UNK         0.0600 
    188 H188       -2.4827  -10.8604  -48.0657 H         1 UNK         0.0600 
    189 H189       -1.1832  -14.0124  -49.0589 H         1 UNK         0.3000 
    190 H190       -1.3280  -21.1629  -46.8943 H         1 UNK         0.3000 
    191 H191       -2.9160  -22.0118  -49.0663 H         1 UNK         0.0600 
    192 H192       -3.7782  -20.5694  -46.5025 H         1 UNK         0.0600 
    193 H193       -4.6771  -20.6257  -48.0166 H         1 UNK         0.0600 
    194 H194       -3.1282  -19.8024  -47.9441 H         1 UNK         0.0600 
    195 H195       -3.1009  -22.9186  -45.5741 H         1 UNK         0.3000 
    196 H196       -5.3225  -24.6515  -45.7689 H         1 UNK         0.0600 
    197 H197       -4.4990  -25.5619  -43.5990 H         1 UNK         0.0600 
    198 H198       -4.4548  -23.8055  -43.6140 H         1 UNK         0.0600 
    199 H199       -2.9665  -24.7264  -43.8125 H         1 UNK         0.0600 
    200 H200       -1.8211  -25.3531  -46.1590 H         1 UNK         0.3000 
    201 H201       -2.0703  -28.1361  -46.7068 H         1 UNK         0.0600 
    202 H202        0.0827  -26.1442  -47.5953 H         1 UNK         0.0600 
    203 H203        0.0728  -27.0458  -46.0820 H         1 UNK         0.0600 
    204 H204        0.2346  -27.8957  -47.6119 H         1 UNK         0.0600 
    205 H205       -2.4706  -25.2979  -48.7728 H         1 UNK         0.3000 
    206 H206       -2.8030  -26.8272  -51.2474 H         1 UNK         0.0600 
    207 H207       -3.2506  -23.8506  -50.6824 H         1 UNK         0.0600 
    208 H208       -1.7160  -24.5526  -51.1880 H         1 UNK         0.0600 
    209 H209       -3.1054  -24.6152  -52.2575 H         1 UNK         0.0600 
    210 H210       -4.7116  -26.9255  -48.7071 H         1 UNK         0.3000 
    211 H211       -6.7947  -27.4482  -48.2732 H         1 UNK         0.0600 
    212 H212       -7.3040  -27.7005  -51.2813 H         1 UNK         0.0600 
    213 H213       -8.2664  -28.3987  -49.9884 H         1 UNK         0.0600 
    214 H214       -6.6262  -28.9648  -50.2556 H         1 UNK         0.0600 
    215 H215       -6.1011  -24.7731  -48.2874 H         1 UNK         0.3000 
    216 H216       -6.9586  -22.8670  -47.6660 H         1 UNK         0.0600 
    217 H217       -9.7946  -23.8675  -48.2143 H         1 UNK         0.0600 
    218 H218       -9.3275  -22.4808  -47.2446 H         1 UNK         0.0600 
    219 H219       -8.9198  -24.0985  -46.6998 H         1 UNK         0.0600 
    220 H220       -6.3231  -23.6242  -50.5208 H         1 UNK         0.3000 
    221 H221       -7.7616  -21.6618  -52.1467 H         1 UNK         0.0600 
    222 H222       -5.2306  -23.3030  -52.7088 H         1 UNK         0.0600 
    223 H223       -6.8715  -23.7832  -53.1361 H         1 UNK         0.0600 
    224 H224       -6.1410  -22.3743  -53.8927 H         1 UNK         0.0600 
    225 H225       -6.9681  -19.6740  -52.8144 H         1 UNK         0.3000 
    226 H226       -4.8153  -18.3849  -51.2927 H         1 UNK         0.0600 
    227 H227       -6.9243  -17.1609  -51.7164 H         1 UNK         0.0600 
    228 H228       -5.5755  -16.3569  -52.5015 H         1 UNK         0.0600 
    229 H229       -6.6979  -17.3188  -53.4581 H         1 UNK         0.0600 
    230 H230       -3.4941  -20.2588  -52.2960 H         1 UNK         0.3000 
    231 H231       -2.5234  -20.0622  -54.9983 H         1 UNK         0.0600 
    232 H232       -2.5479  -22.1776  -53.6442 H         1 UNK         0.0600 
    233 H233       -1.3926  -21.4787  -52.5124 H         1 UNK         0.0600 
    234 H234       -0.9171  -21.8043  -54.1738 H         1 UNK         0.0600 
    235 H235       -0.1595  -19.8705  -55.4383 H         1 UNK         0.3000 
    236 H236        1.6841  -18.6565  -55.7122 H         1 UNK         0.0600 
    237 H237        3.1842  -18.7436  -53.6774 H         1 UNK         0.0600 
    238 H238        1.7946  -19.2440  -52.7193 H         1 UNK         0.0600 
    239 H239        2.3775  -20.2650  -54.0234 H         1 UNK         0.0600 
    240 H240        1.5052  -17.2245  -52.4964 H         1 UNK         0.3000 
    241 H241        1.9181  -14.5866  -53.5569 H         1 UNK         0.0600 
    242 H242       -2.0780  -14.9022  -52.9754 H         1 UNK         0.3800 
    243 H243       -1.0523  -16.3212  -52.9188 H         1 UNK         0.3800 
    244 H244        1.2673  -14.9259  -50.6332 H         1 UNK         0.0800 
    245 H245        2.3597  -13.8468  -51.4113 H         1 UNK         0.0800 
    246 H246        3.6730  -17.2845  -49.0239 H         1 UNK         0.0800 
    247 H247        2.5110  -16.0123  -48.7759 H         1 UNK         0.0800 
@<TRIPOS>BOND
     1    1    2 1    
     2    1  127 1    
     3    1  128 1    
     4    1  129 1    
     5    2    3 2    
     6    2    4 am   BACKBONE|DICT|INTERRES
     7    4    5 1    
     8    4  130 1    
     9    5    6 1    
    10    5   65 1    
    11    5  131 1    
    12    6    7 1    
    13    6  132 1    
    14    6  133 1    
    15    7    8 1    
    16    8    9 1    
    17    8  134 1    
    18    8  135 1    
    19    9   10 ar   
    20    9   14 ar   
    21   10   11 ar   
    22   10  136 1    
    23   11   12 ar   
    24   11  126 1    
    25   12   13 ar   
    26   12  137 1    
    27   13   14 ar   
    28   13   15 1    
    29   14  138 1    
    30   15   16 1    
    31   15  139 1    
    32   15  140 1    
    33   16   17 1    
    34   17   18 1    
    35   17  141 1    
    36   17  142 1    
    37   18   19 1    
    38   18   67 1    
    39   18  143 1    
    40   19   20 am   BACKBONE|DICT|INTERRES
    41   19  144 1    
    42   20   21 2    
    43   20   22 1    
    44   22   23 1    
    45   22   24 1    
    46   22  145 1    
    47   23  146 1    
    48   23  147 1    
    49   23  148 1    
    50   24   25 am   BACKBONE|DICT|INTERRES
    51   24  149 1    
    52   25   26 2    
    53   25   27 1    
    54   27   28 1    
    55   27   29 1    
    56   27  150 1    
    57   28  151 1    
    58   28  152 1    
    59   28  153 1    
    60   29   30 am   BACKBONE|DICT|INTERRES
    61   29  154 1    
    62   30   31 2    
    63   30   32 1    
    64   32   33 1    
    65   32   34 1    
    66   32  155 1    
    67   33  156 1    
    68   33  157 1    
    69   33  158 1    
    70   34   35 am   BACKBONE|DICT|INTERRES
    71   34  159 1    
    72   35   36 2    
    73   35   37 1    
    74   37   38 1    
    75   37   39 1    
    76   37  160 1    
    77   38  161 1    
    78   38  162 1    
    79   38  163 1    
    80   39   40 am   BACKBONE|DICT|INTERRES
    81   39  164 1    
    82   40   41 2    
    83   40   42 1    
    84   42   43 1    
    85   42   44 1    
    86   42  165 1    
    87   43  166 1    
    88   43  167 1    
    89   43  168 1    
    90   44   45 am   BACKBONE|DICT|INTERRES
    91   44  169 1    
    92   45   46 2    
    93   45   47 1    
    94   47   48 1    
    95   47   49 1    
    96   47  170 1    
    97   48  171 1    
    98   48  172 1    
    99   48  173 1    
   100   49   50 am   BACKBONE|DICT|INTERRES
   101   49  174 1    
   102   50   51 2    
   103   50   52 1    
   104   52   53 1    
   105   52   54 1    
   106   52  175 1    
   107   53  176 1    
   108   53  177 1    
   109   53  178 1    
   110   54   55 am   BACKBONE|DICT|INTERRES
   111   54  179 1    
   112   55   56 2    
   113   55   57 1    
   114   57   58 1    
   115   57   59 1    
   116   57  180 1    
   117   58  181 1    
   118   58  182 1    
   119   58  183 1    
   120   59   60 am   BACKBONE|DICT|INTERRES
   121   59  184 1    
   122   60   61 2    
   123   60   62 1    
   124   62   63 1    
   125   62   64 1    
   126   62  185 1    
   127   63  186 1    
   128   63  187 1    
   129   63  188 1    
   130   64   65 am   BACKBONE|DICT|INTERRES
   131   64  189 1    
   132   65   66 2    
   133   67   68 2    
   134   67   69 am   BACKBONE|DICT|INTERRES
   135   69   70 1    
   136   69  190 1    
   137   70   71 1    
   138   70   72 1    
   139   70  191 1    
   140   71  192 1    
   141   71  193 1    
   142   71  194 1    
   143   72   73 2    
   144   72   74 am   BACKBONE|DICT|INTERRES
   145   74   75 1    
   146   74  195 1    
   147   75   76 1    
   148   75   77 1    
   149   75  196 1    
   150   76  197 1    
   151   76  198 1    
   152   76  199 1    
   153   77   78 2    
   154   77   79 am   BACKBONE|DICT|INTERRES
   155   79   80 1    
   156   79  200 1    
   157   80   81 1    
   158   80   82 1    
   159   80  201 1    
   160   81  202 1    
   161   81  203 1    
   162   81  204 1    
   163   82   83 2    
   164   82   84 am   BACKBONE|DICT|INTERRES
   165   84   85 1    
   166   84  205 1    
   167   85   86 1    
   168   85   87 1    
   169   85  206 1    
   170   86  207 1    
   171   86  208 1    
   172   86  209 1    
   173   87   88 2    
   174   87   89 am   BACKBONE|DICT|INTERRES
   175   89   90 1    
   176   89  210 1    
   177   90   91 1    
   178   90   92 1    
   179   90  211 1    
   180   91  212 1    
   181   91  213 1    
   182   91  214 1    
   183   92   93 2    
   184   92   94 am   BACKBONE|DICT|INTERRES
   185   94   95 1    
   186   94  215 1    
   187   95   96 1    
   188   95   97 1    
   189   95  216 1    
   190   96  217 1    
   191   96  218 1    
   192   96  219 1    
   193   97   98 2    
   194   97   99 am   BACKBONE|DICT|INTERRES
   195   99  100 1    
   196   99  220 1    
   197  100  101 1    
   198  100  102 1    
   199  100  221 1    
   200  101  222 1    
   201  101  223 1    
   202  101  224 1    
   203  102  103 2    
   204  102  104 am   BACKBONE|DICT|INTERRES
   205  104  105 1    
   206  104  225 1    
   207  105  106 1    
   208  105  107 1    
   209  105  226 1    
   210  106  227 1    
   211  106  228 1    
   212  106  229 1    
   213  107  108 2    
   214  107  109 am   BACKBONE|DICT|INTERRES
   215  109  110 1    
   216  109  230 1    
   217  110  111 1    
   218  110  112 1    
   219  110  231 1    
   220  111  232 1    
   221  111  233 1    
   222  111  234 1    
   223  112  113 2    
   224  112  114 am   BACKBONE|DICT|INTERRES
   225  114  115 1    
   226  114  235 1    
   227  115  116 1    
   228  115  117 1    
   229  115  236 1    
   230  116  237 1    
   231  116  238 1    
   232  116  239 1    
   233  117  118 2    
   234  117  119 am   BACKBONE|DICT|INTERRES
   235  119  120 1    
   236  119  240 1    
   237  120  121 1    
   238  120  124 1    
   239  120  241 1    
   240  121  122 am   BACKBONE|DICT|INTERRES
   241  121  123 2    
   242  122  242 1    
   243  122  243 1    
   244  124  125 1    
   245  124  244 1    
   246  124  245 1    
   247  125  126 1    
   248  126  246 1    
   249  126  247 1    
@<TRIPOS>SUBSTRUCTURE
     1 UNK         1 GROUP             0       ****    0 ROOT    
