@<TRIPOS>MOLECULE
3R540
247   249    1
SMALL
USER_CHARGES


@<TRIPOS>ATOM
      1 CA          0.4732   -8.8169  -48.8936 C.3       0 UNK        -0.1800 
      2 C           0.6212  -10.2598  -48.4339 C.2       0 UNK         0.5000 
      3 O           1.7152  -10.8183  -48.5063 O.2       0 UNK        -0.5000 
      4 N          -0.4689  -10.8619  -47.9396 N.am      1 UNK        -0.5000 
      5 CA         -0.5485  -12.2669  -47.5055 C.3       1 UNK         0.1400 
      6 C6         -2.0068  -12.7219  -47.2528 C.3       23 UNK        -0.0398 
      7 S7         -3.0960  -12.4146  -48.6853 S.3       23 UNK        -0.2404 
      8 C8         -4.3762  -13.6905  -48.4663 C.3       23 UNK        -0.0205 
      9 C9         -3.8789  -15.0837  -48.8242 C.ar      23 UNK        -0.0193 
     10 C10        -3.5625  -15.3968  -50.1496 C.ar      23 UNK        -0.1150 
     11 C11        -3.1306  -16.6805  -50.4949 C.ar      23 UNK        -0.0193 
     12 C12        -3.0219  -17.6570  -49.5025 C.ar      23 UNK        -0.1150 
     13 C13        -3.3444  -17.3595  -48.1750 C.ar      23 UNK        -0.0193 
     14 C14        -3.7674  -16.0703  -47.8404 C.ar      23 UNK        -0.1150 
     15 C15        -3.2516  -18.4345  -47.1069 C.3       23 UNK        -0.0205 
     16 S16        -4.7130  -19.5101  -47.1530 S.3       23 UNK        -0.2404 
     17 C17        -4.4983  -20.5234  -45.6578 C.3       23 UNK        -0.0398 
     18 CA         -3.6746  -21.7967  -45.9556 C.3       11 UNK         0.1400 
     19 N          -2.2371  -21.5147  -45.9994 N.am      11 UNK        -0.5000 
     20 C          -1.3018  -22.3439  -46.4817 C.2       10 UNK         0.5000 
     21 O          -1.5688  -23.3939  -47.0629 O.2       10 UNK        -0.5000 
     22 CA          0.1681  -21.9620  -46.2208 C.3       10 UNK         0.1400 
     23 CB          0.7856  -21.2580  -47.4357 C.3       10 UNK        -0.1800 
     24 N           0.2997  -21.0941  -45.0521 N.am      10 UNK        -0.5000 
     25 C           0.1063  -21.4820  -43.7894 C.2       9 UNK         0.5000 
     26 O          -0.1442  -22.6445  -43.4637 O.2       9 UNK        -0.5000 
     27 CA          0.0855  -20.3639  -42.7396 C.3       9 UNK         0.1400 
     28 CB         -1.3685  -19.9546  -42.4577 C.3       9 UNK        -0.1800 
     29 N           0.6826  -20.8409  -41.4949 N.am      9 UNK        -0.5000 
     30 C           1.9520  -20.7437  -41.0690 C.2       8 UNK         0.5000 
     31 O           2.3203  -21.3629  -40.0719 O.2       8 UNK        -0.5000 
     32 CA          2.9865  -19.8375  -41.7808 C.3       8 UNK         0.1400 
     33 CB          3.5231  -20.4683  -43.0770 C.3       8 UNK        -0.1800 
     34 N           2.5524  -18.4604  -42.0255 N.am      8 UNK        -0.5000 
     35 C           2.2294  -17.5701  -41.0773 C.2       7 UNK         0.5000 
     36 O           2.2562  -17.8134  -39.8705 O.2       7 UNK        -0.5000 
     37 CA          1.8266  -16.1622  -41.5509 C.3       7 UNK         0.1400 
     38 CB          3.0690  -15.3076  -41.8420 C.3       7 UNK        -0.1800 
     39 N           0.9691  -16.1839  -42.7363 N.am      7 UNK        -0.5000 
     40 C          -0.3626  -16.3234  -42.6998 C.2       6 UNK         0.5000 
     41 O          -0.9964  -16.4970  -41.6590 O.2       6 UNK        -0.5000 
     42 CA         -1.1285  -16.2271  -44.0336 C.3       6 UNK         0.1400 
     43 CB         -1.9616  -14.9365  -44.0820 C.3       6 UNK        -0.1800 
     44 N          -0.2417  -16.2610  -45.1984 N.am      6 UNK        -0.5000 
     45 C           0.0636  -17.3703  -45.8772 C.2       5 UNK         0.5000 
     46 O          -0.3890  -18.4810  -45.6022 O.2       5 UNK        -0.5000 
     47 CA          1.0822  -17.2346  -47.0237 C.3       5 UNK         0.1400 
     48 CB          0.4742  -16.5019  -48.2293 C.3       5 UNK        -0.1800 
     49 N           2.3525  -16.6063  -46.6468 N.am      5 UNK        -0.5000 
     50 C           3.1447  -16.9764  -45.6322 C.2       4 UNK         0.5000 
     51 O           2.8123  -17.7871  -44.7683 O.2       4 UNK        -0.5000 
     52 CA          4.5500  -16.3512  -45.5462 C.3       4 UNK         0.1400 
     53 CB          5.5523  -17.1343  -46.4145 C.3       4 UNK        -0.1800 
     54 N           4.6139  -14.9097  -45.8123 N.am      4 UNK        -0.5000 
     55 C           4.4291  -14.2438  -46.9589 C.2       3 UNK         0.5000 
     56 O           4.0923  -14.7764  -48.0179 O.2       3 UNK        -0.5000 
     57 CA          4.6127  -12.7141  -46.8757 C.3       3 UNK         0.1400 
     58 CB          4.8329  -12.0730  -48.2567 C.3       3 UNK        -0.1800 
     59 N           3.4540  -12.0918  -46.2382 N.am      3 UNK        -0.5000 
     60 C           3.1592  -12.1624  -44.9307 C.2       2 UNK         0.5000 
     61 O           3.9219  -12.6458  -44.0926 O.2       2 UNK        -0.5000 
     62 CA          1.7785  -11.6406  -44.4774 C.3       2 UNK         0.1400 
     63 CB          1.9149  -10.2632  -43.8122 C.3       2 UNK        -0.1800 
     64 N           0.7982  -11.5488  -45.5617 N.am      2 UNK        -0.5000 
     65 C           0.3363  -12.5840  -46.2781 C.2       1 UNK         0.5000 
     66 O           0.6128  -13.7543  -46.0183 O.2       1 UNK        -0.5000 
     67 C          -4.0241  -22.9294  -44.9663 C.2       11 UNK         0.5000 
     68 O          -5.0211  -23.6170  -45.1827 O.2       11 UNK        -0.5000 
     69 N          -3.2032  -23.1298  -43.9264 N.am      12 UNK        -0.5000 
     70 CA         -3.3375  -24.2516  -42.9988 C.3       12 UNK         0.1400 
     71 CB         -2.8272  -23.8393  -41.6083 C.3       12 UNK        -0.1800 
     72 C          -2.5838  -25.4859  -43.5211 C.2       12 UNK         0.5000 
     73 O          -3.1242  -26.5912  -43.4767 O.2       12 UNK        -0.5000 
     74 N          -1.3497  -25.2755  -44.0003 N.am      13 UNK        -0.5000 
     75 CA         -0.4397  -26.3413  -44.4169 C.3       13 UNK         0.1400 
     76 CB          0.9926  -25.7878  -44.4696 C.3       13 UNK        -0.1800 
     77 C          -0.8072  -27.0050  -45.7574 C.2       13 UNK         0.5000 
     78 O          -0.6573  -28.2220  -45.8769 O.2       13 UNK        -0.5000 
     79 N          -1.2399  -26.2084  -46.7445 N.am      14 UNK        -0.5000 
     80 CA         -1.3986  -26.6403  -48.1378 C.3       14 UNK         0.1400 
     81 CB         -0.2011  -26.1071  -48.9458 C.3       14 UNK        -0.1800 
     82 C          -2.7254  -26.1954  -48.7803 C.2       14 UNK         0.5000 
     83 O          -2.9567  -26.5305  -49.9427 O.2       14 UNK        -0.5000 
     84 N          -3.5609  -25.4455  -48.0435 N.am      15 UNK        -0.5000 
     85 CA         -4.8063  -24.8130  -48.5035 C.3       15 UNK         0.1400 
     86 CB         -5.8760  -25.8718  -48.8434 C.3       15 UNK        -0.1800 
     87 C          -4.5655  -23.8065  -49.6499 C.2       15 UNK         0.5000 
     88 O          -5.3327  -23.7677  -50.6121 O.2       15 UNK        -0.5000 
     89 N          -3.4841  -23.0227  -49.5248 N.am      16 UNK        -0.5000 
     90 CA         -2.9137  -22.1392  -50.5463 C.3       16 UNK         0.1400 
     91 CB         -1.7789  -21.3224  -49.9181 C.3       16 UNK        -0.1800 
     92 C          -3.8904  -21.2121  -51.2934 C.2       16 UNK         0.5000 
     93 O          -3.7454  -21.0572  -52.5059 O.2       16 UNK        -0.5000 
     94 N          -4.8648  -20.6245  -50.5858 N.am      17 UNK        -0.5000 
     95 CA         -5.8790  -19.7498  -51.1841 C.3       17 UNK         0.1400 
     96 CB         -6.6001  -18.9524  -50.0881 C.3       17 UNK        -0.1800 
     97 C          -6.8990  -20.5078  -52.0545 C.2       17 UNK         0.5000 
     98 O          -7.3493  -19.9663  -53.0641 O.2       17 UNK        -0.5000 
     99 N          -7.2331  -21.7454  -51.6639 N.am      18 UNK        -0.5000 
    100 CA        -8.1329  -22.6302  -52.4065 C.3       18 UNK         0.1400 
    101 CB        -8.7280  -23.6762  -51.4511 C.3       18 UNK        -0.1800 
    102 C         -7.4081  -23.3107  -53.5800 C.2       18 UNK         0.5000 
    103 O         -7.9935  -23.4714  -54.6513 O.2       18 UNK        -0.5000 
    104 N         -6.1356  -23.6683  -53.3616 N.am      19 UNK        -0.5000 
    105 CA        -5.2310  -24.2363  -54.3618 C.3       19 UNK         0.1400 
    106 CB        -4.0115  -24.8260  -53.6354 C.3       19 UNK        -0.1800 
    107 C         -4.7743  -23.2171  -55.4262 C.2       19 UNK         0.5000 
    108 O         -4.2970  -23.6299  -56.4836 O.2       19 UNK        -0.5000 
    109 N         -4.9087  -21.9179  -55.1166 N.am      20 UNK        -0.5000 
    110 CA        -4.4415  -20.7572  -55.8816 C.3       20 UNK         0.1400 
    111 CB        -5.1706  -20.6476  -57.2365 C.3       20 UNK        -0.1800 
    112 C         -2.9039  -20.7279  -56.0088 C.2       20 UNK         0.5000 
    113 O         -2.3661  -20.3499  -57.0519 O.2       20 UNK        -0.5000 
    114 N         -2.2199  -21.1178  -54.9236 N.am      21 UNK        -0.5000 
    115 CA        -0.7624  -21.2412  -54.8313 C.3       21 UNK         0.1400 
    116 CB        -0.4040  -21.9559  -53.5207 C.3       21 UNK        -0.1800 
    117 C         -0.0177  -19.8965  -54.9416 C.2       21 UNK         0.5000 
    118 O          1.1613  -19.8852  -55.2975 O.2       21 UNK        -0.5000 
    119 N         -0.7242  -18.7930  -54.6658 N.am      22 UNK        -0.5000 
    120 CA        -0.2643  -17.4177  -54.9091 C.3       22 UNK         0.1400 
    121 C         -0.1967  -17.0238  -56.4172 C.2       22 UNK         0.5000 
    122 N         -0.7520  -17.7962  -57.3457 N.am      22 UNK        -0.7600 
    123 O          0.3790  -15.9926  -56.7534 O.2       22 UNK        -0.5000 
    124 C124       -1.1044  -16.3810  -54.1205 C.3       23 UNK        -0.0398 
    125 S125       -1.0555  -16.6244  -52.3101 S.3       23 UNK        -0.2404 
    126 C126       -2.7960  -17.0074  -51.9412 C.3       23 UNK        -0.0205 
    127 H127        1.1437   -8.1718  -48.3258 H         1 UNK         0.0600 
    128 H128       -0.5454   -8.4514  -48.7608 H         1 UNK         0.0600 
    129 H129        0.7301   -8.7325  -49.9495 H         1 UNK         0.0600 
    130 H130       -1.3422  -10.3542  -47.9134 H         1 UNK         0.3000 
    131 H131       -0.1550  -12.8721  -48.3251 H         1 UNK         0.0600 
    132 H132       -2.4290  -12.2144  -46.3836 H         1 UNK         0.0800 
    133 H133       -2.0244  -13.7896  -47.0295 H         1 UNK         0.0800 
    134 H134       -4.7488  -13.6570  -47.4413 H         1 UNK         0.0800 
    135 H135       -5.2251  -13.4469  -49.1066 H         1 UNK         0.0800 
    136 H136       -3.6509  -14.6367  -50.9132 H         1 UNK         0.1150 
    137 H137       -2.6971  -18.6511  -49.7663 H         1 UNK         0.1150 
    138 H138       -4.0245  -15.8407  -46.8161 H         1 UNK         0.1150 
    139 H139       -3.1542  -17.9824  -46.1189 H         1 UNK         0.0800 
    140 H140       -2.3553  -19.0317  -47.2725 H         1 UNK         0.0800 
    141 H141       -5.5054  -20.7768  -45.3202 H         1 UNK         0.0800 
    142 H142       -4.0537  -19.9333  -44.8549 H         1 UNK         0.0800 
    143 H143       -3.9682  -22.1658  -46.9388 H         1 UNK         0.0600 
    144 H144       -1.9292  -20.6525  -45.5736 H         1 UNK         0.3000 
    145 H145        0.7292  -22.8783  -46.0348 H         1 UNK         0.0600 
    146 H146        0.8699  -21.9446  -48.2779 H         1 UNK         0.0600 
    147 H147        1.7917  -20.9003  -47.2155 H         1 UNK         0.0600 
    148 H148        0.1887  -20.4033  -47.7562 H         1 UNK         0.0600 
    149 H149        0.3698  -20.0973  -45.2469 H         1 UNK         0.3000 
    150 H150        0.6034  -19.4961  -43.1399 H         1 UNK         0.0600 
    151 H151       -1.9722  -20.7979  -42.1197 H         1 UNK         0.0600 
    152 H152       -1.8422  -19.5456  -43.3507 H         1 UNK         0.0600 
    153 H153       -1.4163  -19.1868  -41.6860 H         1 UNK         0.0600 
    154 H154        0.0847  -21.4666  -40.9767 H         1 UNK         0.3000 
    155 H155        3.8386  -19.7678  -41.1011 H         1 UNK         0.0600 
    156 H156        2.8056  -20.4118  -43.8934 H         1 UNK         0.0600 
    157 H157        3.7761  -21.5191  -42.9304 H         1 UNK         0.0600 
    158 H158        4.4292  -19.9604  -43.4079 H         1 UNK         0.0600 
    159 H159        2.5347  -18.1676  -42.9999 H         1 UNK         0.3000 
    160 H160        1.2861  -15.6822  -40.7319 H         1 UNK         0.0600 
    161 H161        3.6581  -15.7157  -42.6617 H         1 UNK         0.0600 
    162 H162        3.7186  -15.2520  -40.9676 H         1 UNK         0.0600 
    163 H163        2.7912  -14.2867  -42.1045 H         1 UNK         0.0600 
    164 H164        1.4170  -16.0918  -43.6360 H         1 UNK         0.3000 
    165 H165       -1.8221  -17.0695  -44.0683 H         1 UNK         0.0600 
    166 H166       -2.5611  -14.8910  -44.9902 H         1 UNK         0.0600 
    167 H167       -2.6521  -14.8835  -43.2394 H         1 UNK         0.0600 
    168 H168       -1.3317  -14.0472  -44.0450 H         1 UNK         0.0600 
    169 H169        0.1653  -15.3731  -45.4938 H         1 UNK         0.3000 
    170 H170        1.3282  -18.2467  -47.3483 H         1 UNK         0.0600 
    171 H171       -0.4374  -16.9951  -48.5649 H         1 UNK         0.0600 
    172 H172        1.1628  -16.4918  -49.0742 H         1 UNK         0.0600 
    173 H173        0.2192  -15.4690  -47.9952 H         1 UNK         0.0600 
    174 H174        2.7294  -15.9180  -47.2919 H         1 UNK         0.3000 
    175 H175        4.8755  -16.4674  -44.5120 H         1 UNK         0.0600 
    176 H176        5.5768  -18.1856  -46.1246 H         1 UNK         0.0600 
    177 H177        5.2948  -17.0969  -47.4733 H         1 UNK         0.0600 
    178 H178        6.5631  -16.7428  -46.3004 H         1 UNK         0.0600 
    179 H179        4.7702  -14.3344  -44.9911 H         1 UNK         0.3000 
    180 H180        5.4997  -12.5116  -46.2716 H         1 UNK         0.0600 
    181 H181        4.9866  -10.9971  -48.1722 H         1 UNK         0.0600 
    182 H182        3.9833  -12.2374  -48.9203 H         1 UNK         0.0600 
    183 H183        5.7145  -12.4915  -48.7436 H         1 UNK         0.0600 
    184 H184        2.7696  -11.6886  -46.8685 H         1 UNK         0.3000 
    185 H185        1.3933  -12.3449  -43.7370 H         1 UNK         0.0600 
    186 H186        2.6165  -10.2997  -42.9777 H         1 UNK         0.0600 
    187 H187        2.2785   -9.5120  -44.5145 H         1 UNK         0.0600 
    188 H188        0.9592   -9.9195  -43.4159 H         1 UNK         0.0600 
    189 H189        0.5256  -10.6196  -45.8469 H         1 UNK         0.3000 
    190 H190       -2.3739  -22.5623  -43.8296 H         1 UNK         0.3000 
    191 H191       -4.3912  -24.5198  -42.8936 H         1 UNK         0.0600 
    192 H192       -3.3779  -22.9794  -41.2268 H         1 UNK         0.0600 
    193 H193       -2.9574  -24.6514  -40.8921 H         1 UNK         0.0600 
    194 H194       -1.7685  -23.5812  -41.6176 H         1 UNK         0.0600 
    195 H195       -0.9554  -24.3417  -43.9405 H         1 UNK         0.3000 
    196 H196       -0.4637  -27.1187  -43.6499 H         1 UNK         0.0600 
    197 H197        1.7076  -26.5782  -44.7013 H         1 UNK         0.0600 
    198 H198        1.2852  -25.3545  -43.5128 H         1 UNK         0.0600 
    199 H199        1.0993  -25.0177  -45.2327 H         1 UNK         0.0600 
    200 H200       -1.3180  -25.2082  -46.5852 H         1 UNK         0.3000 
    201 H201       -1.3926  -27.7300  -48.2018 H         1 UNK         0.0600 
    202 H202       -0.2487  -26.4308  -49.9863 H         1 UNK         0.0600 
    203 H203        0.7424  -26.4703  -48.5383 H         1 UNK         0.0600 
    204 H204       -0.1701  -25.0166  -48.9416 H         1 UNK         0.0600 
    205 H205       -3.2767  -25.2240  -47.1006 H         1 UNK         0.3000 
    206 H206       -5.1904  -24.2286  -47.6697 H         1 UNK         0.0600 
    207 H207       -6.0147  -26.5704  -48.0185 H         1 UNK         0.0600 
    208 H208       -6.8410  -25.4016  -49.0344 H         1 UNK         0.0600 
    209 H209       -5.6138  -26.4473  -49.7315 H         1 UNK         0.0600 
    210 H210       -2.9019  -23.1710  -48.7089 H         1 UNK         0.3000 
    211 H211       -2.4710  -22.7908  -51.3011 H         1 UNK         0.0600 
    212 H212       -2.1051  -20.8176  -49.0090 H         1 UNK         0.0600 
    213 H213       -1.3996  -20.5594  -50.5987 H         1 UNK         0.0600 
    214 H214       -0.9434  -21.9727  -49.6657 H         1 UNK         0.0600 
    215 H215       -4.9187  -20.7817  -49.5899 H         1 UNK         0.3000 
    216 H216       -5.3702  -19.0329  -51.8323 H         1 UNK         0.0600 
    217 H217       -7.0506  -19.6071  -49.3415 H         1 UNK         0.0600 
    218 H218       -7.3960  -18.3370  -50.5095 H         1 UNK         0.0600 
    219 H219       -5.9140  -18.2767  -49.5785 H         1 UNK         0.0600 
    220 H220       -6.7513  -22.1544  -50.8735 H         1 UNK         0.3000 
    221 H221       -8.9558  -22.0392  -52.8143 H         1 UNK         0.0600 
    222 H222       -7.9583  -24.3181  -51.0219 H         1 UNK         0.0600 
    223 H223       -9.2645  -23.2005  -50.6301 H         1 UNK         0.0600 
    224 H224       -9.4366  -24.3204  -51.9731 H         1 UNK         0.0600 
    225 H225       -5.7638  -23.5633  -52.4205 H         1 UNK         0.3000 
    226 H226       -5.7522  -25.0454  -54.8773 H         1 UNK         0.0600 
    227 H227       -4.3106  -25.5713  -52.8977 H         1 UNK         0.0600 
    228 H228       -3.3351  -25.3151  -54.3374 H         1 UNK         0.0600 
    229 H229       -3.4434  -24.0536  -53.1169 H         1 UNK         0.0600 
    230 H230       -5.2639  -21.7064  -54.1940 H         1 UNK         0.3000 
    231 H231       -4.7124  -19.8802  -55.2919 H         1 UNK         0.0600 
    232 H232       -4.8935  -21.4543  -57.9153 H         1 UNK         0.0600 
    233 H233       -4.9290  -19.7073  -57.7333 H         1 UNK         0.0600 
    234 H234       -6.2522  -20.6759  -57.1045 H         1 UNK         0.0600 
    235 H235       -2.7501  -21.3271  -54.0816 H         1 UNK         0.3000 
    236 H236       -0.4306  -21.8663  -55.6628 H         1 UNK         0.0600 
    237 H237       -0.6939  -21.3622  -52.6554 H         1 UNK         0.0600 
    238 H238       -0.8982  -22.9250  -53.4484 H         1 UNK         0.0600 
    239 H239        0.6702  -22.1318  -53.4523 H         1 UNK         0.0600 
    240 H240       -1.6811  -18.9024  -54.3682 H         1 UNK         0.3000 
    241 H241        0.7612  -17.3511  -54.5407 H         1 UNK         0.0600 
    242 H242       -0.6900  -17.5201  -58.3129 H         1 UNK         0.3800 
    243 H243       -1.2307  -18.6575  -57.1068 H         1 UNK         0.3800 
    244 H244       -2.1361  -16.3883  -54.4747 H         1 UNK         0.0800 
    245 H245       -0.7333  -15.3722  -54.3103 H         1 UNK         0.0800 
    246 H246       -3.4559  -16.4362  -52.5955 H         1 UNK         0.0800 
    247 H247       -2.9871  -18.0612  -52.1506 H         1 UNK         0.0800 
@<TRIPOS>BOND
     1    1    2 1    
     2    1  127 1    
     3    1  128 1    
     4    1  129 1    
     5    2    3 2    
     6    2    4 am   BACKBONE|DICT|INTERRES
     7    4    5 1    
     8    4  130 1    
     9    5    6 1    
    10    5   65 1    
    11    5  131 1    
    12    6    7 1    
    13    6  132 1    
    14    6  133 1    
    15    7    8 1    
    16    8    9 1    
    17    8  134 1    
    18    8  135 1    
    19    9   10 ar   
    20    9   14 ar   
    21   10   11 ar   
    22   10  136 1    
    23   11   12 ar   
    24   11  126 1    
    25   12   13 ar   
    26   12  137 1    
    27   13   14 ar   
    28   13   15 1    
    29   14  138 1    
    30   15   16 1    
    31   15  139 1    
    32   15  140 1    
    33   16   17 1    
    34   17   18 1    
    35   17  141 1    
    36   17  142 1    
    37   18   19 1    
    38   18   67 1    
    39   18  143 1    
    40   19   20 am   BACKBONE|DICT|INTERRES
    41   19  144 1    
    42   20   21 2    
    43   20   22 1    
    44   22   23 1    
    45   22   24 1    
    46   22  145 1    
    47   23  146 1    
    48   23  147 1    
    49   23  148 1    
    50   24   25 am   BACKBONE|DICT|INTERRES
    51   24  149 1    
    52   25   26 2    
    53   25   27 1    
    54   27   28 1    
    55   27   29 1    
    56   27  150 1    
    57   28  151 1    
    58   28  152 1    
    59   28  153 1    
    60   29   30 am   BACKBONE|DICT|INTERRES
    61   29  154 1    
    62   30   31 2    
    63   30   32 1    
    64   32   33 1    
    65   32   34 1    
    66   32  155 1    
    67   33  156 1    
    68   33  157 1    
    69   33  158 1    
    70   34   35 am   BACKBONE|DICT|INTERRES
    71   34  159 1    
    72   35   36 2    
    73   35   37 1    
    74   37   38 1    
    75   37   39 1    
    76   37  160 1    
    77   38  161 1    
    78   38  162 1    
    79   38  163 1    
    80   39   40 am   BACKBONE|DICT|INTERRES
    81   39  164 1    
    82   40   41 2    
    83   40   42 1    
    84   42   43 1    
    85   42   44 1    
    86   42  165 1    
    87   43  166 1    
    88   43  167 1    
    89   43  168 1    
    90   44   45 am   BACKBONE|DICT|INTERRES
    91   44  169 1    
    92   45   46 2    
    93   45   47 1    
    94   47   48 1    
    95   47   49 1    
    96   47  170 1    
    97   48  171 1    
    98   48  172 1    
    99   48  173 1    
   100   49   50 am   BACKBONE|DICT|INTERRES
   101   49  174 1    
   102   50   51 2    
   103   50   52 1    
   104   52   53 1    
   105   52   54 1    
   106   52  175 1    
   107   53  176 1    
   108   53  177 1    
   109   53  178 1    
   110   54   55 am   BACKBONE|DICT|INTERRES
   111   54  179 1    
   112   55   56 2    
   113   55   57 1    
   114   57   58 1    
   115   57   59 1    
   116   57  180 1    
   117   58  181 1    
   118   58  182 1    
   119   58  183 1    
   120   59   60 am   BACKBONE|DICT|INTERRES
   121   59  184 1    
   122   60   61 2    
   123   60   62 1    
   124   62   63 1    
   125   62   64 1    
   126   62  185 1    
   127   63  186 1    
   128   63  187 1    
   129   63  188 1    
   130   64   65 am   BACKBONE|DICT|INTERRES
   131   64  189 1    
   132   65   66 2    
   133   67   68 2    
   134   67   69 am   BACKBONE|DICT|INTERRES
   135   69   70 1    
   136   69  190 1    
   137   70   71 1    
   138   70   72 1    
   139   70  191 1    
   140   71  192 1    
   141   71  193 1    
   142   71  194 1    
   143   72   73 2    
   144   72   74 am   BACKBONE|DICT|INTERRES
   145   74   75 1    
   146   74  195 1    
   147   75   76 1    
   148   75   77 1    
   149   75  196 1    
   150   76  197 1    
   151   76  198 1    
   152   76  199 1    
   153   77   78 2    
   154   77   79 am   BACKBONE|DICT|INTERRES
   155   79   80 1    
   156   79  200 1    
   157   80   81 1    
   158   80   82 1    
   159   80  201 1    
   160   81  202 1    
   161   81  203 1    
   162   81  204 1    
   163   82   83 2    
   164   82   84 am   BACKBONE|DICT|INTERRES
   165   84   85 1    
   166   84  205 1    
   167   85   86 1    
   168   85   87 1    
   169   85  206 1    
   170   86  207 1    
   171   86  208 1    
   172   86  209 1    
   173   87   88 2    
   174   87   89 am   BACKBONE|DICT|INTERRES
   175   89   90 1    
   176   89  210 1    
   177   90   91 1    
   178   90   92 1    
   179   90  211 1    
   180   91  212 1    
   181   91  213 1    
   182   91  214 1    
   183   92   93 2    
   184   92   94 am   BACKBONE|DICT|INTERRES
   185   94   95 1    
   186   94  215 1    
   187   95   96 1    
   188   95   97 1    
   189   95  216 1    
   190   96  217 1    
   191   96  218 1    
   192   96  219 1    
   193   97   98 2    
   194   97   99 am   BACKBONE|DICT|INTERRES
   195   99  100 1    
   196   99  220 1    
   197  100  101 1    
   198  100  102 1    
   199  100  221 1    
   200  101  222 1    
   201  101  223 1    
   202  101  224 1    
   203  102  103 2    
   204  102  104 am   BACKBONE|DICT|INTERRES
   205  104  105 1    
   206  104  225 1    
   207  105  106 1    
   208  105  107 1    
   209  105  226 1    
   210  106  227 1    
   211  106  228 1    
   212  106  229 1    
   213  107  108 2    
   214  107  109 am   BACKBONE|DICT|INTERRES
   215  109  110 1    
   216  109  230 1    
   217  110  111 1    
   218  110  112 1    
   219  110  231 1    
   220  111  232 1    
   221  111  233 1    
   222  111  234 1    
   223  112  113 2    
   224  112  114 am   BACKBONE|DICT|INTERRES
   225  114  115 1    
   226  114  235 1    
   227  115  116 1    
   228  115  117 1    
   229  115  236 1    
   230  116  237 1    
   231  116  238 1    
   232  116  239 1    
   233  117  118 2    
   234  117  119 am   BACKBONE|DICT|INTERRES
   235  119  120 1    
   236  119  240 1    
   237  120  121 1    
   238  120  124 1    
   239  120  241 1    
   240  121  122 am   BACKBONE|DICT|INTERRES
   241  121  123 2    
   242  122  242 1    
   243  122  243 1    
   244  124  125 1    
   245  124  244 1    
   246  124  245 1    
   247  125  126 1    
   248  126  246 1    
   249  126  247 1    
@<TRIPOS>SUBSTRUCTURE
     1 UNK         1 GROUP             0       ****    0 ROOT    
