@<TRIPOS>MOLECULE
3R540
247   249    1
SMALL
USER_CHARGES


@<TRIPOS>ATOM
      1 CA          4.1992  -18.9568  -46.9972 C.3       0 UNK        -0.1800 
      2 C           4.0507  -17.7248  -47.8786 C.2       0 UNK         0.5000 
      3 O           2.9718  -17.1350  -47.9338 O.2       0 UNK        -0.5000 
      4 N           5.1346  -17.3278  -48.5580 N.am      1 UNK        -0.5000 
      5 CA          5.1823  -16.1774  -49.4653 C.3       1 UNK         0.1400 
      6 C6          6.2682  -16.3172  -50.5637 C.3       23 UNK        -0.0398 
      7 S7          6.1286  -17.8298  -51.5753 S.3       23 UNK        -0.2404 
      8 C8          4.7372  -17.4356  -52.6880 C.3       23 UNK        -0.0205 
      9 C9          3.4005  -17.8370  -52.0801 C.ar      23 UNK        -0.0193 
     10 C10         2.4448  -16.8733  -51.7390 C.ar      23 UNK        -0.1150 
     11 C11         1.2394  -17.2546  -51.1413 C.ar      23 UNK        -0.0193 
     12 C12         0.9804  -18.6081  -50.9159 C.ar      23 UNK        -0.1150 
     13 C13         1.9139  -19.5813  -51.2774 C.ar      23 UNK        -0.0193 
     14 C14         3.1218  -19.1886  -51.8573 C.ar      23 UNK        -0.1150 
     15 C15         1.6214  -21.0561  -51.0602 C.3       23 UNK        -0.0205 
     16 S16         2.2073  -21.6370  -49.4409 S.3       23 UNK        -0.2404 
     17 C17         0.9010  -21.0572  -48.3055 C.3       23 UNK        -0.0398 
     18 CA          0.3187  -22.2105  -47.4480 C.3       11 UNK         0.1400 
     19 N           0.1326  -21.8001  -46.0544 N.am      11 UNK        -0.5000 
     20 C           0.0199  -22.6544  -45.0297 C.2       10 UNK         0.5000 
     21 O           0.0749  -23.8778  -45.1552 O.2       10 UNK        -0.5000 
     22 CA         -0.2497  -22.0395  -43.6447 C.3       10 UNK         0.1400 
     23 CB          1.0522  -21.5301  -43.0089 C.3       10 UNK        -0.1800 
     24 N          -1.2358  -20.9579  -43.6982 N.am      10 UNK        -0.5000 
     25 C          -2.5179  -21.1327  -44.0483 C.2       9 UNK         0.5000 
     26 O          -3.0032  -22.2326  -44.3072 O.2       9 UNK        -0.5000 
     27 CA         -3.4001  -19.8786  -44.1718 C.3       9 UNK         0.1400 
     28 CB         -3.9421  -19.4646  -42.7962 C.3       9 UNK        -0.1800 
     29 N          -2.7123  -18.7499  -44.8001 N.am      9 UNK        -0.5000 
     30 C          -2.2623  -18.7344  -46.0636 C.2       8 UNK         0.5000 
     31 O          -2.4000  -19.6701  -46.8491 O.2       8 UNK        -0.5000 
     32 CA         -1.4744  -17.4895  -46.5119 C.3       8 UNK         0.1400 
     33 CB         -2.4195  -16.3283  -46.8540 C.3       8 UNK        -0.1800 
     34 N          -0.4985  -17.0566  -45.5127 N.am      8 UNK        -0.5000 
     35 C           0.5262  -17.8080  -45.0829 C.2       7 UNK         0.5000 
     36 O           0.7824  -18.9345  -45.5101 O.2       7 UNK        -0.5000 
     37 CA          1.3538  -17.2308  -43.9236 C.3       7 UNK         0.1400 
     38 CB          2.3355  -16.1588  -44.4184 C.3       7 UNK        -0.1800 
     39 N           0.4948  -16.6709  -42.8796 N.am      7 UNK        -0.5000 
     40 C          -0.2841  -17.4045  -42.0716 C.2       6 UNK         0.5000 
     41 O          -0.3348  -18.6334  -42.1024 O.2       6 UNK        -0.5000 
     42 CA         -1.1835  -16.6354  -41.0865 C.3       6 UNK         0.1400 
     43 CB         -0.4056  -16.2763  -39.8118 C.3       6 UNK        -0.1800 
     44 N          -1.7506  -15.4177  -41.6667 N.am      6 UNK        -0.5000 
     45 C          -2.6278  -15.3957  -42.6804 C.2       5 UNK         0.5000 
     46 O          -3.0754  -16.4053  -43.2194 O.2       5 UNK        -0.5000 
     47 CA         -3.0351  -14.0119  -43.2156 C.3       5 UNK         0.1400 
     48 CB         -4.2354  -13.4608  -42.4319 C.3       5 UNK        -0.1800 
     49 N          -1.9413  -13.0385  -43.1814 N.am      5 UNK        -0.5000 
     50 C          -0.7967  -13.1604  -43.8655 C.2       4 UNK         0.5000 
     51 O          -0.5219  -14.1293  -44.5785 O.2       4 UNK        -0.5000 
     52 CA          0.2350  -12.0362  -43.6678 C.3       4 UNK         0.1400 
     53 CB          1.3251  -12.4848  -42.6818 C.3       4 UNK        -0.1800 
     54 N           0.8668  -11.6409  -44.9238 N.am      4 UNK        -0.5000 
     55 C           0.2384  -11.0855  -45.9698 C.2       3 UNK         0.5000 
     56 O          -0.9573  -10.7886  -45.9676 O.2       3 UNK        -0.5000 
     57 CA          1.0877  -10.7810  -47.2217 C.3       3 UNK         0.1400 
     58 CB          1.2729   -9.2643  -47.3913 C.3       3 UNK        -0.1800 
     59 N           2.4101  -11.4139  -47.2006 N.am      3 UNK        -0.5000 
     60 C           2.6361  -12.7093  -47.4478 C.2       2 UNK         0.5000 
     61 O           1.7517  -13.5188  -47.7374 O.2       2 UNK        -0.5000 
     62 CA          4.0958  -13.1693  -47.3363 C.3       2 UNK         0.1400 
     63 CB          4.5316  -13.3144  -45.8679 C.3       2 UNK        -0.1800 
     64 N           4.2390  -14.4459  -48.0231 N.am      2 UNK        -0.5000 
     65 C           5.3262  -14.8601  -48.6769 C.2       1 UNK         0.5000 
     66 O           6.3979  -14.2508  -48.6713 O.2       1 UNK        -0.5000 
     67 C          -0.9628  -22.8413  -48.0501 C.2       11 UNK         0.5000 
     68 O          -0.8665  -23.7067  -48.9220 O.2       11 UNK        -0.5000 
     69 N          -2.1429  -22.4402  -47.5543 N.am      12 UNK        -0.5000 
     70 CA         -3.4364  -23.0555  -47.8624 C.3       12 UNK         0.1400 
     71 CB         -4.5759  -22.1155  -47.4462 C.3       12 UNK        -0.1800 
     72 C          -3.5968  -24.4311  -47.1960 C.2       12 UNK         0.5000 
     73 O          -4.0822  -25.3582  -47.8407 O.2       12 UNK        -0.5000 
     74 N          -3.1397  -24.5683  -45.9430 N.am      13 UNK        -0.5000 
     75 CA         -3.0925  -25.8377  -45.2087 C.3       13 UNK         0.1400 
     76 CB         -2.7121  -25.5757  -43.7439 C.3       13 UNK        -0.1800 
     77 C          -2.1381  -26.8633  -45.8532 C.2       13 UNK         0.5000 
     78 O          -2.4148  -28.0623  -45.8157 O.2       13 UNK        -0.5000 
     79 N          -1.0661  -26.3660  -46.4852 N.am      14 UNK        -0.5000 
     80 CA         -0.1486  -27.1309  -47.3327 C.3       14 UNK         0.1400 
     81 CB          1.1656  -26.3439  -47.4652 C.3       14 UNK        -0.1800 
     82 C          -0.7259  -27.4624  -48.7289 C.2       14 UNK         0.5000 
     83 O          -0.0700  -28.1745  -49.4893 O.2       14 UNK        -0.5000 
     84 N          -1.9163  -26.9303  -49.0512 N.am      15 UNK        -0.5000 
     85 CA         -2.6733  -27.0528  -50.3043 C.3       15 UNK         0.1400 
     86 CB         -2.9962  -28.5268  -50.6237 C.3       15 UNK        -0.1800 
     87 C          -2.0439  -26.3175  -51.5048 C.2       15 UNK         0.5000 
     88 O          -2.5434  -26.4505  -52.6227 O.2       15 UNK        -0.5000 
     89 N          -0.9877  -25.5308  -51.2673 N.am      16 UNK        -0.5000 
     90 CA         -0.2519  -24.7948  -52.2919 C.3       16 UNK         0.1400 
     91 CB          1.1705  -24.5261  -51.7850 C.3       16 UNK        -0.1800 
     92 C          -0.9628  -23.4927  -52.7004 C.2       16 UNK         0.5000 
     93 O          -0.9076  -23.1204  -53.8723 O.2       16 UNK        -0.5000 
     94 N          -1.6483  -22.8452  -51.7459 N.am      17 UNK        -0.5000 
     95 CA         -2.4835  -21.6614  -51.9915 C.3       17 UNK         0.1400 
     96 CB         -2.4556  -20.7356  -50.7640 C.3       17 UNK        -0.1800 
     97 C          -3.9409  -22.0235  -52.3312 C.2       17 UNK         0.5000 
     98 O          -4.7642  -21.1145  -52.4434 O.2       17 UNK        -0.5000 
     99 N          -4.2531  -23.3253  -52.4328 N.am      18 UNK        -0.5000 
    100 CA        -5.5955  -23.8954  -52.5789 C.3       18 UNK         0.1400 
    101 CB        -6.1646  -23.5890  -53.9828 C.3       18 UNK        -0.1800 
    102 C         -6.5016  -23.4509  -51.4102 C.2       18 UNK         0.5000 
    103 O         -6.0965  -23.5895  -50.2552 O.2       18 UNK        -0.5000 
    104 N         -7.6711  -22.8731  -51.7085 N.am      19 UNK        -0.5000 
    105 CA        -8.6047  -22.2924  -50.7399 C.3       19 UNK         0.1400 
    106 CB       -10.0239  -22.3499  -51.3343 C.3       19 UNK        -0.1800 
    107 C         -8.1942  -20.8634  -50.3103 C.2       19 UNK         0.5000 
    108 O         -9.0390  -19.9670  -50.2785 O.2       19 UNK        -0.5000 
    109 N         -6.9024  -20.6812  -49.9965 N.am      20 UNK        -0.5000 
    110 CA        -6.2410  -19.4372  -49.5868 C.3       20 UNK         0.1400 
    111 CB        -6.7016  -19.0147  -48.1761 C.3       20 UNK        -0.1800 
    112 C         -6.3865  -18.3134  -50.6327 C.2       20 UNK         0.5000 
    113 O         -6.8681  -17.2228  -50.3175 O.2       20 UNK        -0.5000 
    114 N         -5.9545  -18.6056  -51.8679 N.am      21 UNK        -0.5000 
    115 CA        -6.0442  -17.7323  -53.0445 C.3       21 UNK         0.1400 
    116 CB        -5.4754  -18.4794  -54.2606 C.3       21 UNK        -0.1800 
    117 C         -5.3643  -16.3546  -52.8943 C.2       21 UNK         0.5000 
    118 O         -5.7551  -15.4131  -53.5860 O.2       21 UNK        -0.5000 
    119 N         -4.3840  -16.2522  -51.9877 N.am      22 UNK        -0.5000 
    120 CA        -3.7412  -14.9907  -51.5831 C.3       22 UNK         0.1400 
    121 C         -4.6486  -14.0502  -50.7329 C.2       22 UNK         0.5000 
    122 N         -5.7837  -14.4989  -50.2077 N.am      22 UNK        -0.7600 
    123 O         -4.3156  -12.8825  -50.5503 O.2       22 UNK        -0.5000 
    124 C124       -2.3939  -15.2331  -50.8559 C.3       23 UNK        -0.0398 
    125 S125       -1.2139  -16.2095  -51.8429 S.3       23 UNK        -0.2404 
    126 C126        0.2135  -16.2176  -50.7162 C.3       23 UNK        -0.0205 
    127 H127        3.7903  -19.8296  -47.5044 H         1 UNK         0.0600 
    128 H128        3.6582  -18.8233  -46.0604 H         1 UNK         0.0600 
    129 H129        5.2441  -19.1572  -46.7597 H         1 UNK         0.0600 
    130 H130        5.9968  -17.8450  -48.4658 H         1 UNK         0.3000 
    131 H131        4.2240  -16.1094  -49.9757 H         1 UNK         0.0600 
    132 H132        6.2484  -15.4547  -51.2322 H         1 UNK         0.0800 
    133 H133        7.2619  -16.3228  -50.1124 H         1 UNK         0.0800 
    134 H134        4.8728  -17.9814  -53.6227 H         1 UNK         0.0800 
    135 H135        4.7522  -16.3765  -52.9491 H         1 UNK         0.0800 
    136 H136        2.6481  -15.8265  -51.9149 H         1 UNK         0.1150 
    137 H137        0.0444  -18.8928  -50.4620 H         1 UNK         0.1150 
    138 H138        3.8548  -19.9361  -52.1269 H         1 UNK         0.1150 
    139 H139        2.1200  -21.6376  -51.8364 H         1 UNK         0.0800 
    140 H140        0.5593  -21.2609  -51.1723 H         1 UNK         0.0800 
    141 H141        0.1193  -20.5150  -48.8328 H         1 UNK         0.0800 
    142 H142        1.3776  -20.3103  -47.6702 H         1 UNK         0.0800 
    143 H143        1.0598  -23.0123  -47.4211 H         1 UNK         0.0600 
    144 H144        0.1131  -20.8019  -45.8658 H         1 UNK         0.3000 
    145 H145       -0.6516  -22.8280  -43.0051 H         1 UNK         0.0600 
    146 H146        1.7968  -22.3251  -42.9531 H         1 UNK         0.0600 
    147 H147        0.8803  -21.1742  -41.9930 H         1 UNK         0.0600 
    148 H148        1.4885  -20.7105  -43.5802 H         1 UNK         0.0600 
    149 H149       -0.9128  -20.0305  -43.4419 H         1 UNK         0.3000 
    150 H150       -4.2522  -20.1358  -44.8038 H         1 UNK         0.0600 
    151 H151       -3.1418  -19.1465  -42.1278 H         1 UNK         0.0600 
    152 H152       -4.4631  -20.2933  -42.3151 H         1 UNK         0.0600 
    153 H153       -4.6528  -18.6428  -42.8842 H         1 UNK         0.0600 
    154 H154       -2.6088  -17.9139  -44.2303 H         1 UNK         0.3000 
    155 H155       -0.9232  -17.7559  -47.4164 H         1 UNK         0.0600 
    156 H156       -1.8676  -15.4759  -47.2511 H         1 UNK         0.0600 
    157 H157       -2.9737  -15.9886  -45.9789 H         1 UNK         0.0600 
    158 H158       -3.1487  -16.6274  -47.6080 H         1 UNK         0.0600 
    159 H159       -0.6209  -16.1293  -45.1190 H         1 UNK         0.3000 
    160 H160        1.9352  -18.0459  -43.4871 H         1 UNK         0.0600 
    161 H161        1.8213  -15.3273  -44.9009 H         1 UNK         0.0600 
    162 H162        3.0300  -16.5750  -45.1479 H         1 UNK         0.0600 
    163 H163        2.9300  -15.7579  -43.5975 H         1 UNK         0.0600 
    164 H164        0.4305  -15.6649  -42.8354 H         1 UNK         0.3000 
    165 H165       -2.0097  -17.2929  -40.8079 H         1 UNK         0.0600 
    166 H166       -1.0541  -15.8031  -39.0742 H         1 UNK         0.0600 
    167 H167        0.0151  -17.1693  -39.3474 H         1 UNK         0.0600 
    168 H168        0.4200  -15.5947  -40.0205 H         1 UNK         0.0600 
    169 H169       -1.4373  -14.5386  -41.2829 H         1 UNK         0.3000 
    170 H170       -3.3364  -14.1374  -44.2577 H         1 UNK         0.0600 
    171 H171       -4.5864  -12.5205  -42.8575 H         1 UNK         0.0600 
    172 H172       -3.9875  -13.2846  -41.3844 H         1 UNK         0.0600 
    173 H173       -5.0723  -14.1600  -42.4581 H         1 UNK         0.0600 
    174 H174       -2.0889  -12.2174  -42.6124 H         1 UNK         0.3000 
    175 H175       -0.2683  -11.1590  -43.2557 H         1 UNK         0.0600 
    176 H176        0.8926  -12.7755  -41.7235 H         1 UNK         0.0600 
    177 H177        1.8860  -13.3395  -43.0621 H         1 UNK         0.0600 
    178 H178        2.0342  -11.6804  -42.4852 H         1 UNK         0.0600 
    179 H179        1.8432  -11.8675  -45.0278 H         1 UNK         0.3000 
    180 H180        0.5355  -11.1548  -48.0867 H         1 UNK         0.0600 
    181 H181        1.8207   -8.8295  -46.5542 H         1 UNK         0.0600 
    182 H182        0.3096   -8.7560  -47.4522 H         1 UNK         0.0600 
    183 H183        1.8176   -9.0329  -48.3068 H         1 UNK         0.0600 
    184 H184        3.1893  -10.8125  -46.9725 H         1 UNK         0.3000 
    185 H185        4.7204  -12.4196  -47.8272 H         1 UNK         0.0600 
    186 H186        4.4556  -12.3651  -45.3368 H         1 UNK         0.0600 
    187 H187        3.9163  -14.0388  -45.3364 H         1 UNK         0.0600 
    188 H188        5.5688  -13.6422  -45.7954 H         1 UNK         0.0600 
    189 H189        3.3948  -15.0114  -48.0579 H         1 UNK         0.3000 
    190 H190       -2.1588  -21.6512  -46.9165 H         1 UNK         0.3000 
    191 H191       -3.4989  -23.2051  -48.9422 H         1 UNK         0.0600 
    192 H192       -4.4486  -21.1278  -47.8841 H         1 UNK         0.0600 
    193 H193       -5.5403  -22.5013  -47.7780 H         1 UNK         0.0600 
    194 H194       -4.6302  -21.9936  -46.3655 H         1 UNK         0.0600 
    195 H195       -2.8281  -23.7402  -45.4421 H         1 UNK         0.3000 
    196 H196       -4.0962  -26.2674  -45.2252 H         1 UNK         0.0600 
    197 H197       -2.7174  -26.5020  -43.1683 H         1 UNK         0.0600 
    198 H198       -3.4178  -24.8936  -43.2695 H         1 UNK         0.0600 
    199 H199       -1.7168  -25.1412  -43.6554 H         1 UNK         0.0600 
    200 H200       -0.8760  -25.3753  -46.3896 H         1 UNK         0.3000 
    201 H201        0.0704  -28.0788  -46.8372 H         1 UNK         0.0600 
    202 H202        1.9151  -26.9214  -48.0077 H         1 UNK         0.0600 
    203 H203        1.5852  -26.1059  -46.4874 H         1 UNK         0.0600 
    204 H204        1.0226  -25.4082  -48.0051 H         1 UNK         0.0600 
    205 H205       -2.3780  -26.3593  -48.3526 H         1 UNK         0.3000 
    206 H206       -3.6245  -26.5503  -50.1271 H         1 UNK         0.0600 
    207 H207       -3.4490  -29.0256  -49.7668 H         1 UNK         0.0600 
    208 H208       -3.7030  -28.6014  -51.4508 H         1 UNK         0.0600 
    209 H209       -2.1056  -29.0872  -50.9084 H         1 UNK         0.0600 
    210 H210       -0.6908  -25.3954  -50.3089 H         1 UNK         0.3000 
    211 H211       -0.1733  -25.4197  -53.1844 H         1 UNK         0.0600 
    212 H212        1.1614  -23.9716  -50.8477 H         1 UNK         0.0600 
    213 H213        1.7463  -23.9525  -52.5119 H         1 UNK         0.0600 
    214 H214        1.7061  -25.4594  -51.6105 H         1 UNK         0.0600 
    215 H215       -1.6140  -23.2063  -50.7985 H         1 UNK         0.3000 
    216 H216       -2.0804  -21.1007  -52.8373 H         1 UNK         0.0600 
    217 H217       -2.8847  -19.7614  -51.0017 H         1 UNK         0.0600 
    218 H218       -1.4438  -20.5610  -50.4173 H         1 UNK         0.0600 
    219 H219       -3.0255  -21.1432  -49.9319 H         1 UNK         0.0600 
    220 H220       -3.5061  -23.9939  -52.3156 H         1 UNK         0.3000 
    221 H221       -5.4868  -24.9772  -52.4898 H         1 UNK         0.0600 
    222 H222       -6.3219  -22.5217  -54.1427 H         1 UNK         0.0600 
    223 H223       -5.4844  -23.9388  -54.7596 H         1 UNK         0.0600 
    224 H224       -7.1165  -24.0966  -54.1430 H         1 UNK         0.0600 
    225 H225       -7.9048  -22.7454  -52.6824 H         1 UNK         0.3000 
    226 H226       -8.6029  -22.9056  -49.8362 H         1 UNK         0.0600 
    227 H227      -10.3000  -23.3713  -51.5974 H         1 UNK         0.0600 
    228 H228      -10.1088  -21.7372  -52.2326 H         1 UNK         0.0600 
    229 H229      -10.7650  -21.9914  -50.6188 H         1 UNK         0.0600 
    230 H230       -6.3030  -21.4942  -50.0760 H         1 UNK         0.3000 
    231 H231       -5.1745  -19.6569  -49.5325 H         1 UNK         0.0600 
    232 H232       -7.7566  -18.7395  -48.1595 H         1 UNK         0.0600 
    233 H233       -6.1328  -18.1538  -47.8225 H         1 UNK         0.0600 
    234 H234       -6.5554  -19.8175  -47.4539 H         1 UNK         0.0600 
    235 H235       -5.5730  -19.5350  -52.0403 H         1 UNK         0.3000 
    236 H236       -7.1047  -17.5465  -53.2248 H         1 UNK         0.0600 
    237 H237       -4.4226  -18.7279  -54.1200 H         1 UNK         0.0600 
    238 H238       -6.0166  -19.4085  -54.4414 H         1 UNK         0.0600 
    239 H239       -5.5542  -17.8761  -55.1659 H         1 UNK         0.0600 
    240 H240       -4.1125  -17.0789  -51.4786 H         1 UNK         0.3000 
    241 H241       -3.5183  -14.4377  -52.4976 H         1 UNK         0.0600 
    242 H242       -6.3558  -13.8706  -49.6668 H         1 UNK         0.3800 
    243 H243       -6.0898  -15.4588  -50.3409 H         1 UNK         0.3800 
    244 H244       -2.5632  -15.7483  -49.9093 H         1 UNK         0.0800 
    245 H245       -1.9168  -14.2825  -50.6092 H         1 UNK         0.0800 
    246 H246        0.6581  -15.2216  -50.6835 H         1 UNK         0.0800 
    247 H247       -0.1166  -16.4411  -49.7002 H         1 UNK         0.0800 
@<TRIPOS>BOND
     1    1    2 1    
     2    1  127 1    
     3    1  128 1    
     4    1  129 1    
     5    2    3 2    
     6    2    4 am   BACKBONE|DICT|INTERRES
     7    4    5 1    
     8    4  130 1    
     9    5    6 1    
    10    5   65 1    
    11    5  131 1    
    12    6    7 1    
    13    6  132 1    
    14    6  133 1    
    15    7    8 1    
    16    8    9 1    
    17    8  134 1    
    18    8  135 1    
    19    9   10 ar   
    20    9   14 ar   
    21   10   11 ar   
    22   10  136 1    
    23   11   12 ar   
    24   11  126 1    
    25   12   13 ar   
    26   12  137 1    
    27   13   14 ar   
    28   13   15 1    
    29   14  138 1    
    30   15   16 1    
    31   15  139 1    
    32   15  140 1    
    33   16   17 1    
    34   17   18 1    
    35   17  141 1    
    36   17  142 1    
    37   18   19 1    
    38   18   67 1    
    39   18  143 1    
    40   19   20 am   BACKBONE|DICT|INTERRES
    41   19  144 1    
    42   20   21 2    
    43   20   22 1    
    44   22   23 1    
    45   22   24 1    
    46   22  145 1    
    47   23  146 1    
    48   23  147 1    
    49   23  148 1    
    50   24   25 am   BACKBONE|DICT|INTERRES
    51   24  149 1    
    52   25   26 2    
    53   25   27 1    
    54   27   28 1    
    55   27   29 1    
    56   27  150 1    
    57   28  151 1    
    58   28  152 1    
    59   28  153 1    
    60   29   30 am   BACKBONE|DICT|INTERRES
    61   29  154 1    
    62   30   31 2    
    63   30   32 1    
    64   32   33 1    
    65   32   34 1    
    66   32  155 1    
    67   33  156 1    
    68   33  157 1    
    69   33  158 1    
    70   34   35 am   BACKBONE|DICT|INTERRES
    71   34  159 1    
    72   35   36 2    
    73   35   37 1    
    74   37   38 1    
    75   37   39 1    
    76   37  160 1    
    77   38  161 1    
    78   38  162 1    
    79   38  163 1    
    80   39   40 am   BACKBONE|DICT|INTERRES
    81   39  164 1    
    82   40   41 2    
    83   40   42 1    
    84   42   43 1    
    85   42   44 1    
    86   42  165 1    
    87   43  166 1    
    88   43  167 1    
    89   43  168 1    
    90   44   45 am   BACKBONE|DICT|INTERRES
    91   44  169 1    
    92   45   46 2    
    93   45   47 1    
    94   47   48 1    
    95   47   49 1    
    96   47  170 1    
    97   48  171 1    
    98   48  172 1    
    99   48  173 1    
   100   49   50 am   BACKBONE|DICT|INTERRES
   101   49  174 1    
   102   50   51 2    
   103   50   52 1    
   104   52   53 1    
   105   52   54 1    
   106   52  175 1    
   107   53  176 1    
   108   53  177 1    
   109   53  178 1    
   110   54   55 am   BACKBONE|DICT|INTERRES
   111   54  179 1    
   112   55   56 2    
   113   55   57 1    
   114   57   58 1    
   115   57   59 1    
   116   57  180 1    
   117   58  181 1    
   118   58  182 1    
   119   58  183 1    
   120   59   60 am   BACKBONE|DICT|INTERRES
   121   59  184 1    
   122   60   61 2    
   123   60   62 1    
   124   62   63 1    
   125   62   64 1    
   126   62  185 1    
   127   63  186 1    
   128   63  187 1    
   129   63  188 1    
   130   64   65 am   BACKBONE|DICT|INTERRES
   131   64  189 1    
   132   65   66 2    
   133   67   68 2    
   134   67   69 am   BACKBONE|DICT|INTERRES
   135   69   70 1    
   136   69  190 1    
   137   70   71 1    
   138   70   72 1    
   139   70  191 1    
   140   71  192 1    
   141   71  193 1    
   142   71  194 1    
   143   72   73 2    
   144   72   74 am   BACKBONE|DICT|INTERRES
   145   74   75 1    
   146   74  195 1    
   147   75   76 1    
   148   75   77 1    
   149   75  196 1    
   150   76  197 1    
   151   76  198 1    
   152   76  199 1    
   153   77   78 2    
   154   77   79 am   BACKBONE|DICT|INTERRES
   155   79   80 1    
   156   79  200 1    
   157   80   81 1    
   158   80   82 1    
   159   80  201 1    
   160   81  202 1    
   161   81  203 1    
   162   81  204 1    
   163   82   83 2    
   164   82   84 am   BACKBONE|DICT|INTERRES
   165   84   85 1    
   166   84  205 1    
   167   85   86 1    
   168   85   87 1    
   169   85  206 1    
   170   86  207 1    
   171   86  208 1    
   172   86  209 1    
   173   87   88 2    
   174   87   89 am   BACKBONE|DICT|INTERRES
   175   89   90 1    
   176   89  210 1    
   177   90   91 1    
   178   90   92 1    
   179   90  211 1    
   180   91  212 1    
   181   91  213 1    
   182   91  214 1    
   183   92   93 2    
   184   92   94 am   BACKBONE|DICT|INTERRES
   185   94   95 1    
   186   94  215 1    
   187   95   96 1    
   188   95   97 1    
   189   95  216 1    
   190   96  217 1    
   191   96  218 1    
   192   96  219 1    
   193   97   98 2    
   194   97   99 am   BACKBONE|DICT|INTERRES
   195   99  100 1    
   196   99  220 1    
   197  100  101 1    
   198  100  102 1    
   199  100  221 1    
   200  101  222 1    
   201  101  223 1    
   202  101  224 1    
   203  102  103 2    
   204  102  104 am   BACKBONE|DICT|INTERRES
   205  104  105 1    
   206  104  225 1    
   207  105  106 1    
   208  105  107 1    
   209  105  226 1    
   210  106  227 1    
   211  106  228 1    
   212  106  229 1    
   213  107  108 2    
   214  107  109 am   BACKBONE|DICT|INTERRES
   215  109  110 1    
   216  109  230 1    
   217  110  111 1    
   218  110  112 1    
   219  110  231 1    
   220  111  232 1    
   221  111  233 1    
   222  111  234 1    
   223  112  113 2    
   224  112  114 am   BACKBONE|DICT|INTERRES
   225  114  115 1    
   226  114  235 1    
   227  115  116 1    
   228  115  117 1    
   229  115  236 1    
   230  116  237 1    
   231  116  238 1    
   232  116  239 1    
   233  117  118 2    
   234  117  119 am   BACKBONE|DICT|INTERRES
   235  119  120 1    
   236  119  240 1    
   237  120  121 1    
   238  120  124 1    
   239  120  241 1    
   240  121  122 am   BACKBONE|DICT|INTERRES
   241  121  123 2    
   242  122  242 1    
   243  122  243 1    
   244  124  125 1    
   245  124  244 1    
   246  124  245 1    
   247  125  126 1    
   248  126  246 1    
   249  126  247 1    
@<TRIPOS>SUBSTRUCTURE
     1 UNK         1 GROUP             0       ****    0 ROOT    
