@<TRIPOS>MOLECULE
3R540
247   249    1
SMALL
USER_CHARGES


@<TRIPOS>ATOM
      1 CA          5.1762  -12.5003  -52.3456 C.3       0 UNK        -0.1800 
      2 C           4.5624  -13.0061  -51.0477 C.2       0 UNK         0.5000 
      3 O           3.7349  -13.9150  -51.0854 O.2       0 UNK        -0.5000 
      4 N           4.9574  -12.4000  -49.9166 N.am      1 UNK        -0.5000 
      5 CA          4.5810  -12.7014  -48.5220 C.3       1 UNK         0.1400 
      6 C6          5.3857  -13.8619  -47.8583 C.3       23 UNK        -0.0398 
      7 S7          5.4141  -15.4616  -48.7366 S.3       23 UNK        -0.2404 
      8 C8          3.9400  -16.2863  -48.0658 C.3       23 UNK        -0.0205 
      9 C9          3.6933  -17.5994  -48.7875 C.ar      23 UNK        -0.0193 
     10 C10         2.9804  -17.6121  -49.9895 C.ar      23 UNK        -0.1150 
     11 C11         2.7444  -18.8144  -50.6628 C.ar      23 UNK        -0.0193 
     12 C12         3.2590  -20.0029  -50.1411 C.ar      23 UNK        -0.1150 
     13 C13         3.9687  -20.0053  -48.9357 C.ar      23 UNK        -0.0193 
     14 C14         4.1801  -18.7987  -48.2619 C.ar      23 UNK        -0.1150 
     15 C15         4.5031  -21.3076  -48.3526 C.3       23 UNK        -0.0205 
     16 S16         3.2391  -22.6174  -48.2610 S.3       23 UNK        -0.2404 
     17 C17         1.9254  -21.7729  -47.3177 C.3       23 UNK        -0.0398 
     18 CA          0.7930  -22.7368  -46.9048 C.3       11 UNK         0.1400 
     19 N           0.0212  -22.2191  -45.7769 N.am      11 UNK        -0.5000 
     20 C          -0.8429  -22.9448  -45.0557 C.2       10 UNK         0.5000 
     21 O          -1.0493  -24.1445  -45.2409 O.2       10 UNK        -0.5000 
     22 CA         -1.6466  -22.1904  -43.9815 C.3       10 UNK         0.1400 
     23 CB         -0.8083  -21.9903  -42.7104 C.3       10 UNK        -0.1800 
     24 N          -2.1435  -20.8979  -44.4589 N.am      10 UNK        -0.5000 
     25 C          -3.0109  -20.7577  -45.4721 C.2       9 UNK         0.5000 
     26 O          -3.5106  -21.7070  -46.0750 O.2       9 UNK        -0.5000 
     27 CA         -3.3461  -19.3248  -45.9184 C.3       9 UNK         0.1400 
     28 CB         -4.4031  -18.6989  -44.9975 C.3       9 UNK        -0.1800 
     29 N          -2.1711  -18.4547  -45.9940 N.am      9 UNK        -0.5000 
     30 C          -1.1450  -18.6337  -46.8388 C.2       8 UNK         0.5000 
     31 O          -1.0958  -19.5430  -47.6645 O.2       8 UNK        -0.5000 
     32 CA          0.0541  -17.6760  -46.7040 C.3       8 UNK         0.1400 
     33 CB         -0.2531  -16.2969  -47.3093 C.3       8 UNK        -0.1800 
     34 N           0.4723  -17.5101  -45.3144 N.am      8 UNK        -0.5000 
     35 C           0.8979  -18.4983  -44.5158 C.2       7 UNK         0.5000 
     36 O           1.0369  -19.6661  -44.8779 O.2       7 UNK        -0.5000 
     37 CA          1.1591  -18.1238  -43.0488 C.3       7 UNK         0.1400 
     38 CB          2.5370  -17.4637  -42.8881 C.3       7 UNK        -0.1800 
     39 N           0.1191  -17.2376  -42.5253 N.am      7 UNK        -0.5000 
     40 C          -1.1442  -17.6161  -42.2843 C.2       6 UNK         0.5000 
     41 O          -1.5593  -18.7629  -42.4519 O.2       6 UNK        -0.5000 
     42 CA         -2.1149  -16.5180  -41.8127 C.3       6 UNK         0.1400 
     43 CB         -1.9431  -16.2469  -40.3106 C.3       6 UNK        -0.1800 
     44 N          -1.9547  -15.2672  -42.5560 N.am      6 UNK        -0.5000 
     45 C          -2.2444  -15.1246  -43.8566 C.2       5 UNK         0.5000 
     46 O          -2.6946  -16.0278  -44.5587 O.2       5 UNK        -0.5000 
     47 CA         -1.9463  -13.7572  -44.4946 C.3       5 UNK         0.1400 
     48 CB         -3.1279  -12.7972  -44.2941 C.3       5 UNK        -0.1800 
     49 N          -0.7188  -13.1166  -44.0192 N.am      5 UNK        -0.5000 
     50 C           0.5106  -13.6482  -44.0547 C.2       4 UNK         0.5000 
     51 O           0.7429  -14.8189  -44.3584 O.2       4 UNK        -0.5000 
     52 CA          1.6645  -12.6781  -43.7448 C.3       4 UNK         0.1400 
     53 CB          3.0375  -13.3737  -43.7055 C.3       4 UNK        -0.1800 
     54 N           1.6839  -11.6323  -44.7660 N.am      4 UNK        -0.5000 
     55 C           0.9852  -10.4889  -44.7091 C.2       3 UNK         0.5000 
     56 O           0.3252  -10.1484  -43.7266 O.2       3 UNK        -0.5000 
     57 CA          0.9782   -9.5981  -45.9677 C.3       3 UNK         0.1400 
     58 CB          2.0635   -8.5158  -45.8662 C.3       3 UNK        -0.1800 
     59 N           1.1705  -10.3515  -47.2076 N.am      3 UNK        -0.5000 
     60 C           0.3059  -11.2426  -47.7160 C.2       2 UNK         0.5000 
     61 O          -0.8091  -11.4604  -47.2417 O.2       2 UNK        -0.5000 
     62 CA          0.7792  -12.0437  -48.9469 C.3       2 UNK         0.1400 
     63 CB          0.1920  -11.4499  -50.2360 C.3       2 UNK        -0.1800 
     64 N           2.2387  -12.1214  -49.0809 N.am      2 UNK        -0.5000 
     65 C           3.0631  -12.7277  -48.2142 C.2       1 UNK         0.5000 
     66 O           2.6650  -13.2294  -47.1630 O.2       1 UNK        -0.5000 
     67 C          -0.1147  -23.1201  -48.0933 C.2       11 UNK         0.5000 
     68 O           0.0692  -24.1949  -48.6619 O.2       11 UNK        -0.5000 
     69 N          -1.1120  -22.2811  -48.4139 N.am      12 UNK        -0.5000 
     70 CA         -2.1222  -22.5549  -49.4390 C.3       12 UNK         0.1400 
     71 CB         -3.0204  -21.3253  -49.6433 C.3       12 UNK        -0.1800 
     72 C          -2.9681  -23.8014  -49.1237 C.2       12 UNK         0.5000 
     73 O          -3.2467  -24.5869  -50.0299 O.2       12 UNK        -0.5000 
     74 N          -3.3356  -23.9865  -47.8488 N.am      13 UNK        -0.5000 
     75 CA         -4.0142  -25.1824  -47.3504 C.3       13 UNK         0.1400 
     76 CB         -4.4887  -24.9525  -45.9085 C.3       13 UNK        -0.1800 
     77 C          -3.1409  -26.4448  -47.4613 C.2       13 UNK         0.5000 
     78 O          -3.6257  -27.4687  -47.9428 O.2       13 UNK        -0.5000 
     79 N          -1.8628  -26.3406  -47.0686 N.am      14 UNK        -0.5000 
     80 CA         -0.8686  -27.4134  -47.1780 C.3       14 UNK         0.1400 
     81 CB          0.4179  -26.9977  -46.4486 C.3       14 UNK        -0.1800 
     82 C          -0.5663  -27.8156  -48.6359 C.2       14 UNK         0.5000 
     83 O          -0.3996  -29.0023  -48.9190 O.2       14 UNK        -0.5000 
     84 N          -0.5401  -26.8256  -49.5375 N.am      15 UNK        -0.5000 
     85 CA         -0.3760  -26.9920  -50.9835 C.3       15 UNK         0.1400 
     86 CB          0.0510  -25.6432  -51.5857 C.3       15 UNK        -0.1800 
     87 C          -1.6389  -27.5182  -51.6982 C.2       15 UNK         0.5000 
     88 O          -1.5616  -27.8372  -52.8852 O.2       15 UNK        -0.5000 
     89 N          -2.7723  -27.5780  -50.9825 N.am      16 UNK        -0.5000 
     90 CA         -4.1086  -27.9707  -51.4438 C.3       16 UNK         0.1400 
     91 CB         -4.1262  -29.4294  -51.9466 C.3       16 UNK        -0.1800 
     92 C          -4.7386  -26.9777  -52.4454 C.2       16 UNK         0.5000 
     93 O          -5.6596  -27.3458  -53.1766 O.2       16 UNK        -0.5000 
     94 N          -4.2648  -25.7247  -52.4332 N.am      17 UNK        -0.5000 
     95 CA         -4.8844  -24.5904  -53.1198 C.3       17 UNK         0.1400 
     96 CB         -3.8263  -23.5001  -53.3476 C.3       17 UNK        -0.1800 
     97 C          -6.0771  -24.0411  -52.3119 C.2       17 UNK         0.5000 
     98 O          -7.0502  -23.5772  -52.9073 O.2       17 UNK        -0.5000 
     99 N          -5.9812  -24.1579  -50.9778 N.am      18 UNK        -0.5000 
    100 CA        -6.9752  -23.8163  -49.9577 C.3       18 UNK         0.1400 
    101 CB        -8.2553  -24.6590  -50.1501 C.3       18 UNK        -0.1800 
    102 C         -7.2652  -22.3056  -49.8428 C.2       18 UNK         0.5000 
    103 O         -6.6002  -21.4843  -50.4820 O.2       18 UNK        -0.5000 
    104 N         -8.2392  -21.9764  -48.9790 N.am      19 UNK        -0.5000 
    105 CA        -8.7093  -20.6323  -48.6325 C.3       19 UNK         0.1400 
    106 CB        -9.5350  -20.0463  -49.8013 C.3       19 UNK        -0.1800 
    107 C         -7.5440  -19.7367  -48.1636 C.2       19 UNK         0.5000 
    108 O         -6.9242  -20.0374  -47.1427 O.2       19 UNK        -0.5000 
    109 N         -7.2451  -18.6914  -48.9373 N.am      20 UNK        -0.5000 
    110 CA        -6.0572  -17.8603  -48.8125 C.3       20 UNK         0.1400 
    111 CB        -6.3658  -16.6164  -47.9590 C.3       20 UNK        -0.1800 
    112 C         -5.5558  -17.5355  -50.2268 C.2       20 UNK         0.5000 
    113 O         -5.3331  -16.3683  -50.5496 O.2       20 UNK        -0.5000 
    114 N         -5.4100  -18.5782  -51.0614 N.am      21 UNK        -0.5000 
    115 CA        -5.0185  -18.4912  -52.4759 C.3       21 UNK         0.1400 
    116 CB        -4.9922  -19.9054  -53.0744 C.3       21 UNK        -0.1800 
    117 C         -3.6744  -17.7768  -52.7332 C.2       21 UNK         0.5000 
    118 O         -3.5047  -17.1617  -53.7866 O.2       21 UNK        -0.5000 
    119 N         -2.7639  -17.8500  -51.7564 N.am      22 UNK        -0.5000 
    120 CA        -1.4961  -17.1066  -51.7190 C.3       22 UNK         0.1400 
    121 C         -1.6335  -15.6113  -51.2953 C.2       22 UNK         0.5000 
    122 N         -2.7998  -15.1145  -50.9020 N.am      22 UNK        -0.7600 
    123 O         -0.6523  -14.8755  -51.3334 O.2       22 UNK        -0.5000 
    124 C124       -0.4576  -17.8415  -50.8371 C.3       23 UNK        -0.0398 
    125 S125        0.2029  -19.3413  -51.6368 S.3       23 UNK        -0.2404 
    126 C126        1.9291  -18.8416  -51.9479 C.3       23 UNK        -0.0205 
    127 H127        4.3951  -12.1377  -53.0139 H         1 UNK         0.0600 
    128 H128        5.8811  -11.6866  -52.1732 H         1 UNK         0.0600 
    129 H129        5.7073  -13.3089  -52.8477 H         1 UNK         0.0600 
    130 H130        5.6273  -11.6484  -50.0045 H         1 UNK         0.3000 
    131 H131        4.9015  -11.8061  -47.9869 H         1 UNK         0.0600 
    132 H132        5.0721  -14.0262  -46.8259 H         1 UNK         0.0800 
    133 H133        6.4268  -13.5468  -47.7798 H         1 UNK         0.0800 
    134 H134        4.0613  -16.4503  -46.9939 H         1 UNK         0.0800 
    135 H135        3.0677  -15.6440  -48.1861 H         1 UNK         0.0800 
    136 H136        2.6119  -16.6806  -50.3970 H         1 UNK         0.1150 
    137 H137        3.0834  -20.9334  -50.6627 H         1 UNK         0.1150 
    138 H138        4.7304  -18.7891  -47.3316 H         1 UNK         0.1150 
    139 H139        5.3312  -21.6571  -48.9703 H         1 UNK         0.0800 
    140 H140        4.9090  -21.1462  -47.3527 H         1 UNK         0.0800 
    141 H141        1.5328  -20.9280  -47.8870 H         1 UNK         0.0800 
    142 H142        2.3943  -21.3487  -46.4291 H         1 UNK         0.0800 
    143 H143        1.2607  -23.6582  -46.5506 H         1 UNK         0.0600 
    144 H144        0.1663  -21.2419  -45.5362 H         1 UNK         0.3000 
    145 H145       -2.5115  -22.8049  -43.7235 H         1 UNK         0.0600 
    146 H146       -1.4006  -21.5359  -41.9161 H         1 UNK         0.0600 
    147 H147       -0.4360  -22.9437  -42.3338 H         1 UNK         0.0600 
    148 H148        0.0543  -21.3489  -42.8925 H         1 UNK         0.0600 
    149 H149       -1.8038  -20.0712  -43.9779 H         1 UNK         0.3000 
    150 H150       -3.7697  -19.3934  -46.9203 H         1 UNK         0.0600 
    151 H151       -5.2855  -19.3360  -44.9258 H         1 UNK         0.0600 
    152 H152       -4.7326  -17.7323  -45.3784 H         1 UNK         0.0600 
    153 H153       -4.0199  -18.5495  -43.9875 H         1 UNK         0.0600 
    154 H154       -2.1639  -17.6539  -45.3673 H         1 UNK         0.3000 
    155 H155        0.8924  -18.1106  -47.2532 H         1 UNK         0.0600 
    156 H156       -1.0860  -15.8123  -46.8019 H         1 UNK         0.0600 
    157 H157       -0.5172  -16.3732  -48.3625 H         1 UNK         0.0600 
    158 H158        0.6100  -15.6337  -47.2394 H         1 UNK         0.0600 
    159 H159        0.4316  -16.5668  -44.9347 H         1 UNK         0.3000 
    160 H160        1.1526  -19.0436  -42.4601 H         1 UNK         0.0600 
    161 H161        3.3289  -18.1336  -43.2252 H         1 UNK         0.0600 
    162 H162        2.7392  -17.2195  -41.8452 H         1 UNK         0.0600 
    163 H163        2.6179  -16.5456  -43.4703 H         1 UNK         0.0600 
    164 H164        0.3578  -16.2602  -42.4406 H         1 UNK         0.3000 
    165 H165       -3.1315  -16.8818  -41.9777 H         1 UNK         0.0600 
    166 H166       -2.6830  -15.5309  -39.9525 H         1 UNK         0.0600 
    167 H167       -2.0721  -17.1627  -39.7322 H         1 UNK         0.0600 
    168 H168       -0.9532  -15.8503  -40.0814 H         1 UNK         0.0600 
    169 H169       -1.5795  -14.4756  -42.0548 H         1 UNK         0.3000 
    170 H170       -1.8252  -13.9172  -45.5674 H         1 UNK         0.0600 
    171 H171       -4.0565  -13.2384  -44.6588 H         1 UNK         0.0600 
    172 H172       -3.2716  -12.5491  -43.2418 H         1 UNK         0.0600 
    173 H173       -2.9750  -11.8669  -44.8418 H         1 UNK         0.0600 
    174 H174       -0.7936  -12.1379  -43.7732 H         1 UNK         0.3000 
    175 H175        1.4833  -12.2413  -42.7607 H         1 UNK         0.0600 
    176 H176        3.0691  -14.1242  -42.9151 H         1 UNK         0.0600 
    177 H177        3.2671  -13.8778  -44.6448 H         1 UNK         0.0600 
    178 H178        3.8356  -12.6586  -43.5063 H         1 UNK         0.0600 
    179 H179        2.1181  -11.8954  -45.6435 H         1 UNK         0.3000 
    180 H180        0.0049   -9.1057  -46.0186 H         1 UNK         0.0600 
    181 H181        3.0635   -8.9500  -45.8309 H         1 UNK         0.0600 
    182 H182        1.9338   -7.9166  -44.9639 H         1 UNK         0.0600 
    183 H183        2.0221   -7.8340  -46.7158 H         1 UNK         0.0600 
    184 H184        2.0548  -10.2307  -47.6782 H         1 UNK         0.3000 
    185 H185        0.4013  -13.0627  -48.8368 H         1 UNK         0.0600 
    186 H186       -0.8965  -11.4032  -50.1840 H         1 UNK         0.0600 
    187 H187        0.5575  -10.4384  -50.4173 H         1 UNK         0.0600 
    188 H188        0.4467  -12.0622  -51.1016 H         1 UNK         0.0600 
    189 H189        2.6374  -11.7382  -49.9253 H         1 UNK         0.3000 
    190 H190       -1.1760  -21.3811  -47.9438 H         1 UNK         0.3000 
    191 H191       -1.5954  -22.7444  -50.3763 H         1 UNK         0.0600 
    192 H192       -3.5465  -21.0519  -48.7290 H         1 UNK         0.0600 
    193 H193       -3.7748  -21.5166  -50.4068 H         1 UNK         0.0600 
    194 H194       -2.4378  -20.4634  -49.9679 H         1 UNK         0.0600 
    195 H195       -3.1333  -23.2574  -47.1698 H         1 UNK         0.3000 
    196 H196       -4.8973  -25.3489  -47.9684 H         1 UNK         0.0600 
    197 H197       -3.6559  -24.7548  -45.2340 H         1 UNK         0.0600 
    198 H198       -5.0199  -25.8258  -45.5280 H         1 UNK         0.0600 
    199 H199       -5.1717  -24.1046  -45.8507 H         1 UNK         0.0600 
    200 H200       -1.5492  -25.4701  -46.6495 H         1 UNK         0.3000 
    201 H201       -1.2745  -28.2917  -46.6721 H         1 UNK         0.0600 
    202 H202        0.2215  -26.7711  -45.4005 H         1 UNK         0.0600 
    203 H203        0.8716  -26.1163  -46.9017 H         1 UNK         0.0600 
    204 H204        1.1580  -27.7983  -46.4760 H         1 UNK         0.0600 
    205 H205       -0.5961  -25.8669  -49.2007 H         1 UNK         0.3000 
    206 H206        0.4235  -27.7143  -51.1594 H         1 UNK         0.0600 
    207 H207       -0.7152  -24.8806  -51.4419 H         1 UNK         0.0600 
    208 H208        0.2320  -25.7291  -52.6578 H         1 UNK         0.0600 
    209 H209        0.9728  -25.2814  -51.1298 H         1 UNK         0.0600 
    210 H210       -2.7259  -27.2846  -50.0147 H         1 UNK         0.3000 
    211 H211       -4.7432  -27.9295  -50.5575 H         1 UNK         0.0600 
    212 H212       -3.5897  -29.5425  -52.8888 H         1 UNK         0.0600 
    213 H213       -5.1479  -29.7729  -52.1123 H         1 UNK         0.0600 
    214 H214       -3.6738  -30.1026  -51.2183 H         1 UNK         0.0600 
    215 H215       -3.5523  -25.4963  -51.7475 H         1 UNK         0.3000 
    216 H216       -5.2529  -24.9187  -54.0939 H         1 UNK         0.0600 
    217 H217       -4.2444  -22.6698  -53.9172 H         1 UNK         0.0600 
    218 H218       -2.9775  -23.8863  -53.9122 H         1 UNK         0.0600 
    219 H219       -3.4478  -23.0985  -52.4073 H         1 UNK         0.0600 
    220 H220       -5.0930  -24.4911  -50.6180 H         1 UNK         0.3000 
    221 H221       -6.5308  -24.1046  -49.0057 H         1 UNK         0.0600 
    222 H222       -8.8298  -24.3303  -51.0167 H         1 UNK         0.0600 
    223 H223       -8.0144  -25.7130  -50.2906 H         1 UNK         0.0600 
    224 H224       -8.9110  -24.5980  -49.2813 H         1 UNK         0.0600 
    225 H225       -8.6901  -22.7250  -48.4731 H         1 UNK         0.3000 
    226 H226       -9.3760  -20.7406  -47.7758 H         1 UNK         0.0600 
    227 H227      -10.3852  -20.6882  -50.0323 H         1 UNK         0.0600 
    228 H228       -9.9381  -19.0648  -49.5484 H         1 UNK         0.0600 
    229 H229       -8.9468  -19.9451  -50.7143 H         1 UNK         0.0600 
    230 H230       -7.7964  -18.5413  -49.7712 H         1 UNK         0.3000 
    231 H231       -5.2597  -18.4235  -48.3275 H         1 UNK         0.0600 
    232 H232       -5.4776  -15.9948  -47.8384 H         1 UNK         0.0600 
    233 H233       -6.7012  -16.8983  -46.9609 H         1 UNK         0.0600 
    234 H234       -7.1432  -16.0008  -48.4127 H         1 UNK         0.0600 
    235 H235       -5.6580  -19.5044  -50.7289 H         1 UNK         0.3000 
    236 H236       -5.7920  -17.9177  -52.9903 H         1 UNK         0.0600 
    237 H237       -4.7397  -19.8788  -54.1352 H         1 UNK         0.0600 
    238 H238       -4.2541  -20.5344  -52.5769 H         1 UNK         0.0600 
    239 H239       -5.9631  -20.3935  -52.9849 H         1 UNK         0.0600 
    240 H240       -2.9952  -18.3808  -50.9314 H         1 UNK         0.3000 
    241 H241       -1.0987  -17.0715  -52.7353 H         1 UNK         0.0600 
    242 H242       -2.8504  -14.1423  -50.6461 H         1 UNK         0.3800 
    243 H243       -3.6461  -15.6770  -50.8703 H         1 UNK         0.3800 
    244 H244        0.3714  -17.1833  -50.5836 H         1 UNK         0.0800 
    245 H245       -0.9045  -18.1319  -49.8874 H         1 UNK         0.0800 
    246 H246        1.9491  -17.8681  -52.4406 H         1 UNK         0.0800 
    247 H247        2.3790  -19.5466  -52.6484 H         1 UNK         0.0800 
@<TRIPOS>BOND
     1    1    2 1    
     2    1  127 1    
     3    1  128 1    
     4    1  129 1    
     5    2    3 2    
     6    2    4 am   BACKBONE|DICT|INTERRES
     7    4    5 1    
     8    4  130 1    
     9    5    6 1    
    10    5   65 1    
    11    5  131 1    
    12    6    7 1    
    13    6  132 1    
    14    6  133 1    
    15    7    8 1    
    16    8    9 1    
    17    8  134 1    
    18    8  135 1    
    19    9   10 ar   
    20    9   14 ar   
    21   10   11 ar   
    22   10  136 1    
    23   11   12 ar   
    24   11  126 1    
    25   12   13 ar   
    26   12  137 1    
    27   13   14 ar   
    28   13   15 1    
    29   14  138 1    
    30   15   16 1    
    31   15  139 1    
    32   15  140 1    
    33   16   17 1    
    34   17   18 1    
    35   17  141 1    
    36   17  142 1    
    37   18   19 1    
    38   18   67 1    
    39   18  143 1    
    40   19   20 am   BACKBONE|DICT|INTERRES
    41   19  144 1    
    42   20   21 2    
    43   20   22 1    
    44   22   23 1    
    45   22   24 1    
    46   22  145 1    
    47   23  146 1    
    48   23  147 1    
    49   23  148 1    
    50   24   25 am   BACKBONE|DICT|INTERRES
    51   24  149 1    
    52   25   26 2    
    53   25   27 1    
    54   27   28 1    
    55   27   29 1    
    56   27  150 1    
    57   28  151 1    
    58   28  152 1    
    59   28  153 1    
    60   29   30 am   BACKBONE|DICT|INTERRES
    61   29  154 1    
    62   30   31 2    
    63   30   32 1    
    64   32   33 1    
    65   32   34 1    
    66   32  155 1    
    67   33  156 1    
    68   33  157 1    
    69   33  158 1    
    70   34   35 am   BACKBONE|DICT|INTERRES
    71   34  159 1    
    72   35   36 2    
    73   35   37 1    
    74   37   38 1    
    75   37   39 1    
    76   37  160 1    
    77   38  161 1    
    78   38  162 1    
    79   38  163 1    
    80   39   40 am   BACKBONE|DICT|INTERRES
    81   39  164 1    
    82   40   41 2    
    83   40   42 1    
    84   42   43 1    
    85   42   44 1    
    86   42  165 1    
    87   43  166 1    
    88   43  167 1    
    89   43  168 1    
    90   44   45 am   BACKBONE|DICT|INTERRES
    91   44  169 1    
    92   45   46 2    
    93   45   47 1    
    94   47   48 1    
    95   47   49 1    
    96   47  170 1    
    97   48  171 1    
    98   48  172 1    
    99   48  173 1    
   100   49   50 am   BACKBONE|DICT|INTERRES
   101   49  174 1    
   102   50   51 2    
   103   50   52 1    
   104   52   53 1    
   105   52   54 1    
   106   52  175 1    
   107   53  176 1    
   108   53  177 1    
   109   53  178 1    
   110   54   55 am   BACKBONE|DICT|INTERRES
   111   54  179 1    
   112   55   56 2    
   113   55   57 1    
   114   57   58 1    
   115   57   59 1    
   116   57  180 1    
   117   58  181 1    
   118   58  182 1    
   119   58  183 1    
   120   59   60 am   BACKBONE|DICT|INTERRES
   121   59  184 1    
   122   60   61 2    
   123   60   62 1    
   124   62   63 1    
   125   62   64 1    
   126   62  185 1    
   127   63  186 1    
   128   63  187 1    
   129   63  188 1    
   130   64   65 am   BACKBONE|DICT|INTERRES
   131   64  189 1    
   132   65   66 2    
   133   67   68 2    
   134   67   69 am   BACKBONE|DICT|INTERRES
   135   69   70 1    
   136   69  190 1    
   137   70   71 1    
   138   70   72 1    
   139   70  191 1    
   140   71  192 1    
   141   71  193 1    
   142   71  194 1    
   143   72   73 2    
   144   72   74 am   BACKBONE|DICT|INTERRES
   145   74   75 1    
   146   74  195 1    
   147   75   76 1    
   148   75   77 1    
   149   75  196 1    
   150   76  197 1    
   151   76  198 1    
   152   76  199 1    
   153   77   78 2    
   154   77   79 am   BACKBONE|DICT|INTERRES
   155   79   80 1    
   156   79  200 1    
   157   80   81 1    
   158   80   82 1    
   159   80  201 1    
   160   81  202 1    
   161   81  203 1    
   162   81  204 1    
   163   82   83 2    
   164   82   84 am   BACKBONE|DICT|INTERRES
   165   84   85 1    
   166   84  205 1    
   167   85   86 1    
   168   85   87 1    
   169   85  206 1    
   170   86  207 1    
   171   86  208 1    
   172   86  209 1    
   173   87   88 2    
   174   87   89 am   BACKBONE|DICT|INTERRES
   175   89   90 1    
   176   89  210 1    
   177   90   91 1    
   178   90   92 1    
   179   90  211 1    
   180   91  212 1    
   181   91  213 1    
   182   91  214 1    
   183   92   93 2    
   184   92   94 am   BACKBONE|DICT|INTERRES
   185   94   95 1    
   186   94  215 1    
   187   95   96 1    
   188   95   97 1    
   189   95  216 1    
   190   96  217 1    
   191   96  218 1    
   192   96  219 1    
   193   97   98 2    
   194   97   99 am   BACKBONE|DICT|INTERRES
   195   99  100 1    
   196   99  220 1    
   197  100  101 1    
   198  100  102 1    
   199  100  221 1    
   200  101  222 1    
   201  101  223 1    
   202  101  224 1    
   203  102  103 2    
   204  102  104 am   BACKBONE|DICT|INTERRES
   205  104  105 1    
   206  104  225 1    
   207  105  106 1    
   208  105  107 1    
   209  105  226 1    
   210  106  227 1    
   211  106  228 1    
   212  106  229 1    
   213  107  108 2    
   214  107  109 am   BACKBONE|DICT|INTERRES
   215  109  110 1    
   216  109  230 1    
   217  110  111 1    
   218  110  112 1    
   219  110  231 1    
   220  111  232 1    
   221  111  233 1    
   222  111  234 1    
   223  112  113 2    
   224  112  114 am   BACKBONE|DICT|INTERRES
   225  114  115 1    
   226  114  235 1    
   227  115  116 1    
   228  115  117 1    
   229  115  236 1    
   230  116  237 1    
   231  116  238 1    
   232  116  239 1    
   233  117  118 2    
   234  117  119 am   BACKBONE|DICT|INTERRES
   235  119  120 1    
   236  119  240 1    
   237  120  121 1    
   238  120  124 1    
   239  120  241 1    
   240  121  122 am   BACKBONE|DICT|INTERRES
   241  121  123 2    
   242  122  242 1    
   243  122  243 1    
   244  124  125 1    
   245  124  244 1    
   246  124  245 1    
   247  125  126 1    
   248  126  246 1    
   249  126  247 1    
@<TRIPOS>SUBSTRUCTURE
     1 UNK         1 GROUP             0       ****    0 ROOT    
