@<TRIPOS>MOLECULE
3R540
247   249    1
SMALL
USER_CHARGES


@<TRIPOS>ATOM
      1 CA         -4.4646  -17.1146  -46.2119 C.3       0 UNK        -0.1800 
      2 C          -3.4564  -16.7354  -47.2868 C.2       0 UNK         0.5000 
      3 O          -3.4977  -17.2875  -48.3848 O.2       0 UNK        -0.5000 
      4 N          -2.5575  -15.7968  -46.9724 N.am      1 UNK        -0.5000 
      5 CA         -1.5307  -15.2734  -47.8689 C.3       1 UNK         0.1400 
      6 C6         -0.1970  -16.0566  -47.7445 C.3       23 UNK        -0.0398 
      7 S7          0.8204  -15.9150  -49.2535 S.3       23 UNK        -0.2404 
      8 C8          2.4304  -16.5766  -48.7000 C.3       23 UNK        -0.0205 
      9 C9          2.7977  -17.9555  -49.2519 C.ar      23 UNK        -0.0193 
     10 C10         2.4337  -18.3550  -50.5449 C.ar      23 UNK        -0.1150 
     11 C11         2.8535  -19.5866  -51.0567 C.ar      23 UNK        -0.0193 
     12 C12         3.6531  -20.4207  -50.2716 C.ar      23 UNK        -0.1150 
     13 C13         4.0221  -20.0433  -48.9791 C.ar      23 UNK        -0.0193 
     14 C14         3.5884  -18.8120  -48.4758 C.ar      23 UNK        -0.1150 
     15 C15         4.9361  -20.9440  -48.1565 C.3       23 UNK        -0.0205 
     16 S16         4.1486  -22.5186  -47.6811 S.3       23 UNK        -0.2404 
     17 C17         2.9844  -21.9579  -46.3952 C.3       23 UNK        -0.0398 
     18 CA          1.6085  -22.6683  -46.4130 C.3       11 UNK         0.1400 
     19 N           0.8134  -22.2894  -45.2407 N.am      11 UNK        -0.5000 
     20 C          -0.3852  -22.7903  -44.9089 C.2       10 UNK         0.5000 
     21 O          -0.9492  -23.6919  -45.5284 O.2       10 UNK        -0.5000 
     22 CA         -1.0939  -22.1409  -43.7053 C.3       10 UNK         0.1400 
     23 CB         -0.5689  -22.7220  -42.3843 C.3       10 UNK        -0.1800 
     24 N          -0.9658  -20.6816  -43.6902 N.am      10 UNK        -0.5000 
     25 C          -1.4670  -19.8668  -44.6305 C.2       9 UNK         0.5000 
     26 O          -2.1298  -20.2569  -45.5895 O.2       9 UNK        -0.5000 
     27 CA         -1.1270  -18.3714  -44.5170 C.3       9 UNK         0.1400 
     28 CB         -2.0042  -17.6780  -43.4649 C.3       9 UNK        -0.1800 
     29 N           0.2824  -18.1421  -44.2121 N.am      9 UNK        -0.5000 
     30 C           1.3048  -18.5025  -44.9985 C.2       8 UNK         0.5000 
     31 O           1.1632  -18.9951  -46.1169 O.2       8 UNK        -0.5000 
     32 CA          2.7172  -18.3400  -44.4076 C.3       8 UNK         0.1400 
     33 CB          3.2361  -16.9042  -44.5649 C.3       8 UNK        -0.1800 
     34 N           2.7574  -18.7091  -42.9939 N.am      8 UNK        -0.5000 
     35 C           2.6556  -19.9633  -42.5353 C.2       7 UNK         0.5000 
     36 O           2.5302  -20.9481  -43.2620 O.2       7 UNK        -0.5000 
     37 CA          2.6594  -20.1379  -41.0062 C.3       7 UNK         0.1400 
     38 CB          4.0974  -20.1655  -40.4675 C.3       7 UNK        -0.1800 
     39 N           1.9035  -19.0875  -40.3218 N.am      7 UNK        -0.5000 
     40 C           0.5735  -18.9467  -40.4040 C.2       6 UNK         0.5000 
     41 O          -0.1548  -19.7020  -41.0472 O.2       6 UNK        -0.5000 
     42 CA         -0.0393  -17.7317  -39.6841 C.3       6 UNK         0.1400 
     43 CB         -0.2659  -18.0428  -38.1971 C.3       6 UNK        -0.1800 
     44 N           0.7500  -16.5015  -39.8104 N.am      6 UNK        -0.5000 
     45 C           1.0540  -15.9058  -40.9711 C.2       5 UNK         0.5000 
     46 O           0.8017  -16.3901  -42.0754 O.2       5 UNK        -0.5000 
     47 CA          1.7893  -14.5562  -40.8900 C.3       5 UNK         0.1400 
     48 CB          3.3031  -14.7633  -41.0483 C.3       5 UNK        -0.1800 
     49 N           1.3278  -13.6249  -41.9205 N.am      5 UNK        -0.5000 
     50 C           0.0873  -13.1321  -42.0238 C.2       4 UNK         0.5000 
     51 O          -0.7989  -13.3598  -41.1986 O.2       4 UNK        -0.5000 
     52 CA         -0.2467  -12.2402  -43.2389 C.3       4 UNK         0.1400 
     53 CB         -0.2908  -10.7537  -42.8355 C.3       4 UNK        -0.1800 
     54 N           0.5797  -12.4303  -44.4406 N.am      4 UNK        -0.5000 
     55 C           1.8791  -12.1497  -44.6319 C.2       3 UNK         0.5000 
     56 O           2.6381  -11.7866  -43.7337 O.2       3 UNK        -0.5000 
     57 CA          2.4402  -12.3122  -46.0621 C.3       3 UNK         0.1400 
     58 CB          3.2429  -13.6163  -46.1742 C.3       3 UNK        -0.1800 
     59 N           1.4144  -12.3153  -47.1057 N.am      3 UNK        -0.5000 
     60 C           0.6173  -11.2876  -47.4310 C.2       2 UNK         0.5000 
     61 O           0.7355  -10.1552  -46.9625 O.2       2 UNK        -0.5000 
     62 CA         -0.5281  -11.5872  -48.4222 C.3       2 UNK         0.1400 
     63 CB         -0.1846  -11.0478  -49.8191 C.3       2 UNK        -0.1800 
     64 N          -0.8649  -13.0126  -48.5346 N.am      2 UNK        -0.5000 
     65 C          -1.3345  -13.7836  -47.5441 C.2       1 UNK         0.5000 
     66 O          -1.5493  -13.3740  -46.3991 O.2       1 UNK        -0.5000 
     67 C           0.8341  -22.4344  -47.7292 C.2       11 UNK         0.5000 
     68 O           0.7734  -23.3350  -48.5673 O.2       11 UNK        -0.5000 
     69 N           0.2098  -21.2567  -47.8568 N.am      12 UNK        -0.5000 
     70 CA         -0.6409  -20.9060  -48.9899 C.3       12 UNK         0.1400 
     71 CB         -0.9296  -19.4063  -48.9552 C.3       12 UNK        -0.1800 
     72 C          -1.9482  -21.7146  -49.0336 C.2       12 UNK         0.5000 
     73 O          -2.3197  -22.2025  -50.0994 O.2       12 UNK        -0.5000 
     74 N          -2.6144  -21.8679  -47.8800 N.am      13 UNK        -0.5000 
     75 CA         -3.8721  -22.6054  -47.7391 C.3       13 UNK         0.1400 
     76 CB         -4.4378  -22.4071  -46.3265 C.3       13 UNK        -0.1800 
     77 C          -3.7548  -24.1040  -48.0738 C.2       13 UNK         0.5000 
     78 O          -4.7161  -24.6887  -48.5737 O.2       13 UNK        -0.5000 
     79 N          -2.5757  -24.6941  -47.8390 N.am      14 UNK        -0.5000 
     80 CA         -2.2468  -26.0662  -48.2280 C.3       14 UNK         0.1400 
     81 CB         -0.8965  -26.4569  -47.6091 C.3       14 UNK        -0.1800 
     82 C          -2.2298  -26.2866  -49.7558 C.2       14 UNK         0.5000 
     83 O          -2.4397  -27.4153  -50.2019 O.2       14 UNK        -0.5000 
     84 N          -2.0106  -25.2176  -50.5329 N.am      15 UNK        -0.5000 
     85 CA         -2.0064  -25.2245  -51.9917 C.3       15 UNK         0.1400 
     86 CB         -0.8859  -24.3009  -52.4901 C.3       15 UNK        -0.1800 
     87 C          -3.3906  -24.8239  -52.5342 C.2       15 UNK         0.5000 
     88 O          -3.5281  -23.7800  -53.1738 O.2       15 UNK        -0.5000 
     89 N          -4.3823  -25.6888  -52.2764 N.am      16 UNK        -0.5000 
     90 CA         -5.7643  -25.6284  -52.7681 C.3       16 UNK         0.1400 
     91 CB         -5.8047  -25.7646  -54.3060 C.3       16 UNK        -0.1800 
     92 C          -6.5660  -24.4168  -52.2457 C.2       16 UNK         0.5000 
     93 O          -7.3246  -23.8091  -53.0039 O.2       16 UNK        -0.5000 
     94 N          -6.4119  -24.1260  -50.9451 N.am      17 UNK        -0.5000 
     95 CA         -7.0679  -23.0643  -50.1731 C.3       17 UNK         0.1400 
     96 CB         -8.6060  -23.1757  -50.2534 C.3       17 UNK        -0.1800 
     97 C          -6.5821  -21.6482  -50.5350 C.2       17 UNK         0.5000 
     98 O          -5.8981  -21.4395  -51.5388 O.2       17 UNK        -0.5000 
     99 N          -6.9748  -20.6763  -49.7007 N.am      18 UNK        -0.5000 
    100 CA        -6.6540  -19.2515  -49.8444 C.3       18 UNK         0.1400 
    101 CB        -7.0956  -18.5171  -48.5702 C.3       18 UNK        -0.1800 
    102 C         -7.2666  -18.5872  -51.0976 C.2       18 UNK         0.5000 
    103 O         -6.8524  -17.4882  -51.4651 O.2       18 UNK        -0.5000 
    104 N         -8.2280  -19.2647  -51.7409 N.am      19 UNK        -0.5000 
    105 CA        -8.7826  -18.8978  -53.0430 C.3       19 UNK         0.1400 
    106 CB       -10.0293  -19.7538  -53.3138 C.3       19 UNK        -0.1800 
    107 C         -7.7619  -19.0506  -54.1895 C.2       19 UNK         0.5000 
    108 O         -7.8203  -18.2816  -55.1498 O.2       19 UNK        -0.5000 
    109 N         -6.8482  -20.0241  -54.0666 N.am      20 UNK        -0.5000 
    110 CA        -5.7423  -20.2458  -54.9959 C.3       20 UNK         0.1400 
    111 CB        -5.5750  -21.7523  -55.2429 C.3       20 UNK        -0.1800 
    112 C         -4.4481  -19.6328  -54.4404 C.2       20 UNK         0.5000 
    113 O         -3.7672  -18.9017  -55.1620 O.2       20 UNK        -0.5000 
    114 N         -4.1397  -19.9377  -53.1691 N.am      21 UNK        -0.5000 
    115 CA        -3.0172  -19.4293  -52.3699 C.3       21 UNK         0.1400 
    116 CB        -3.2864  -17.9632  -51.9680 C.3       21 UNK        -0.1800 
    117 C         -1.6299  -19.6041  -53.0291 C.2       21 UNK         0.5000 
    118 O         -0.7556  -18.7595  -52.8280 O.2       21 UNK        -0.5000 
    119 N         -1.4750  -20.6612  -53.8441 N.am      22 UNK        -0.5000 
    120 CA        -0.3484  -20.8929  -54.7735 C.3       22 UNK         0.1400 
    121 C         -0.0007  -19.7015  -55.7265 C.2       22 UNK         0.5000 
    122 N         -0.9494  -18.8346  -56.0644 N.am      22 UNK        -0.7600 
    123 O          1.1238  -19.5742  -56.2040 O.2       22 UNK        -0.5000 
    124 C124        0.8895  -21.6377  -54.1651 C.3       23 UNK        -0.0398 
    125 S125        1.2589  -21.3768  -52.3979 S.3       23 UNK        -0.2404 
    126 C126        2.4594  -20.0177  -52.4611 C.3       23 UNK        -0.0205 
    127 H127       -5.4774  -16.9152  -46.5601 H         1 UNK         0.0600 
    128 H128       -4.3085  -16.5495  -45.2931 H         1 UNK         0.0600 
    129 H129       -4.3828  -18.1769  -45.9804 H         1 UNK         0.0600 
    130 H130       -2.6080  -15.3112  -46.0855 H         1 UNK         0.3000 
    131 H131       -1.9030  -15.3422  -48.8939 H         1 UNK         0.0600 
    132 H132       -0.3933  -17.1129  -47.5806 H         1 UNK         0.0800 
    133 H133        0.3736  -15.7342  -46.8714 H         1 UNK         0.0800 
    134 H134        3.2093  -15.8749  -49.0005 H         1 UNK         0.0800 
    135 H135        2.4445  -16.6004  -47.6126 H         1 UNK         0.0800 
    136 H136        1.8308  -17.7049  -51.1629 H         1 UNK         0.1150 
    137 H137        3.9867  -21.3696  -50.6679 H         1 UNK         0.1150 
    138 H138        3.8889  -18.5070  -47.4838 H         1 UNK         0.1150 
    139 H139        5.8278  -21.1658  -48.7444 H         1 UNK         0.0800 
    140 H140        5.2861  -20.4307  -47.2594 H         1 UNK         0.0800 
    141 H141        2.8516  -20.8806  -46.4759 H         1 UNK         0.0800 
    142 H142        3.4716  -22.1278  -45.4346 H         1 UNK         0.0800 
    143 H143        1.7878  -23.7425  -46.3324 H         1 UNK         0.0600 
    144 H144        1.2242  -21.5889  -44.6321 H         1 UNK         0.3000 
    145 H145       -2.1565  -22.3793  -43.7782 H         1 UNK         0.0600 
    146 H146       -1.1269  -22.3310  -41.5333 H         1 UNK         0.0600 
    147 H147       -0.6693  -23.8079  -42.3678 H         1 UNK         0.0600 
    148 H148        0.4842  -22.4866  -42.2295 H         1 UNK         0.0600 
    149 H149       -0.4772  -20.2761  -42.8973 H         1 UNK         0.3000 
    150 H150       -1.3337  -17.9163  -45.4858 H         1 UNK         0.0600 
    151 H151       -3.0625  -17.8584  -43.6539 H         1 UNK         0.0600 
    152 H152       -1.8472  -16.5991  -43.4714 H         1 UNK         0.0600 
    153 H153       -1.7886  -18.0396  -42.4601 H         1 UNK         0.0600 
    154 H154        0.4879  -17.6765  -43.3304 H         1 UNK         0.3000 
    155 H155        3.3919  -19.0051  -44.9503 H         1 UNK         0.0600 
    156 H156        2.5313  -16.1693  -44.1744 H         1 UNK         0.0600 
    157 H157        3.4159  -16.6725  -45.6122 H         1 UNK         0.0600 
    158 H158        4.1850  -16.7669  -44.0462 H         1 UNK         0.0600 
    159 H159        2.7911  -17.9520  -42.3279 H         1 UNK         0.3000 
    160 H160        2.1919  -21.0985  -40.7797 H         1 UNK         0.0600 
    161 H161        4.6132  -19.2203  -40.6418 H         1 UNK         0.0600 
    162 H162        4.6795  -20.9513  -40.9510 H         1 UNK         0.0600 
    163 H163        4.1129  -20.3641  -39.3958 H         1 UNK         0.0600 
    164 H164        2.4287  -18.4214  -39.7747 H         1 UNK         0.3000 
    165 H165       -1.0128  -17.5413  -40.1402 H         1 UNK         0.0600 
    166 H166       -0.7982  -17.2312  -37.7007 H         1 UNK         0.0600 
    167 H167       -0.8660  -18.9455  -38.0740 H         1 UNK         0.0600 
    168 H168        0.6756  -18.2000  -37.6693 H         1 UNK         0.0600 
    169 H169        1.0077  -16.0462  -38.9466 H         1 UNK         0.3000 
    170 H170        1.5952  -14.1043  -39.9152 H         1 UNK         0.0600 
    171 H171        3.6890  -15.4414  -40.2860 H         1 UNK         0.0600 
    172 H172        3.5523  -15.1863  -42.0219 H         1 UNK         0.0600 
    173 H173        3.8418  -13.8210  -40.9465 H         1 UNK         0.0600 
    174 H174        2.0039  -13.3299  -42.6141 H         1 UNK         0.3000 
    175 H175       -1.2557  -12.5215  -43.5445 H         1 UNK         0.0600 
    176 H176        0.6800  -10.3965  -42.4911 H         1 UNK         0.0600 
    177 H177       -0.6018  -10.1278  -43.6721 H         1 UNK         0.0600 
    178 H178       -1.0027  -10.5905  -42.0256 H         1 UNK         0.0600 
    179 H179        0.0538  -12.7567  -45.2441 H         1 UNK         0.3000 
    180 H180        3.1126  -11.4721  -46.2474 H         1 UNK         0.0600 
    181 H181        2.5958  -14.4854  -46.0605 H         1 UNK         0.0600 
    182 H182        4.0151  -13.6748  -45.4059 H         1 UNK         0.0600 
    183 H183        3.7405  -13.6930  -47.1412 H         1 UNK         0.0600 
    184 H184        1.2558  -13.1935  -47.5756 H         1 UNK         0.3000 
    185 H185       -1.4146  -11.0632  -48.0592 H         1 UNK         0.0600 
    186 H186        0.0431   -9.9816  -49.7823 H         1 UNK         0.0600 
    187 H187        0.6833  -11.5545  -50.2432 H         1 UNK         0.0600 
    188 H188       -1.0195  -11.1757  -50.5083 H         1 UNK         0.0600 
    189 H189       -0.6909  -13.4368  -49.4352 H         1 UNK         0.3000 
    190 H190        0.3368  -20.5483  -47.1409 H         1 UNK         0.3000 
    191 H191       -0.0876  -21.1194  -49.9042 H         1 UNK         0.0600 
    192 H192       -0.0040  -18.8394  -49.0355 H         1 UNK         0.0600 
    193 H193       -1.5661  -19.1046  -49.7844 H         1 UNK         0.0600 
    194 H194       -1.4326  -19.1195  -48.0320 H         1 UNK         0.0600 
    195 H195       -2.2728  -21.3932  -47.0468 H         1 UNK         0.3000 
    196 H196       -4.5775  -22.1691  -48.4466 H         1 UNK         0.0600 
    197 H197       -5.3880  -22.9293  -46.2080 H         1 UNK         0.0600 
    198 H198       -4.6192  -21.3523  -46.1188 H         1 UNK         0.0600 
    199 H199       -3.7556  -22.7879  -45.5665 H         1 UNK         0.0600 
    200 H200       -1.8517  -24.1659  -47.3635 H         1 UNK         0.3000 
    201 H201       -3.0134  -26.7232  -47.8123 H         1 UNK         0.0600 
    202 H202       -0.9210  -26.3727  -46.5225 H         1 UNK         0.0600 
    203 H203       -0.0884  -25.8236  -47.9758 H         1 UNK         0.0600 
    204 H204       -0.6398  -27.4893  -47.8495 H         1 UNK         0.0600 
    205 H205       -1.9222  -24.3044  -50.1010 H         1 UNK         0.3000 
    206 H206       -1.7864  -26.2278  -52.3624 H         1 UNK         0.0600 
    207 H207        0.0852  -24.6061  -52.1003 H         1 UNK         0.0600 
    208 H208       -0.8259  -24.3261  -53.5782 H         1 UNK         0.0600 
    209 H209       -1.0553  -23.2662  -52.1920 H         1 UNK         0.0600 
    210 H210       -4.1551  -26.4989  -51.7145 H         1 UNK         0.3000 
    211 H211       -6.2633  -26.5072  -52.3575 H         1 UNK         0.0600 
    212 H212       -5.3734  -24.8948  -54.8023 H         1 UNK         0.0600 
    213 H213       -6.8303  -25.8666  -54.6626 H         1 UNK         0.0600 
    214 H214       -5.2582  -26.6467  -54.6391 H         1 UNK         0.0600 
    215 H215       -5.7265  -24.6543  -50.4167 H         1 UNK         0.3000 
    216 H216       -6.7875  -23.2350  -49.1339 H         1 UNK         0.0600 
    217 H217       -9.0877  -22.5323  -49.5166 H         1 UNK         0.0600 
    218 H218       -8.9381  -24.1943  -50.0521 H         1 UNK         0.0600 
    219 H219       -8.9894  -22.8859  -51.2320 H         1 UNK         0.0600 
    220 H220       -7.5445  -20.9193  -48.9030 H         1 UNK         0.3000 
    221 H221       -5.5688  -19.1635  -49.9276 H         1 UNK         0.0600 
    222 H222       -8.1738  -18.5826  -48.4202 H         1 UNK         0.0600 
    223 H223       -6.6053  -18.9299  -47.6883 H         1 UNK         0.0600 
    224 H224       -6.8337  -17.4593  -48.6203 H         1 UNK         0.0600 
    225 H225       -8.5244  -20.1482  -51.3552 H         1 UNK         0.3000 
    226 H226       -9.0867  -17.8496  -53.0028 H         1 UNK         0.0600 
    227 H227      -10.7864  -19.6036  -52.5439 H         1 UNK         0.0600 
    228 H228      -10.4828  -19.4906  -54.2703 H         1 UNK         0.0600 
    229 H229       -9.7882  -20.8173  -53.3462 H         1 UNK         0.0600 
    230 H230       -6.8428  -20.5903  -53.2262 H         1 UNK         0.3000 
    231 H231       -5.9517  -19.7735  -55.9579 H         1 UNK         0.0600 
    232 H232       -6.4672  -22.1773  -55.7027 H         1 UNK         0.0600 
    233 H233       -5.3940  -22.2926  -54.3141 H         1 UNK         0.0600 
    234 H234       -4.7351  -21.9518  -55.9094 H         1 UNK         0.0600 
    235 H235       -4.7537  -20.5799  -52.6702 H         1 UNK         0.3000 
    236 H236       -3.0032  -20.0275  -51.4597 H         1 UNK         0.0600 
    237 H237       -2.5100  -17.5777  -51.3064 H         1 UNK         0.0600 
    238 H238       -3.3266  -17.3087  -52.8390 H         1 UNK         0.0600 
    239 H239       -4.2285  -17.8660  -51.4331 H         1 UNK         0.0600 
    240 H240       -2.2489  -21.3061  -53.9225 H         1 UNK         0.3000 
    241 H241       -0.7701  -21.6060  -55.4829 H         1 UNK         0.0600 
    242 H242       -0.7238  -18.0759  -56.6873 H         1 UNK         0.3800 
    243 H243       -1.8904  -18.9098  -55.6882 H         1 UNK         0.3800 
    244 H244        0.7221  -22.7088  -54.2696 H         1 UNK         0.0800 
    245 H245        1.8002  -21.4648  -54.7391 H         1 UNK         0.0800 
    246 H246        3.3466  -20.3360  -53.0102 H         1 UNK         0.0800 
    247 H247        2.0271  -19.1832  -53.0157 H         1 UNK         0.0800 
@<TRIPOS>BOND
     1    1    2 1    
     2    1  127 1    
     3    1  128 1    
     4    1  129 1    
     5    2    3 2    
     6    2    4 am   BACKBONE|DICT|INTERRES
     7    4    5 1    
     8    4  130 1    
     9    5    6 1    
    10    5   65 1    
    11    5  131 1    
    12    6    7 1    
    13    6  132 1    
    14    6  133 1    
    15    7    8 1    
    16    8    9 1    
    17    8  134 1    
    18    8  135 1    
    19    9   10 ar   
    20    9   14 ar   
    21   10   11 ar   
    22   10  136 1    
    23   11   12 ar   
    24   11  126 1    
    25   12   13 ar   
    26   12  137 1    
    27   13   14 ar   
    28   13   15 1    
    29   14  138 1    
    30   15   16 1    
    31   15  139 1    
    32   15  140 1    
    33   16   17 1    
    34   17   18 1    
    35   17  141 1    
    36   17  142 1    
    37   18   19 1    
    38   18   67 1    
    39   18  143 1    
    40   19   20 am   BACKBONE|DICT|INTERRES
    41   19  144 1    
    42   20   21 2    
    43   20   22 1    
    44   22   23 1    
    45   22   24 1    
    46   22  145 1    
    47   23  146 1    
    48   23  147 1    
    49   23  148 1    
    50   24   25 am   BACKBONE|DICT|INTERRES
    51   24  149 1    
    52   25   26 2    
    53   25   27 1    
    54   27   28 1    
    55   27   29 1    
    56   27  150 1    
    57   28  151 1    
    58   28  152 1    
    59   28  153 1    
    60   29   30 am   BACKBONE|DICT|INTERRES
    61   29  154 1    
    62   30   31 2    
    63   30   32 1    
    64   32   33 1    
    65   32   34 1    
    66   32  155 1    
    67   33  156 1    
    68   33  157 1    
    69   33  158 1    
    70   34   35 am   BACKBONE|DICT|INTERRES
    71   34  159 1    
    72   35   36 2    
    73   35   37 1    
    74   37   38 1    
    75   37   39 1    
    76   37  160 1    
    77   38  161 1    
    78   38  162 1    
    79   38  163 1    
    80   39   40 am   BACKBONE|DICT|INTERRES
    81   39  164 1    
    82   40   41 2    
    83   40   42 1    
    84   42   43 1    
    85   42   44 1    
    86   42  165 1    
    87   43  166 1    
    88   43  167 1    
    89   43  168 1    
    90   44   45 am   BACKBONE|DICT|INTERRES
    91   44  169 1    
    92   45   46 2    
    93   45   47 1    
    94   47   48 1    
    95   47   49 1    
    96   47  170 1    
    97   48  171 1    
    98   48  172 1    
    99   48  173 1    
   100   49   50 am   BACKBONE|DICT|INTERRES
   101   49  174 1    
   102   50   51 2    
   103   50   52 1    
   104   52   53 1    
   105   52   54 1    
   106   52  175 1    
   107   53  176 1    
   108   53  177 1    
   109   53  178 1    
   110   54   55 am   BACKBONE|DICT|INTERRES
   111   54  179 1    
   112   55   56 2    
   113   55   57 1    
   114   57   58 1    
   115   57   59 1    
   116   57  180 1    
   117   58  181 1    
   118   58  182 1    
   119   58  183 1    
   120   59   60 am   BACKBONE|DICT|INTERRES
   121   59  184 1    
   122   60   61 2    
   123   60   62 1    
   124   62   63 1    
   125   62   64 1    
   126   62  185 1    
   127   63  186 1    
   128   63  187 1    
   129   63  188 1    
   130   64   65 am   BACKBONE|DICT|INTERRES
   131   64  189 1    
   132   65   66 2    
   133   67   68 2    
   134   67   69 am   BACKBONE|DICT|INTERRES
   135   69   70 1    
   136   69  190 1    
   137   70   71 1    
   138   70   72 1    
   139   70  191 1    
   140   71  192 1    
   141   71  193 1    
   142   71  194 1    
   143   72   73 2    
   144   72   74 am   BACKBONE|DICT|INTERRES
   145   74   75 1    
   146   74  195 1    
   147   75   76 1    
   148   75   77 1    
   149   75  196 1    
   150   76  197 1    
   151   76  198 1    
   152   76  199 1    
   153   77   78 2    
   154   77   79 am   BACKBONE|DICT|INTERRES
   155   79   80 1    
   156   79  200 1    
   157   80   81 1    
   158   80   82 1    
   159   80  201 1    
   160   81  202 1    
   161   81  203 1    
   162   81  204 1    
   163   82   83 2    
   164   82   84 am   BACKBONE|DICT|INTERRES
   165   84   85 1    
   166   84  205 1    
   167   85   86 1    
   168   85   87 1    
   169   85  206 1    
   170   86  207 1    
   171   86  208 1    
   172   86  209 1    
   173   87   88 2    
   174   87   89 am   BACKBONE|DICT|INTERRES
   175   89   90 1    
   176   89  210 1    
   177   90   91 1    
   178   90   92 1    
   179   90  211 1    
   180   91  212 1    
   181   91  213 1    
   182   91  214 1    
   183   92   93 2    
   184   92   94 am   BACKBONE|DICT|INTERRES
   185   94   95 1    
   186   94  215 1    
   187   95   96 1    
   188   95   97 1    
   189   95  216 1    
   190   96  217 1    
   191   96  218 1    
   192   96  219 1    
   193   97   98 2    
   194   97   99 am   BACKBONE|DICT|INTERRES
   195   99  100 1    
   196   99  220 1    
   197  100  101 1    
   198  100  102 1    
   199  100  221 1    
   200  101  222 1    
   201  101  223 1    
   202  101  224 1    
   203  102  103 2    
   204  102  104 am   BACKBONE|DICT|INTERRES
   205  104  105 1    
   206  104  225 1    
   207  105  106 1    
   208  105  107 1    
   209  105  226 1    
   210  106  227 1    
   211  106  228 1    
   212  106  229 1    
   213  107  108 2    
   214  107  109 am   BACKBONE|DICT|INTERRES
   215  109  110 1    
   216  109  230 1    
   217  110  111 1    
   218  110  112 1    
   219  110  231 1    
   220  111  232 1    
   221  111  233 1    
   222  111  234 1    
   223  112  113 2    
   224  112  114 am   BACKBONE|DICT|INTERRES
   225  114  115 1    
   226  114  235 1    
   227  115  116 1    
   228  115  117 1    
   229  115  236 1    
   230  116  237 1    
   231  116  238 1    
   232  116  239 1    
   233  117  118 2    
   234  117  119 am   BACKBONE|DICT|INTERRES
   235  119  120 1    
   236  119  240 1    
   237  120  121 1    
   238  120  124 1    
   239  120  241 1    
   240  121  122 am   BACKBONE|DICT|INTERRES
   241  121  123 2    
   242  122  242 1    
   243  122  243 1    
   244  124  125 1    
   245  124  244 1    
   246  124  245 1    
   247  125  126 1    
   248  126  246 1    
   249  126  247 1    
@<TRIPOS>SUBSTRUCTURE
     1 UNK         1 GROUP             0       ****    0 ROOT    
