@<TRIPOS>MOLECULE
3R540
247   249    1
SMALL
USER_CHARGES


@<TRIPOS>ATOM
      1 CA         -4.9037  -14.5738  -50.9106 C.3       0 UNK        -0.1800 
      2 C          -3.7421  -14.0892  -50.0541 C.2       0 UNK         0.5000 
      3 O          -3.6462  -12.8946  -49.7739 O.2       0 UNK        -0.5000 
      4 N          -2.8728  -15.0117  -49.6263 N.am      1 UNK        -0.5000 
      5 CA         -1.7186  -14.7449  -48.7554 C.3       1 UNK         0.1400 
      6 C6         -0.4845  -15.6094  -49.1256 C.3       23 UNK        -0.0398 
      7 S7          0.0657  -15.3326  -50.8433 S.3       23 UNK        -0.2404 
      8 C8          1.8369  -15.7655  -50.7792 C.3       23 UNK        -0.0205 
      9 C9          2.1043  -17.2124  -51.1766 C.ar      23 UNK        -0.0193 
     10 C10         1.7369  -17.6645  -52.4481 C.ar      23 UNK        -0.1150 
     11 C11         2.0115  -18.9750  -52.8459 C.ar      23 UNK        -0.0193 
     12 C12         2.6765  -19.8323  -51.9667 C.ar      23 UNK        -0.1150 
     13 C13         3.0627  -19.3967  -50.6959 C.ar      23 UNK        -0.0193 
     14 C14         2.7706  -18.0826  -50.3061 C.ar      23 UNK        -0.1150 
     15 C15         3.8243  -20.3575  -49.7835 C.3       23 UNK        -0.0205 
     16 S16         3.2911  -20.3372  -48.0393 S.3       23 UNK        -0.2404 
     17 C17         1.5109  -20.7106  -48.1753 C.3       23 UNK        -0.0398 
     18 CA          1.1073  -22.1381  -47.7103 C.3       11 UNK         0.1400 
     19 N           1.6179  -22.5281  -46.3849 N.am      11 UNK        -0.5000 
     20 C           1.4326  -21.8903  -45.2224 C.2       10 UNK         0.5000 
     21 O           0.7346  -20.8838  -45.1052 O.2       10 UNK        -0.5000 
     22 CA          2.1461  -22.4641  -43.9911 C.3       10 UNK         0.1400 
     23 CB          3.6679  -22.2514  -44.0812 C.3       10 UNK        -0.1800 
     24 N           1.6401  -21.7934  -42.7981 N.am      10 UNK        -0.5000 
     25 C           1.5644  -22.3208  -41.5722 C.2       9 UNK         0.5000 
     26 O           1.8925  -23.4782  -41.3031 O.2       9 UNK        -0.5000 
     27 CA          1.0596  -21.3681  -40.4687 C.3       9 UNK         0.1400 
     28 CB          1.1382  -21.9670  -39.0491 C.3       9 UNK        -0.1800 
     29 N           1.7338  -20.0685  -40.5340 N.am      9 UNK        -0.5000 
     30 C           3.0429  -19.8134  -40.3884 C.2       8 UNK         0.5000 
     31 O           3.8830  -20.6545  -40.0665 O.2       8 UNK        -0.5000 
     32 CA          3.4995  -18.3688  -40.6705 C.3       8 UNK         0.1400 
     33 CB          4.0098  -18.2536  -42.1156 C.3       8 UNK        -0.1800 
     34 N           2.4476  -17.3727  -40.4535 N.am      8 UNK        -0.5000 
     35 C           1.9648  -17.0222  -39.2529 C.2       7 UNK         0.5000 
     36 O           2.3954  -17.4636  -38.1867 O.2       7 UNK        -0.5000 
     37 CA          0.7875  -16.0288  -39.2420 C.3       7 UNK         0.1400 
     38 CB          1.2920  -14.5831  -39.3680 C.3       7 UNK        -0.1800 
     39 N          -0.1903  -16.2994  -40.2974 N.am      7 UNK        -0.5000 
     40 C          -0.9747  -17.3863  -40.3480 C.2       6 UNK         0.5000 
     41 O          -0.9966  -18.2570  -39.4783 O.2       6 UNK        -0.5000 
     42 CA         -1.8512  -17.5530  -41.6028 C.3       6 UNK         0.1400 
     43 CB         -3.1381  -16.7212  -41.4990 C.3       6 UNK        -0.1800 
     44 N          -1.1350  -17.2023  -42.8287 N.am      6 UNK        -0.5000 
     45 C          -0.1100  -17.9051  -43.3319 C.2       5 UNK         0.5000 
     46 O           0.3212  -18.9407  -42.8257 O.2       5 UNK        -0.5000 
     47 CA          0.5759  -17.3158  -44.5780 C.3       5 UNK         0.1400 
     48 CB         -0.1621  -17.7328  -45.8587 C.3       5 UNK        -0.1800 
     49 N           0.6503  -15.8545  -44.5314 N.am      5 UNK        -0.5000 
     50 C           1.3747  -15.1535  -43.6478 C.2       4 UNK         0.5000 
     51 O           2.0807  -15.6674  -42.7814 O.2       4 UNK        -0.5000 
     52 CA          1.2397  -13.6220  -43.7102 C.3       4 UNK         0.1400 
     53 CB          2.0741  -13.0506  -44.8664 C.3       4 UNK        -0.1800 
     54 N          -0.1527  -13.1964  -43.8602 N.am      4 UNK        -0.5000 
     55 C          -1.1032  -13.3603  -42.9279 C.2       3 UNK         0.5000 
     56 O          -0.8980  -13.8601  -41.8225 O.2       3 UNK        -0.5000 
     57 CA         -2.5356  -13.0082  -43.3465 C.3       3 UNK         0.1400 
     58 CB         -2.6821  -11.5353  -43.7639 C.3       3 UNK        -0.1800 
     59 N          -2.8689  -13.8849  -44.4593 N.am      3 UNK        -0.5000 
     60 C          -3.9610  -14.6351  -44.5910 C.2       2 UNK         0.5000 
     61 O          -4.9536  -14.5205  -43.8708 O.2       2 UNK        -0.5000 
     62 CA         -3.9011  -15.7342  -45.6803 C.3       2 UNK         0.1400 
     63 CB         -5.2677  -16.3947  -45.9304 C.3       2 UNK        -0.1800 
     64 N          -3.3324  -15.3364  -46.9765 N.am      2 UNK        -0.5000 
     65 C          -2.0809  -14.9437  -47.2677 C.2       1 UNK         0.5000 
     66 O          -1.2098  -14.7610  -46.4142 O.2       1 UNK        -0.5000 
     67 C          -0.4210  -22.3134  -47.8365 C.2       11 UNK         0.5000 
     68 O          -0.8799  -23.1117  -48.6530 O.2       11 UNK        -0.5000 
     69 N          -1.1730  -21.5698  -47.0145 N.am      12 UNK        -0.5000 
     70 CA         -2.6296  -21.4231  -47.0427 C.3       12 UNK         0.1400 
     71 CB         -3.0313  -20.3178  -46.0518 C.3       12 UNK        -0.1800 
     72 C          -3.4206  -22.7153  -46.7664 C.2       12 UNK         0.5000 
     73 O          -4.5934  -22.7906  -47.1382 O.2       12 UNK        -0.5000 
     74 N          -2.7719  -23.6912  -46.1192 N.am      13 UNK        -0.5000 
     75 CA         -3.3111  -25.0241  -45.8570 C.3       13 UNK         0.1400 
     76 CB         -2.7504  -25.5229  -44.5157 C.3       13 UNK        -0.1800 
     77 C          -2.9796  -26.0281  -46.9790 C.2       13 UNK         0.5000 
     78 O          -3.6740  -27.0382  -47.0980 O.2       13 UNK        -0.5000 
     79 N          -1.9280  -25.7578  -47.7670 N.am      14 UNK        -0.5000 
     80 CA         -1.4836  -26.6096  -48.8725 C.3       14 UNK         0.1400 
     81 CB          0.0288  -26.4336  -49.0842 C.3       14 UNK        -0.1800 
     82 C          -2.2604  -26.2948  -50.1607 C.2       14 UNK         0.5000 
     83 O          -2.6835  -27.2153  -50.8609 O.2       14 UNK        -0.5000 
     84 N          -2.4610  -25.0003  -50.4232 N.am      15 UNK        -0.5000 
     85 CA         -3.3321  -24.4644  -51.4596 C.3       15 UNK         0.1400 
     86 CB         -2.4748  -23.8200  -52.5598 C.3       15 UNK        -0.1800 
     87 C          -4.2153  -23.4257  -50.7648 C.2       15 UNK         0.5000 
     88 O          -3.6677  -22.5673  -50.0764 O.2       15 UNK        -0.5000 
     89 N          -5.5412  -23.5350  -50.9210 N.am      16 UNK        -0.5000 
     90 CA         -6.5681  -22.7721  -50.1989 C.3       16 UNK         0.1400 
     91 CB         -7.9500  -23.1640  -50.7486 C.3       16 UNK        -0.1800 
     92 C          -6.3633  -21.2427  -50.2372 C.2       16 UNK         0.5000 
     93 O          -6.6940  -20.6093  -51.2392 O.2       16 UNK        -0.5000 
     94 N          -5.7894  -20.7015  -49.1516 N.am      17 UNK        -0.5000 
     95 CA         -5.3714  -19.3046  -48.9496 C.3       17 UNK         0.1400 
     96 CB         -6.5620  -18.3310  -49.0775 C.3       17 UNK        -0.1800 
     97 C          -4.1666  -18.8571  -49.8090 C.2       17 UNK         0.5000 
     98 O          -3.7945  -17.6838  -49.7547 O.2       17 UNK        -0.5000 
     99 N          -3.5530  -19.7943  -50.5435 N.am      18 UNK        -0.5000 
    100 CA        -2.4411  -19.6233  -51.4774 C.3       18 UNK         0.1400 
    101 CB        -1.1412  -19.3546  -50.6972 C.3       18 UNK        -0.1800 
    102 C         -2.7548  -18.5929  -52.5862 C.2       18 UNK         0.5000 
    103 O         -3.8872  -18.5599  -53.0742 O.2       18 UNK        -0.5000 
    104 N         -1.7554  -17.7943  -52.9890 N.am      19 UNK        -0.5000 
    105 CA        -1.8149  -16.7786  -54.0455 C.3       19 UNK         0.1400 
    106 CB        -2.6731  -15.5762  -53.5915 C.3       19 UNK        -0.1800 
    107 C         -2.2601  -17.3913  -55.3898 C.2       19 UNK         0.5000 
    108 O         -1.5055  -18.1666  -55.9770 O.2       19 UNK        -0.5000 
    109 N         -3.4822  -17.0711  -55.8356 N.am      20 UNK        -0.5000 
    110 CA        -4.1070  -17.6074  -57.0455 C.3       20 UNK         0.1400 
    111 CB        -5.4175  -16.8506  -57.3083 C.3       20 UNK        -0.1800 
    112 C         -4.3633  -19.1270  -56.9931 C.2       20 UNK         0.5000 
    113 O         -4.3719  -19.7695  -58.0446 O.2       20 UNK        -0.5000 
    114 N         -4.5321  -19.6891  -55.7851 N.am      21 UNK        -0.5000 
    115 CA        -4.7305  -21.1255  -55.5672 C.3       21 UNK         0.1400 
    116 CB        -5.2156  -21.3714  -54.1308 C.3       21 UNK        -0.1800 
    117 C         -3.4777  -21.9708  -55.8694 C.2       21 UNK         0.5000 
    118 O         -3.6047  -23.1818  -56.0529 O.2       21 UNK        -0.5000 
    119 N         -2.3019  -21.3306  -55.9334 N.am      22 UNK        -0.5000 
    120 CA        -1.0348  -21.9523  -56.3466 C.3       22 UNK         0.1400 
    121 C         -0.9657  -22.3165  -57.8614 C.2       22 UNK         0.5000 
    122 N         -1.8674  -21.8357  -58.7113 N.am      22 UNK        -0.7600 
    123 O         -0.0752  -23.0548  -58.2732 O.2       22 UNK        -0.5000 
    124 C124        0.1904  -21.0895  -55.9536 C.3       23 UNK        -0.0398 
    125 S125        0.2693  -20.6760  -54.1786 S.3       23 UNK        -0.2404 
    126 C126        1.6225  -19.4601  -54.2332 C.3       23 UNK        -0.0205 
    127 H127       -5.8476  -14.4088  -50.3916 H         1 UNK         0.0600 
    128 H128       -4.8240  -15.6364  -51.1408 H         1 UNK         0.0600 
    129 H129       -4.9297  -14.0256  -51.8523 H         1 UNK         0.0600 
    130 H130       -3.0456  -15.9925  -49.8439 H         1 UNK         0.3000 
    131 H131       -1.4229  -13.6989  -48.8587 H         1 UNK         0.0600 
    132 H132        0.3487  -15.3720  -48.4620 H         1 UNK         0.0800 
    133 H133       -0.6947  -16.6674  -48.9779 H         1 UNK         0.0800 
    134 H134        2.3715  -15.1182  -51.4756 H         1 UNK         0.0800 
    135 H135        2.2454  -15.5449  -49.7922 H         1 UNK         0.0800 
    136 H136        1.2481  -16.9858  -53.1317 H         1 UNK         0.1150 
    137 H137        2.8994  -20.8422  -52.2820 H         1 UNK         0.1150 
    138 H138        3.0777  -17.7334  -49.3304 H         1 UNK         0.1150 
    139 H139        4.8844  -20.1055  -49.8256 H         1 UNK         0.0800 
    140 H140        3.7379  -21.3816  -50.1501 H         1 UNK         0.0800 
    141 H141        1.1920  -20.5627  -49.2069 H         1 UNK         0.0800 
    142 H142        0.9894  -19.9468  -47.5992 H         1 UNK         0.0800 
    143 H143        1.5580  -22.8419  -48.4121 H         1 UNK         0.0600 
    144 H144        2.1981  -23.3549  -46.3830 H         1 UNK         0.3000 
    145 H145        1.9228  -23.5316  -43.9385 H         1 UNK         0.0600 
    146 H146        4.1755  -22.6539  -43.2043 H         1 UNK         0.0600 
    147 H147        4.0881  -22.7498  -44.9553 H         1 UNK         0.0600 
    148 H148        3.9188  -21.1921  -44.1539 H         1 UNK         0.0600 
    149 H149        1.2767  -20.8574  -42.9627 H         1 UNK         0.3000 
    150 H150        0.0080  -21.1753  -40.6865 H         1 UNK         0.0600 
    151 H151        0.5307  -22.8696  -38.9743 H         1 UNK         0.0600 
    152 H152        0.7660  -21.2624  -38.3053 H         1 UNK         0.0600 
    153 H153        2.1581  -22.2373  -38.7748 H         1 UNK         0.0600 
    154 H154        1.1561  -19.3102  -40.8758 H         1 UNK         0.3000 
    155 H155        4.3279  -18.1440  -39.9956 H         1 UNK         0.0600 
    156 H156        3.2181  -18.4576  -42.8375 H         1 UNK         0.0600 
    157 H157        4.8162  -18.9634  -42.3046 H         1 UNK         0.0600 
    158 H158        4.4001  -17.2562  -42.3186 H         1 UNK         0.0600 
    159 H159        2.0926  -16.9008  -41.2805 H         1 UNK         0.3000 
    160 H160        0.2795  -16.1266  -38.2803 H         1 UNK         0.0600 
    161 H161        1.7829  -14.4089  -40.3260 H         1 UNK         0.0600 
    162 H162        2.0114  -14.3499  -38.5821 H         1 UNK         0.0600 
    163 H163        0.4713  -13.8711  -39.2798 H         1 UNK         0.0600 
    164 H164       -0.2753  -15.5960  -41.0237 H         1 UNK         0.3000 
    165 H165       -2.1361  -18.6054  -41.6695 H         1 UNK         0.0600 
    166 H166       -3.7944  -16.9025  -42.3502 H         1 UNK         0.0600 
    167 H167       -3.6971  -16.9808  -40.5992 H         1 UNK         0.0600 
    168 H168       -2.9301  -15.6521  -41.4565 H         1 UNK         0.0600 
    169 H169       -1.3844  -16.3338  -43.2740 H         1 UNK         0.3000 
    170 H170        1.5920  -17.7129  -44.6215 H         1 UNK         0.0600 
    171 H171       -0.2428  -18.8119  -45.9411 H         1 UNK         0.0600 
    172 H172       -1.1789  -17.3483  -45.8812 H         1 UNK         0.0600 
    173 H173        0.3585  -17.3779  -46.7476 H         1 UNK         0.0600 
    174 H174        0.0874  -15.3534  -45.2135 H         1 UNK         0.3000 
    175 H175        1.6239  -13.2126  -42.7735 H         1 UNK         0.0600 
    176 H176        1.7151  -13.4000  -45.8355 H         1 UNK         0.0600 
    177 H177        2.0457  -11.9609  -44.8712 H         1 UNK         0.0600 
    178 H178        3.1199  -13.3473  -44.7764 H         1 UNK         0.0600 
    179 H179       -0.4033  -12.7980  -44.7532 H         1 UNK         0.3000 
    180 H180       -3.1920  -13.2021  -42.4954 H         1 UNK         0.0600 
    181 H181       -2.0806  -11.2936  -44.6406 H         1 UNK         0.0600 
    182 H182       -2.3750  -10.8691  -42.9568 H         1 UNK         0.0600 
    183 H183       -3.7200  -11.3016  -44.0014 H         1 UNK         0.0600 
    184 H184       -2.1154  -14.0787  -45.1170 H         1 UNK         0.3000 
    185 H185       -3.2507  -16.5082  -45.2711 H         1 UNK         0.0600 
    186 H186       -5.1704  -17.2481  -46.5995 H         1 UNK         0.0600 
    187 H187       -5.7056  -16.7686  -45.0040 H         1 UNK         0.0600 
    188 H188       -5.9769  -15.6951  -46.3740 H         1 UNK         0.0600 
    189 H189       -3.9560  -15.4306  -47.7648 H         1 UNK         0.3000 
    190 H190       -0.6762  -21.0345  -46.3060 H         1 UNK         0.3000 
    191 H191       -2.9016  -21.0945  -48.0456 H         1 UNK         0.0600 
    192 H192       -2.6726  -19.3444  -46.3852 H         1 UNK         0.0600 
    193 H193       -4.1148  -20.2443  -45.9511 H         1 UNK         0.0600 
    194 H194       -2.6252  -20.5038  -45.0566 H         1 UNK         0.0600 
    195 H195       -1.8219  -23.5168  -45.8277 H         1 UNK         0.3000 
    196 H196       -4.3985  -24.9700  -45.7711 H         1 UNK         0.0600 
    197 H197       -3.1487  -26.5076  -44.2674 H         1 UNK         0.0600 
    198 H198       -3.0204  -24.8501  -43.7015 H         1 UNK         0.0600 
    199 H199       -1.6629  -25.6045  -44.5377 H         1 UNK         0.0600 
    200 H200       -1.4632  -24.8636  -47.6772 H         1 UNK         0.3000 
    201 H201       -1.6636  -27.6561  -48.6164 H         1 UNK         0.0600 
    202 H202        0.5842  -26.6790  -48.1789 H         1 UNK         0.0600 
    203 H203        0.2860  -25.4131  -49.3689 H         1 UNK         0.0600 
    204 H204        0.3886  -27.0929  -49.8750 H         1 UNK         0.0600 
    205 H205       -2.0902  -24.3023  -49.7831 H         1 UNK         0.3000 
    206 H206       -3.9585  -25.2460  -51.8943 H         1 UNK         0.0600 
    207 H207       -1.8266  -23.0368  -52.1640 H         1 UNK         0.0600 
    208 H208       -1.8419  -24.5599  -53.0496 H         1 UNK         0.0600 
    209 H209       -3.1045  -23.3717  -53.3260 H         1 UNK         0.0600 
    210 H210       -5.8915  -24.2617  -51.5274 H         1 UNK         0.3000 
    211 H211       -6.5295  -23.0911  -49.1554 H         1 UNK         0.0600 
    212 H212       -8.0346  -22.9497  -51.8149 H         1 UNK         0.0600 
    213 H213       -8.7431  -22.6146  -50.2396 H         1 UNK         0.0600 
    214 H214       -8.1475  -24.2261  -50.6028 H         1 UNK         0.0600 
    215 H215       -5.5050  -21.3450  -48.4197 H         1 UNK         0.3000 
    216 H216       -5.0260  -19.2529  -47.9183 H         1 UNK         0.0600 
    217 H217       -6.2770  -17.3201  -48.7847 H         1 UNK         0.0600 
    218 H218       -7.3898  -18.6325  -48.4359 H         1 UNK         0.0600 
    219 H219       -6.9318  -18.2717  -50.1011 H         1 UNK         0.0600 
    220 H220       -3.8878  -20.7497  -50.4568 H         1 UNK         0.3000 
    221 H221       -2.3280  -20.5836  -51.9816 H         1 UNK         0.0600 
    222 H222       -1.1085  -18.3394  -50.3111 H         1 UNK         0.0600 
    223 H223       -1.0483  -20.0356  -49.8523 H         1 UNK         0.0600 
    224 H224       -0.2658  -19.5053  -51.3258 H         1 UNK         0.0600 
    225 H225       -0.8530  -17.9134  -52.5515 H         1 UNK         0.3000 
    226 H226       -0.7969  -16.4182  -54.1954 H         1 UNK         0.0600 
    227 H227       -2.2681  -15.1302  -52.6842 H         1 UNK         0.0600 
    228 H228       -2.6877  -14.7937  -54.3510 H         1 UNK         0.0600 
    229 H229       -3.7049  -15.8583  -53.3821 H         1 UNK         0.0600 
    230 H230       -4.0493  -16.4572  -55.2694 H         1 UNK         0.3000 
    231 H231       -3.4297  -17.4196  -57.8812 H         1 UNK         0.0600 
    232 H232       -6.1277  -16.9809  -56.4907 H         1 UNK         0.0600 
    233 H233       -5.8982  -17.2064  -58.2207 H         1 UNK         0.0600 
    234 H234       -5.2389  -15.7823  -57.4324 H         1 UNK         0.0600 
    235 H235       -4.4679  -19.1100  -54.9529 H         1 UNK         0.3000 
    236 H236       -5.5176  -21.4591  -56.2466 H         1 UNK         0.0600 
    237 H237       -6.0959  -20.7702  -53.9039 H         1 UNK         0.0600 
    238 H238       -5.4912  -22.4163  -53.9843 H         1 UNK         0.0600 
    239 H239       -4.4483  -21.1331  -53.3948 H         1 UNK         0.0600 
    240 H240       -2.2732  -20.3306  -55.7815 H         1 UNK         0.3000 
    241 H241       -0.9513  -22.8973  -55.8063 H         1 UNK         0.0600 
    242 H242       -2.6104  -21.2278  -58.3947 H         1 UNK         0.3800 
    243 H243       -1.8091  -22.0846  -59.6863 H         1 UNK         0.3800 
    244 H244        0.1925  -20.1616  -56.5280 H         1 UNK         0.0800 
    245 H245        1.1157  -21.6084  -56.2107 H         1 UNK         0.0800 
    246 H246        1.3208  -18.6211  -54.8626 H         1 UNK         0.0800 
    247 H247        2.4946  -19.9087  -54.7112 H         1 UNK         0.0800 
@<TRIPOS>BOND
     1    1    2 1    
     2    1  127 1    
     3    1  128 1    
     4    1  129 1    
     5    2    3 2    
     6    2    4 am   BACKBONE|DICT|INTERRES
     7    4    5 1    
     8    4  130 1    
     9    5    6 1    
    10    5   65 1    
    11    5  131 1    
    12    6    7 1    
    13    6  132 1    
    14    6  133 1    
    15    7    8 1    
    16    8    9 1    
    17    8  134 1    
    18    8  135 1    
    19    9   10 ar   
    20    9   14 ar   
    21   10   11 ar   
    22   10  136 1    
    23   11   12 ar   
    24   11  126 1    
    25   12   13 ar   
    26   12  137 1    
    27   13   14 ar   
    28   13   15 1    
    29   14  138 1    
    30   15   16 1    
    31   15  139 1    
    32   15  140 1    
    33   16   17 1    
    34   17   18 1    
    35   17  141 1    
    36   17  142 1    
    37   18   19 1    
    38   18   67 1    
    39   18  143 1    
    40   19   20 am   BACKBONE|DICT|INTERRES
    41   19  144 1    
    42   20   21 2    
    43   20   22 1    
    44   22   23 1    
    45   22   24 1    
    46   22  145 1    
    47   23  146 1    
    48   23  147 1    
    49   23  148 1    
    50   24   25 am   BACKBONE|DICT|INTERRES
    51   24  149 1    
    52   25   26 2    
    53   25   27 1    
    54   27   28 1    
    55   27   29 1    
    56   27  150 1    
    57   28  151 1    
    58   28  152 1    
    59   28  153 1    
    60   29   30 am   BACKBONE|DICT|INTERRES
    61   29  154 1    
    62   30   31 2    
    63   30   32 1    
    64   32   33 1    
    65   32   34 1    
    66   32  155 1    
    67   33  156 1    
    68   33  157 1    
    69   33  158 1    
    70   34   35 am   BACKBONE|DICT|INTERRES
    71   34  159 1    
    72   35   36 2    
    73   35   37 1    
    74   37   38 1    
    75   37   39 1    
    76   37  160 1    
    77   38  161 1    
    78   38  162 1    
    79   38  163 1    
    80   39   40 am   BACKBONE|DICT|INTERRES
    81   39  164 1    
    82   40   41 2    
    83   40   42 1    
    84   42   43 1    
    85   42   44 1    
    86   42  165 1    
    87   43  166 1    
    88   43  167 1    
    89   43  168 1    
    90   44   45 am   BACKBONE|DICT|INTERRES
    91   44  169 1    
    92   45   46 2    
    93   45   47 1    
    94   47   48 1    
    95   47   49 1    
    96   47  170 1    
    97   48  171 1    
    98   48  172 1    
    99   48  173 1    
   100   49   50 am   BACKBONE|DICT|INTERRES
   101   49  174 1    
   102   50   51 2    
   103   50   52 1    
   104   52   53 1    
   105   52   54 1    
   106   52  175 1    
   107   53  176 1    
   108   53  177 1    
   109   53  178 1    
   110   54   55 am   BACKBONE|DICT|INTERRES
   111   54  179 1    
   112   55   56 2    
   113   55   57 1    
   114   57   58 1    
   115   57   59 1    
   116   57  180 1    
   117   58  181 1    
   118   58  182 1    
   119   58  183 1    
   120   59   60 am   BACKBONE|DICT|INTERRES
   121   59  184 1    
   122   60   61 2    
   123   60   62 1    
   124   62   63 1    
   125   62   64 1    
   126   62  185 1    
   127   63  186 1    
   128   63  187 1    
   129   63  188 1    
   130   64   65 am   BACKBONE|DICT|INTERRES
   131   64  189 1    
   132   65   66 2    
   133   67   68 2    
   134   67   69 am   BACKBONE|DICT|INTERRES
   135   69   70 1    
   136   69  190 1    
   137   70   71 1    
   138   70   72 1    
   139   70  191 1    
   140   71  192 1    
   141   71  193 1    
   142   71  194 1    
   143   72   73 2    
   144   72   74 am   BACKBONE|DICT|INTERRES
   145   74   75 1    
   146   74  195 1    
   147   75   76 1    
   148   75   77 1    
   149   75  196 1    
   150   76  197 1    
   151   76  198 1    
   152   76  199 1    
   153   77   78 2    
   154   77   79 am   BACKBONE|DICT|INTERRES
   155   79   80 1    
   156   79  200 1    
   157   80   81 1    
   158   80   82 1    
   159   80  201 1    
   160   81  202 1    
   161   81  203 1    
   162   81  204 1    
   163   82   83 2    
   164   82   84 am   BACKBONE|DICT|INTERRES
   165   84   85 1    
   166   84  205 1    
   167   85   86 1    
   168   85   87 1    
   169   85  206 1    
   170   86  207 1    
   171   86  208 1    
   172   86  209 1    
   173   87   88 2    
   174   87   89 am   BACKBONE|DICT|INTERRES
   175   89   90 1    
   176   89  210 1    
   177   90   91 1    
   178   90   92 1    
   179   90  211 1    
   180   91  212 1    
   181   91  213 1    
   182   91  214 1    
   183   92   93 2    
   184   92   94 am   BACKBONE|DICT|INTERRES
   185   94   95 1    
   186   94  215 1    
   187   95   96 1    
   188   95   97 1    
   189   95  216 1    
   190   96  217 1    
   191   96  218 1    
   192   96  219 1    
   193   97   98 2    
   194   97   99 am   BACKBONE|DICT|INTERRES
   195   99  100 1    
   196   99  220 1    
   197  100  101 1    
   198  100  102 1    
   199  100  221 1    
   200  101  222 1    
   201  101  223 1    
   202  101  224 1    
   203  102  103 2    
   204  102  104 am   BACKBONE|DICT|INTERRES
   205  104  105 1    
   206  104  225 1    
   207  105  106 1    
   208  105  107 1    
   209  105  226 1    
   210  106  227 1    
   211  106  228 1    
   212  106  229 1    
   213  107  108 2    
   214  107  109 am   BACKBONE|DICT|INTERRES
   215  109  110 1    
   216  109  230 1    
   217  110  111 1    
   218  110  112 1    
   219  110  231 1    
   220  111  232 1    
   221  111  233 1    
   222  111  234 1    
   223  112  113 2    
   224  112  114 am   BACKBONE|DICT|INTERRES
   225  114  115 1    
   226  114  235 1    
   227  115  116 1    
   228  115  117 1    
   229  115  236 1    
   230  116  237 1    
   231  116  238 1    
   232  116  239 1    
   233  117  118 2    
   234  117  119 am   BACKBONE|DICT|INTERRES
   235  119  120 1    
   236  119  240 1    
   237  120  121 1    
   238  120  124 1    
   239  120  241 1    
   240  121  122 am   BACKBONE|DICT|INTERRES
   241  121  123 2    
   242  122  242 1    
   243  122  243 1    
   244  124  125 1    
   245  124  244 1    
   246  124  245 1    
   247  125  126 1    
   248  126  246 1    
   249  126  247 1    
@<TRIPOS>SUBSTRUCTURE
     1 UNK         1 GROUP             0       ****    0 ROOT    
