@<TRIPOS>MOLECULE
3R540
247   249    1
SMALL
USER_CHARGES


@<TRIPOS>ATOM
      1 CA         -2.1373  -18.5313  -50.6963 C.3       0 UNK        -0.1800 
      2 C          -1.4569  -17.9420  -49.4694 C.2       0 UNK         0.5000 
      3 O          -1.0454  -18.6913  -48.5879 O.2       0 UNK        -0.5000 
      4 N          -1.3495  -16.6066  -49.4127 N.am      1 UNK        -0.5000 
      5 CA         -0.6565  -15.8298  -48.3715 C.3       1 UNK         0.1400 
      6 C6          0.8820  -16.0511  -48.3567 C.3       23 UNK        -0.0398 
      7 S7          1.6562  -15.4045  -49.8762 S.3       23 UNK        -0.2404 
      8 C8          3.2045  -16.3621  -49.9418 C.3       23 UNK        -0.0205 
      9 C9          2.9800  -17.8326  -50.2683 C.ar      23 UNK        -0.0193 
     10 C10         2.2412  -18.2040  -51.3967 C.ar      23 UNK        -0.1150 
     11 C11         2.0364  -19.5517  -51.7018 C.ar      23 UNK        -0.0193 
     12 C12         2.5887  -20.5326  -50.8756 C.ar      23 UNK        -0.1150 
     13 C13         3.3246  -20.1766  -49.7410 C.ar      23 UNK        -0.0193 
     14 C14         3.5227  -18.8248  -49.4460 C.ar      23 UNK        -0.1150 
     15 C15         3.8707  -21.2579  -48.8167 C.3       23 UNK        -0.0205 
     16 S16         3.0009  -21.3080  -47.2130 S.3       23 UNK        -0.2404 
     17 C17         1.2524  -21.2584  -47.7361 C.3       23 UNK        -0.0398 
     18 CA          0.3186  -22.1610  -46.9043 C.3       11 UNK         0.1400 
     19 N           0.3561  -21.8444  -45.4735 N.am      11 UNK        -0.5000 
     20 C          -0.2391  -22.5597  -44.5080 C.2       10 UNK         0.5000 
     21 O          -0.8719  -23.5950  -44.7210 O.2       10 UNK        -0.5000 
     22 CA         -0.1534  -22.0103  -43.0723 C.3       10 UNK         0.1400 
     23 CB          0.8956  -22.7812  -42.2570 C.3       10 UNK        -0.1800 
     24 N           0.1450  -20.5768  -43.0232 N.am      10 UNK        -0.5000 
     25 C          -0.7250  -19.6095  -43.3530 C.2       9 UNK         0.5000 
     26 O          -1.8688  -19.8322  -43.7496 O.2       9 UNK        -0.5000 
     27 CA         -0.2361  -18.1540  -43.2309 C.3       9 UNK         0.1400 
     28 CB         -0.5731  -17.6072  -41.8367 C.3       9 UNK        -0.1800 
     29 N           1.1998  -18.0079  -43.4771 N.am      9 UNK        -0.5000 
     30 C           1.7830  -18.2130  -44.6688 C.2       8 UNK         0.5000 
     31 O           1.1615  -18.5157  -45.6848 O.2       8 UNK        -0.5000 
     32 CA          3.3218  -18.1300  -44.7318 C.3       8 UNK         0.1400 
     33 CB          3.7811  -16.7452  -45.2087 C.3       8 UNK        -0.1800 
     34 N           3.9767  -18.4481  -43.4610 N.am      8 UNK        -0.5000 
     35 C           3.9041  -19.6389  -42.8491 C.2       7 UNK         0.5000 
     36 O           3.3011  -20.6041  -43.3165 O.2       7 UNK        -0.5000 
     37 CA          4.5788  -19.7782  -41.4715 C.3       7 UNK         0.1400 
     38 CB          5.9266  -20.5026  -41.6078 C.3       7 UNK        -0.1800 
     39 N           4.7890  -18.5178  -40.7534 N.am      7 UNK        -0.5000 
     40 C           3.8331  -17.6690  -40.3501 C.2       6 UNK         0.5000 
     41 O           2.6379  -17.8161  -40.6152 O.2       6 UNK        -0.5000 
     42 CA          4.2828  -16.4712  -39.4827 C.3       6 UNK         0.1400 
     43 CB          5.8080  -16.2147  -39.5019 C.3       6 UNK        -0.1800 
     44 N           3.5606  -15.2330  -39.7892 N.am      6 UNK        -0.5000 
     45 C           3.5173  -14.5930  -40.9653 C.2       5 UNK         0.5000 
     46 O           4.0622  -14.9953  -41.9969 O.2       5 UNK        -0.5000 
     47 CA          2.7958  -13.2325  -40.9520 C.3       5 UNK         0.1400 
     48 CB          3.7516  -12.1272  -40.4744 C.3       5 UNK        -0.1800 
     49 N           2.2926  -12.8717  -42.2754 N.am      5 UNK        -0.5000 
     50 C           1.1670  -13.3548  -42.8104 C.2       4 UNK         0.5000 
     51 O           0.4031  -14.1194  -42.2179 O.2       4 UNK        -0.5000 
     52 CA          0.8616  -12.9060  -44.2516 C.3       4 UNK         0.1400 
     53 CB          1.7328  -13.6758  -45.2549 C.3       4 UNK        -0.1800 
     54 N          -0.5496  -13.0888  -44.5977 N.am      4 UNK        -0.5000 
     55 C          -1.5359  -12.2865  -44.1697 C.2       3 UNK         0.5000 
     56 O          -1.3373  -11.2954  -43.4644 O.2       3 UNK        -0.5000 
     57 CA         -2.9803  -12.5989  -44.6149 C.3       3 UNK         0.1400 
     58 CB         -3.5151  -11.4814  -45.5261 C.3       3 UNK        -0.1800 
     59 N          -3.1137  -13.8704  -45.3253 N.am      3 UNK        -0.5000 
     60 C          -3.3289  -15.0590  -44.7468 C.2       2 UNK         0.5000 
     61 O          -3.4545  -15.2193  -43.5328 O.2       2 UNK        -0.5000 
     62 CA         -3.4199  -16.2776  -45.6906 C.3       2 UNK         0.1400 
     63 CB         -4.8880  -16.5331  -46.0683 C.3       2 UNK        -0.1800 
     64 N          -2.6279  -16.1549  -46.9221 N.am      2 UNK        -0.5000 
     65 C          -1.3015  -15.9567  -46.9713 C.2       1 UNK         0.5000 
     66 O          -0.6159  -15.8032  -45.9622 O.2       1 UNK        -0.5000 
     67 C          -1.1053  -22.0922  -47.4941 C.2       11 UNK         0.5000 
     68 O          -1.3630  -22.7423  -48.5070 O.2       11 UNK        -0.5000 
     69 N          -2.0099  -21.3413  -46.8472 N.am      12 UNK        -0.5000 
     70 CA         -3.4045  -21.1752  -47.2499 C.3       12 UNK         0.1400 
     71 CB         -4.0958  -20.1984  -46.2929 C.3       12 UNK        -0.1800 
     72 C          -4.1798  -22.5016  -47.3168 C.2       12 UNK         0.5000 
     73 O          -5.0127  -22.6626  -48.2070 O.2       12 UNK        -0.5000 
     74 N          -3.8664  -23.4379  -46.4093 N.am      13 UNK        -0.5000 
     75 CA         -4.4413  -24.7826  -46.3753 C.3       13 UNK         0.1400 
     76 CB         -4.0449  -25.4747  -45.0627 C.3       13 UNK        -0.1800 
     77 C          -4.0215  -25.6279  -47.5911 C.2       13 UNK         0.5000 
     78 O          -4.8706  -26.2753  -48.2045 O.2       13 UNK        -0.5000 
     79 N          -2.7302  -25.5644  -47.9477 N.am      14 UNK        -0.5000 
     80 CA         -2.1593  -26.2152  -49.1309 C.3       14 UNK         0.1400 
     81 CB         -0.6257  -26.1543  -49.0580 C.3       14 UNK        -0.1800 
     82 C          -2.6723  -25.5953  -50.4448 C.2       14 UNK         0.5000 
     83 O          -2.8711  -26.3125  -51.4250 O.2       14 UNK        -0.5000 
     84 N          -2.9273  -24.2815  -50.4166 N.am      15 UNK        -0.5000 
     85 CA         -3.5284  -23.4935  -51.4913 C.3       15 UNK         0.1400 
     86 CB         -3.0784  -22.0334  -51.3263 C.3       15 UNK        -0.1800 
     87 C          -5.0689  -23.6092  -51.5691 C.2       15 UNK         0.5000 
     88 O          -5.6867  -22.8287  -52.2957 O.2       15 UNK        -0.5000 
     89 N          -5.6618  -24.5630  -50.8331 N.am      16 UNK        -0.5000 
     90 CA         -7.0839  -24.9211  -50.8043 C.3       16 UNK         0.1400 
     91 CB         -7.5311  -25.4839  -52.1700 C.3       16 UNK        -0.1800 
     92 C          -7.9746  -23.7695  -50.2996 C.2       16 UNK         0.5000 
     93 O          -8.8956  -23.3415  -50.9957 O.2       16 UNK        -0.5000 
     94 N          -7.6496  -23.2775  -49.0964 N.am      17 UNK        -0.5000 
     95 CA         -8.2298  -22.1100  -48.4211 C.3       17 UNK         0.1400 
     96 CB         -9.7328  -22.3067  -48.1313 C.3       17 UNK        -0.1800 
     97 C          -7.9099  -20.8005  -49.1707 C.2       17 UNK         0.5000 
     98 O          -8.7609  -19.9155  -49.2738 O.2       17 UNK        -0.5000 
     99 N          -6.6735  -20.7252  -49.6863 N.am      18 UNK        -0.5000 
    100 CA        -6.1086  -19.6486  -50.5051 C.3       18 UNK         0.1400 
    101 CB        -5.8628  -18.3874  -49.6525 C.3       18 UNK        -0.1800 
    102 C         -6.9043  -19.3757  -51.7999 C.2       18 UNK         0.5000 
    103 O         -7.0433  -18.2230  -52.2135 O.2       18 UNK        -0.5000 
    104 N         -7.4060  -20.4507  -52.4227 N.am      19 UNK        -0.5000 
    105 CA        -8.0141  -20.4259  -53.7513 C.3       19 UNK         0.1400 
    106 CB        -8.8766  -21.6816  -53.9440 C.3       19 UNK        -0.1800 
    107 C         -6.9362  -20.3292  -54.8445 C.2       19 UNK         0.5000 
    108 O         -7.1197  -19.6002  -55.8205 O.2       19 UNK        -0.5000 
    109 N         -5.8214  -21.0439  -54.6426 N.am      20 UNK        -0.5000 
    110 CA        -4.6016  -20.9160  -55.4343 C.3       20 UNK         0.1400 
    111 CB        -3.8099  -22.2297  -55.3413 C.3       20 UNK        -0.1800 
    112 C         -3.7534  -19.7315  -54.9343 C.2       20 UNK         0.5000 
    113 O         -3.9047  -19.2957  -53.7899 O.2       20 UNK        -0.5000 
    114 N         -2.8512  -19.2553  -55.7952 N.am      21 UNK        -0.5000 
    115 CA        -1.8863  -18.2003  -55.5064 C.3       21 UNK         0.1400 
    116 CB        -2.4420  -16.8493  -55.9864 C.3       21 UNK        -0.1800 
    117 C         -0.5620  -18.5405  -56.2035 C.2       21 UNK         0.5000 
    118 O         -0.5624  -19.2809  -57.1913 O.2       21 UNK        -0.5000 
    119 N          0.5338  -17.9915  -55.6717 N.am      22 UNK        -0.5000 
    120 CA         1.9159  -18.2481  -56.1163 C.3       22 UNK         0.1400 
    121 C          2.5831  -17.0136  -56.7919 C.2       22 UNK         0.5000 
    122 N          1.8771  -15.9115  -57.0160 N.am      22 UNK        -0.7600 
    123 O          3.7603  -17.0580  -57.1387 O.2       22 UNK        -0.5000 
    124 C124        2.7849  -18.8031  -54.9550 C.3       23 UNK        -0.0398 
    125 S125        2.1955  -20.4207  -54.3409 S.3       23 UNK        -0.2404 
    126 C126        1.1872  -19.9539  -52.8975 C.3       23 UNK        -0.0205 
    127 H127       -2.4994  -17.7604  -51.3769 H         1 UNK         0.0600 
    128 H128       -2.9854  -19.1406  -50.3907 H         1 UNK         0.0600 
    129 H129       -1.4408  -19.1682  -51.2415 H         1 UNK         0.0600 
    130 H130       -1.7161  -16.0575  -50.1773 H         1 UNK         0.3000 
    131 H131       -0.8220  -14.7846  -48.6373 H         1 UNK         0.0600 
    132 H132        1.1190  -17.1085  -48.2281 H         1 UNK         0.0800 
    133 H133        1.3538  -15.5325  -47.5226 H         1 UNK         0.0800 
    134 H134        3.7322  -16.2466  -48.9937 H         1 UNK         0.0800 
    135 H135        3.8498  -15.9318  -50.7086 H         1 UNK         0.0800 
    136 H136        1.8132  -17.4388  -52.0285 H         1 UNK         0.1150 
    137 H137        2.4237  -21.5759  -51.1061 H         1 UNK         0.1150 
    138 H138        4.0861  -18.5500  -48.5653 H         1 UNK         0.1150 
    139 H139        3.7973  -22.2395  -49.2875 H         1 UNK         0.0800 
    140 H140        4.9326  -21.0817  -48.6404 H         1 UNK         0.0800 
    141 H141        1.1900  -21.5628  -48.7812 H         1 UNK         0.0800 
    142 H142        0.9222  -20.2191  -47.7031 H         1 UNK         0.0800 
    143 H143        0.6588  -23.1925  -47.0167 H         1 UNK         0.0600 
    144 H144        0.8535  -21.0015  -45.2193 H         1 UNK         0.3000 
    145 H145       -1.1268  -22.1690  -42.6035 H         1 UNK         0.0600 
    146 H146        0.9670  -22.3990  -41.2386 H         1 UNK         0.0600 
    147 H147        0.6334  -23.8378  -42.1899 H         1 UNK         0.0600 
    148 H148        1.8849  -22.7216  -42.7105 H         1 UNK         0.0600 
    149 H149        1.0897  -20.3200  -42.7684 H         1 UNK         0.3000 
    150 H150       -0.7707  -17.5573  -43.9717 H         1 UNK         0.0600 
    151 H151       -1.6486  -17.6362  -41.6568 H         1 UNK         0.0600 
    152 H152       -0.2557  -16.5715  -41.7302 H         1 UNK         0.0600 
    153 H153       -0.0905  -18.1863  -41.0485 H         1 UNK         0.0600 
    154 H154        1.7789  -17.7884  -42.6751 H         1 UNK         0.3000 
    155 H155        3.6539  -18.8648  -45.4678 H         1 UNK         0.0600 
    156 H156        3.5360  -15.9717  -44.4811 H         1 UNK         0.0600 
    157 H157        3.3039  -16.4779  -46.1524 H         1 UNK         0.0600 
    158 H158        4.8585  -16.7217  -45.3718 H         1 UNK         0.0600 
    159 H159        4.4625  -17.6941  -42.9961 H         1 UNK         0.3000 
    160 H160        3.9211  -20.3968  -40.8573 H         1 UNK         0.0600 
    161 H161        6.3680  -20.7045  -40.6317 H         1 UNK         0.0600 
    162 H162        6.6411  -19.9157  -42.1864 H         1 UNK         0.0600 
    163 H163        5.8060  -21.4626  -42.1120 H         1 UNK         0.0600 
    164 H164        5.7436  -18.3071  -40.5009 H         1 UNK         0.3000 
    165 H165        4.0095  -16.7314  -38.4592 H         1 UNK         0.0600 
    166 H166        6.0649  -15.3515  -38.8877 H         1 UNK         0.0600 
    167 H167        6.3619  -17.0627  -39.0975 H         1 UNK         0.0600 
    168 H168        6.1771  -16.0217  -40.5101 H         1 UNK         0.0600 
    169 H169        3.0561  -14.8310  -39.0117 H         1 UNK         0.3000 
    170 H170        1.9554  -13.2874  -40.2563 H         1 UNK         0.0600 
    171 H171        4.1276  -12.3388  -39.4726 H         1 UNK         0.0600 
    172 H172        4.6150  -12.0288  -41.1338 H         1 UNK         0.0600 
    173 H173        3.2485  -11.1609  -40.4329 H         1 UNK         0.0600 
    174 H174        2.8950  -12.2889  -42.8378 H         1 UNK         0.3000 
    175 H175        1.1020  -11.8440  -44.3382 H         1 UNK         0.0600 
    176 H176        1.5870  -14.7513  -45.1611 H         1 UNK         0.0600 
    177 H177        1.5038  -13.3893  -46.2813 H         1 UNK         0.0600 
    178 H178        2.7924  -13.4769  -45.0907 H         1 UNK         0.0600 
    179 H179       -0.7813  -13.9412  -45.0951 H         1 UNK         0.3000 
    180 H180       -3.5976  -12.6229  -43.7143 H         1 UNK         0.0600 
    181 H181       -2.9298  -11.3944  -46.4424 H         1 UNK         0.0600 
    182 H182       -3.4825  -10.5141  -45.0230 H         1 UNK         0.0600 
    183 H183       -4.5529  -11.6634  -45.8059 H         1 UNK         0.0600 
    184 H184       -3.0246  -13.8377  -46.3300 H         1 UNK         0.3000 
    185 H185       -3.0443  -17.1443  -45.1429 H         1 UNK         0.0600 
    186 H186       -4.9935  -17.4100  -46.7045 H         1 UNK         0.0600 
    187 H187       -5.4952  -16.7046  -45.1785 H         1 UNK         0.0600 
    188 H188       -5.3190  -15.6843  -46.6007 H         1 UNK         0.0600 
    189 H189       -3.1249  -16.2597  -47.7942 H         1 UNK         0.3000 
    190 H190       -1.7141  -20.8326  -46.0250 H         1 UNK         0.3000 
    191 H191       -3.4065  -20.7305  -48.2459 H         1 UNK         0.0600 
    192 H192       -4.1366  -20.5897  -45.2756 H         1 UNK         0.0600 
    193 H193       -5.1192  -19.9947  -46.6106 H         1 UNK         0.0600 
    194 H194       -3.5626  -19.2492  -46.2626 H         1 UNK         0.0600 
    195 H195       -3.1416  -23.2345  -45.7344 H         1 UNK         0.3000 
    196 H196       -5.5290  -24.6867  -46.3946 H         1 UNK         0.0600 
    197 H197       -4.4730  -26.4763  -45.0045 H         1 UNK         0.0600 
    198 H198       -4.4061  -24.9165  -44.1989 H         1 UNK         0.0600 
    199 H199       -2.9627  -25.5733  -44.9682 H         1 UNK         0.0600 
    200 H200       -2.1114  -24.9706  -47.4147 H         1 UNK         0.3000 
    201 H201       -2.4601  -27.2649  -49.1185 H         1 UNK         0.0600 
    202 H202       -0.2542  -26.6348  -48.1528 H         1 UNK         0.0600 
    203 H203       -0.2590  -25.1276  -49.0677 H         1 UNK         0.0600 
    204 H204       -0.1756  -26.6698  -49.9073 H         1 UNK         0.0600 
    205 H205       -2.6578  -23.7659  -49.5842 H         1 UNK         0.3000 
    206 H206       -3.1392  -23.8596  -52.4427 H         1 UNK         0.0600 
    207 H207       -1.9915  -21.9504  -51.3473 H         1 UNK         0.0600 
    208 H208       -3.4650  -21.3996  -52.1238 H         1 UNK         0.0600 
    209 H209       -3.4234  -21.6204  -50.3804 H         1 UNK         0.0600 
    210 H210       -5.0694  -25.1187  -50.2304 H         1 UNK         0.3000 
    211 H211       -7.1818  -25.7257  -50.0739 H         1 UNK         0.0600 
    212 H212       -7.4733  -24.7352  -52.9600 H         1 UNK         0.0600 
    213 H213       -8.5629  -25.8345  -52.1279 H         1 UNK         0.0600 
    214 H214       -6.9126  -26.3308  -52.4670 H         1 UNK         0.0600 
    215 H215       -6.8038  -23.6308  -48.6635 H         1 UNK         0.3000 
    216 H216       -7.7216  -22.0359  -47.4585 H         1 UNK         0.0600 
    217 H217      -10.1127  -21.5072  -47.4944 H         1 UNK         0.0600 
    218 H218       -9.9146  -23.2480  -47.6129 H         1 UNK         0.0600 
    219 H219      -10.3293  -22.3043  -49.0438 H         1 UNK         0.0600 
    220 H220       -6.0588  -21.5107  -49.5005 H         1 UNK         0.3000 
    221 H221       -5.1370  -20.0062  -50.8423 H         1 UNK         0.0600 
    222 H222       -6.7953  -17.9584  -49.2850 H         1 UNK         0.0600 
    223 H223       -5.2336  -18.6154  -48.7931 H         1 UNK         0.0600 
    224 H224       -5.3507  -17.6168  -50.2298 H         1 UNK         0.0600 
    225 H225       -7.2110  -21.3670  -52.0362 H         1 UNK         0.3000 
    226 H226       -8.6622  -19.5505  -53.8305 H         1 UNK         0.0600 
    227 H227       -9.6745  -21.7274  -53.2026 H         1 UNK         0.0600 
    228 H228       -9.3451  -21.6873  -54.9288 H         1 UNK         0.0600 
    229 H229       -8.2853  -22.5934  -53.8540 H         1 UNK         0.0600 
    230 H230       -5.7523  -21.5994  -53.7947 H         1 UNK         0.3000 
    231 H231       -4.8660  -20.7428  -56.4797 H         1 UNK         0.0600 
    232 H232       -4.4144  -23.0788  -55.6610 H         1 UNK         0.0600 
    233 H233       -3.4717  -22.4238  -54.3248 H         1 UNK         0.0600 
    234 H234       -2.9260  -22.2013  -55.9795 H         1 UNK         0.0600 
    235 H235       -2.7180  -19.7049  -56.6923 H         1 UNK         0.3000 
    236 H236       -1.6987  -18.1525  -54.4312 H         1 UNK         0.0600 
    237 H237       -1.7446  -16.0385  -55.7737 H         1 UNK         0.0600 
    238 H238       -2.6292  -16.8511  -57.0609 H         1 UNK         0.0600 
    239 H239       -3.3796  -16.6099  -55.4841 H         1 UNK         0.0600 
    240 H240        0.4393  -17.3631  -54.8873 H         1 UNK         0.3000 
    241 H241        1.9076  -19.0099  -56.8978 H         1 UNK         0.0600 
    242 H242        2.3195  -15.1224  -57.4612 H         1 UNK         0.3800 
    243 H243        0.9014  -15.8647  -56.7710 H         1 UNK         0.3800 
    244 H244        3.8132  -18.9540  -55.2876 H         1 UNK         0.0800 
    245 H245        2.8406  -18.0848  -54.1375 H         1 UNK         0.0800 
    246 H246        0.4977  -19.1531  -53.1640 H         1 UNK         0.0800 
    247 H247        0.5615  -20.8042  -52.6219 H         1 UNK         0.0800 
@<TRIPOS>BOND
     1    1    2 1    
     2    1  127 1    
     3    1  128 1    
     4    1  129 1    
     5    2    3 2    
     6    2    4 am   BACKBONE|DICT|INTERRES
     7    4    5 1    
     8    4  130 1    
     9    5    6 1    
    10    5   65 1    
    11    5  131 1    
    12    6    7 1    
    13    6  132 1    
    14    6  133 1    
    15    7    8 1    
    16    8    9 1    
    17    8  134 1    
    18    8  135 1    
    19    9   10 ar   
    20    9   14 ar   
    21   10   11 ar   
    22   10  136 1    
    23   11   12 ar   
    24   11  126 1    
    25   12   13 ar   
    26   12  137 1    
    27   13   14 ar   
    28   13   15 1    
    29   14  138 1    
    30   15   16 1    
    31   15  139 1    
    32   15  140 1    
    33   16   17 1    
    34   17   18 1    
    35   17  141 1    
    36   17  142 1    
    37   18   19 1    
    38   18   67 1    
    39   18  143 1    
    40   19   20 am   BACKBONE|DICT|INTERRES
    41   19  144 1    
    42   20   21 2    
    43   20   22 1    
    44   22   23 1    
    45   22   24 1    
    46   22  145 1    
    47   23  146 1    
    48   23  147 1    
    49   23  148 1    
    50   24   25 am   BACKBONE|DICT|INTERRES
    51   24  149 1    
    52   25   26 2    
    53   25   27 1    
    54   27   28 1    
    55   27   29 1    
    56   27  150 1    
    57   28  151 1    
    58   28  152 1    
    59   28  153 1    
    60   29   30 am   BACKBONE|DICT|INTERRES
    61   29  154 1    
    62   30   31 2    
    63   30   32 1    
    64   32   33 1    
    65   32   34 1    
    66   32  155 1    
    67   33  156 1    
    68   33  157 1    
    69   33  158 1    
    70   34   35 am   BACKBONE|DICT|INTERRES
    71   34  159 1    
    72   35   36 2    
    73   35   37 1    
    74   37   38 1    
    75   37   39 1    
    76   37  160 1    
    77   38  161 1    
    78   38  162 1    
    79   38  163 1    
    80   39   40 am   BACKBONE|DICT|INTERRES
    81   39  164 1    
    82   40   41 2    
    83   40   42 1    
    84   42   43 1    
    85   42   44 1    
    86   42  165 1    
    87   43  166 1    
    88   43  167 1    
    89   43  168 1    
    90   44   45 am   BACKBONE|DICT|INTERRES
    91   44  169 1    
    92   45   46 2    
    93   45   47 1    
    94   47   48 1    
    95   47   49 1    
    96   47  170 1    
    97   48  171 1    
    98   48  172 1    
    99   48  173 1    
   100   49   50 am   BACKBONE|DICT|INTERRES
   101   49  174 1    
   102   50   51 2    
   103   50   52 1    
   104   52   53 1    
   105   52   54 1    
   106   52  175 1    
   107   53  176 1    
   108   53  177 1    
   109   53  178 1    
   110   54   55 am   BACKBONE|DICT|INTERRES
   111   54  179 1    
   112   55   56 2    
   113   55   57 1    
   114   57   58 1    
   115   57   59 1    
   116   57  180 1    
   117   58  181 1    
   118   58  182 1    
   119   58  183 1    
   120   59   60 am   BACKBONE|DICT|INTERRES
   121   59  184 1    
   122   60   61 2    
   123   60   62 1    
   124   62   63 1    
   125   62   64 1    
   126   62  185 1    
   127   63  186 1    
   128   63  187 1    
   129   63  188 1    
   130   64   65 am   BACKBONE|DICT|INTERRES
   131   64  189 1    
   132   65   66 2    
   133   67   68 2    
   134   67   69 am   BACKBONE|DICT|INTERRES
   135   69   70 1    
   136   69  190 1    
   137   70   71 1    
   138   70   72 1    
   139   70  191 1    
   140   71  192 1    
   141   71  193 1    
   142   71  194 1    
   143   72   73 2    
   144   72   74 am   BACKBONE|DICT|INTERRES
   145   74   75 1    
   146   74  195 1    
   147   75   76 1    
   148   75   77 1    
   149   75  196 1    
   150   76  197 1    
   151   76  198 1    
   152   76  199 1    
   153   77   78 2    
   154   77   79 am   BACKBONE|DICT|INTERRES
   155   79   80 1    
   156   79  200 1    
   157   80   81 1    
   158   80   82 1    
   159   80  201 1    
   160   81  202 1    
   161   81  203 1    
   162   81  204 1    
   163   82   83 2    
   164   82   84 am   BACKBONE|DICT|INTERRES
   165   84   85 1    
   166   84  205 1    
   167   85   86 1    
   168   85   87 1    
   169   85  206 1    
   170   86  207 1    
   171   86  208 1    
   172   86  209 1    
   173   87   88 2    
   174   87   89 am   BACKBONE|DICT|INTERRES
   175   89   90 1    
   176   89  210 1    
   177   90   91 1    
   178   90   92 1    
   179   90  211 1    
   180   91  212 1    
   181   91  213 1    
   182   91  214 1    
   183   92   93 2    
   184   92   94 am   BACKBONE|DICT|INTERRES
   185   94   95 1    
   186   94  215 1    
   187   95   96 1    
   188   95   97 1    
   189   95  216 1    
   190   96  217 1    
   191   96  218 1    
   192   96  219 1    
   193   97   98 2    
   194   97   99 am   BACKBONE|DICT|INTERRES
   195   99  100 1    
   196   99  220 1    
   197  100  101 1    
   198  100  102 1    
   199  100  221 1    
   200  101  222 1    
   201  101  223 1    
   202  101  224 1    
   203  102  103 2    
   204  102  104 am   BACKBONE|DICT|INTERRES
   205  104  105 1    
   206  104  225 1    
   207  105  106 1    
   208  105  107 1    
   209  105  226 1    
   210  106  227 1    
   211  106  228 1    
   212  106  229 1    
   213  107  108 2    
   214  107  109 am   BACKBONE|DICT|INTERRES
   215  109  110 1    
   216  109  230 1    
   217  110  111 1    
   218  110  112 1    
   219  110  231 1    
   220  111  232 1    
   221  111  233 1    
   222  111  234 1    
   223  112  113 2    
   224  112  114 am   BACKBONE|DICT|INTERRES
   225  114  115 1    
   226  114  235 1    
   227  115  116 1    
   228  115  117 1    
   229  115  236 1    
   230  116  237 1    
   231  116  238 1    
   232  116  239 1    
   233  117  118 2    
   234  117  119 am   BACKBONE|DICT|INTERRES
   235  119  120 1    
   236  119  240 1    
   237  120  121 1    
   238  120  124 1    
   239  120  241 1    
   240  121  122 am   BACKBONE|DICT|INTERRES
   241  121  123 2    
   242  122  242 1    
   243  122  243 1    
   244  124  125 1    
   245  124  244 1    
   246  124  245 1    
   247  125  126 1    
   248  126  246 1    
   249  126  247 1    
@<TRIPOS>SUBSTRUCTURE
     1 UNK         1 GROUP             0       ****    0 ROOT    
