@<TRIPOS>MOLECULE
3R540
247   249    1
SMALL
USER_CHARGES


@<TRIPOS>ATOM
      1 CA         -3.1395  -18.5711  -45.6356 C.3       0 UNK        -0.1800 
      2 C          -2.6864  -17.3215  -46.3745 C.2       0 UNK         0.5000 
      3 O          -1.8460  -16.5791  -45.8688 O.2       0 UNK        -0.5000 
      4 N          -3.2533  -17.0964  -47.5662 N.am      1 UNK        -0.5000 
      5 CA         -3.0639  -15.9417  -48.4467 C.3       1 UNK         0.1400 
      6 C6         -1.8015  -16.0499  -49.3599 C.3       23 UNK        -0.0398 
      7 S7         -0.1487  -15.5768  -48.7218 S.3       23 UNK        -0.2404 
      8 C8          0.6026  -17.1567  -48.2038 C.3       23 UNK        -0.0205 
      9 C9          0.9701  -18.1625  -49.2925 C.ar      23 UNK        -0.0193 
     10 C10         0.7103  -17.9739  -50.6553 C.ar      23 UNK        -0.1150 
     11 C11         1.0305  -18.9670  -51.5861 C.ar      23 UNK        -0.0193 
     12 C12         1.6264  -20.1556  -51.1520 C.ar      23 UNK        -0.1150 
     13 C13         1.9223  -20.3429  -49.7980 C.ar      23 UNK        -0.0193 
     14 C14         1.5993  -19.3393  -48.8837 C.ar      23 UNK        -0.1150 
     15 C15         2.6136  -21.6115  -49.3182 C.3       23 UNK        -0.0205 
     16 S16         1.4489  -22.7953  -48.5714 S.3       23 UNK        -0.2404 
     17 C17         1.1599  -22.0653  -46.9174 C.3       23 UNK        -0.0398 
     18 CA          0.4652  -23.0273  -45.9243 C.3       11 UNK         0.1400 
     19 N           0.5971  -22.5540  -44.5445 N.am      11 UNK        -0.5000 
     20 C           0.3353  -23.2895  -43.4549 C.2       10 UNK         0.5000 
     21 O          -0.0240  -24.4669  -43.5011 O.2       10 UNK        -0.5000 
     22 CA          0.4631  -22.5924  -42.0871 C.3       10 UNK         0.1400 
     23 CB          1.8198  -22.9274  -41.4496 C.3       10 UNK        -0.1800 
     24 N           0.2940  -21.1359  -42.1349 N.am      10 UNK        -0.5000 
     25 C          -0.8301  -20.5024  -42.5006 C.2       9 UNK         0.5000 
     26 O          -1.8499  -21.0864  -42.8649 O.2       9 UNK        -0.5000 
     27 CA         -0.7996  -18.9617  -42.5025 C.3       9 UNK         0.1400 
     28 CB         -1.0010  -18.4037  -41.0862 C.3       9 UNK        -0.1800 
     29 N           0.4253  -18.4023  -43.0721 N.am      9 UNK        -0.5000 
     30 C           0.8456  -18.5941  -44.3310 C.2       8 UNK         0.5000 
     31 O           0.2711  -19.3025  -45.1564 O.2       8 UNK        -0.5000 
     32 CA          2.1749  -17.9233  -44.7062 C.3       8 UNK         0.1400 
     33 CB          2.0088  -16.4003  -44.8598 C.3       8 UNK        -0.1800 
     34 N           3.2084  -18.2228  -43.7158 N.am      8 UNK        -0.5000 
     35 C           3.7544  -19.4357  -43.5394 C.2       7 UNK         0.5000 
     36 O           3.5122  -20.4075  -44.2559 O.2       7 UNK        -0.5000 
     37 CA          4.7112  -19.5972  -42.3425 C.3       7 UNK         0.1400 
     38 CB          6.1472  -19.2324  -42.7473 C.3       7 UNK        -0.1800 
     39 N           4.3197  -18.7943  -41.1815 N.am      7 UNK        -0.5000 
     40 C           3.2098  -18.9943  -40.4557 C.2       6 UNK         0.5000 
     41 O           2.4012  -19.8925  -40.6774 O.2       6 UNK        -0.5000 
     42 CA          2.9263  -17.9852  -39.3276 C.3       6 UNK         0.1400 
     43 CB          3.6487  -18.3983  -38.0369 C.3       6 UNK        -0.1800 
     44 N           3.3031  -16.6147  -39.6824 N.am      6 UNK        -0.5000 
     45 C           2.7677  -15.9241  -40.6964 C.2       5 UNK         0.5000 
     46 O           1.8768  -16.3638  -41.4309 O.2       5 UNK        -0.5000 
     47 CA          3.3702  -14.5405  -40.9668 C.3       5 UNK         0.1400 
     48 CB          4.7571  -14.6657  -41.6242 C.3       5 UNK        -0.1800 
     49 N           2.4757  -13.8100  -41.8534 N.am      5 UNK        -0.5000 
     50 C           2.3738  -12.4813  -41.9481 C.2       4 UNK         0.5000 
     51 O           3.0598  -11.6972  -41.2906 O.2       4 UNK        -0.5000 
     52 CA          1.3428  -11.9251  -42.9505 C.3       4 UNK         0.1400 
     53 CB          2.0518  -11.3356  -44.1804 C.3       4 UNK        -0.1800 
     54 N           0.3616  -12.9095  -43.4131 N.am      4 UNK        -0.5000 
     55 C          -0.6574  -13.3913  -42.6877 C.2       3 UNK         0.5000 
     56 O          -0.8365  -13.1193  -41.4994 O.2       3 UNK        -0.5000 
     57 CA         -1.6401  -14.3155  -43.4402 C.3       3 UNK         0.1400 
     58 CB         -2.9831  -14.5034  -42.7068 C.3       3 UNK        -0.1800 
     59 N          -1.8638  -13.9027  -44.8328 N.am      3 UNK        -0.5000 
     60 C          -2.3192  -12.7173  -45.2747 C.2       2 UNK         0.5000 
     61 O          -2.6598  -11.7946  -44.5336 O.2       2 UNK        -0.5000 
     62 CA         -2.3781  -12.5006  -46.8018 C.3       2 UNK         0.1400 
     63 CB         -1.2160  -11.6012  -47.2531 C.3       2 UNK        -0.1800 
     64 N          -2.3263  -13.7435  -47.5712 N.am      2 UNK        -0.5000 
     65 C          -3.3360  -14.6079  -47.7075 C.2       1 UNK         0.5000 
     66 O          -4.4650  -14.3980  -47.2586 O.2       1 UNK        -0.5000 
     67 C          -1.0031  -23.3184  -46.3170 C.2       11 UNK         0.5000 
     68 O          -1.2208  -24.0934  -47.2463 O.2       11 UNK        -0.5000 
     69 N          -1.9887  -22.7663  -45.5876 N.am      12 UNK        -0.5000 
     70 CA         -3.4273  -22.9804  -45.8062 C.3       12 UNK         0.1400 
     71 CB         -4.2221  -22.1621  -44.7786 C.3       12 UNK        -0.1800 
     72 C          -3.8795  -24.4555  -45.7552 C.2       12 UNK         0.5000 
     73 O          -4.9153  -24.7933  -46.3287 O.2       12 UNK        -0.5000 
     74 N          -3.0959  -25.3085  -45.0820 N.am      13 UNK        -0.5000 
     75 CA         -3.2939  -26.7552  -45.0244 C.3       13 UNK         0.1400 
     76 CB         -2.4794  -27.3098  -43.8452 C.3       13 UNK        -0.1800 
     77 C          -2.9125  -27.4855  -46.3304 C.2       13 UNK         0.5000 
     78 O          -3.3380  -28.6270  -46.5138 O.2       13 UNK        -0.5000 
     79 N          -2.1110  -26.8456  -47.1941 N.am      14 UNK        -0.5000 
     80 CA         -1.5686  -27.4281  -48.4223 C.3       14 UNK         0.1400 
     81 CB         -0.0352  -27.4702  -48.3149 C.3       14 UNK        -0.1800 
     82 C          -1.9919  -26.6480  -49.6776 C.2       14 UNK         0.5000 
     83 O          -2.3243  -27.2704  -50.6875 O.2       14 UNK        -0.5000 
     84 N          -1.9606  -25.3130  -49.6086 N.am      15 UNK        -0.5000 
     85 CA         -2.2191  -24.4024  -50.7177 C.3       15 UNK         0.1400 
     86 CB         -0.9725  -24.3158  -51.6274 C.3       15 UNK        -0.1800 
     87 C          -2.6906  -23.0500  -50.1542 C.2       15 UNK         0.5000 
     88 O          -3.6877  -23.0179  -49.4332 O.2       15 UNK        -0.5000 
     89 N          -1.9895  -21.9622  -50.5092 N.am      16 UNK        -0.5000 
     90 CA         -2.2122  -20.5661  -50.1026 C.3       16 UNK         0.1400 
     91 CB         -2.0725  -20.4096  -48.5798 C.3       16 UNK        -0.1800 
     92 C          -3.5198  -19.9346  -50.6263 C.2       16 UNK         0.5000 
     93 O          -3.8839  -18.8378  -50.1960 O.2       16 UNK        -0.5000 
     94 N          -4.1949  -20.6134  -51.5619 N.am      17 UNK        -0.5000 
     95 CA         -5.4158  -20.1692  -52.2278 C.3       17 UNK         0.1400 
     96 CB         -6.1594  -21.4055  -52.7645 C.3       17 UNK        -0.1800 
     97 C          -5.0808  -19.1616  -53.3411 C.2       17 UNK         0.5000 
     98 O          -5.1679  -19.4959  -54.5236 O.2       17 UNK        -0.5000 
     99 N          -4.6644  -17.9516  -52.9480 N.am      18 UNK        -0.5000 
    100 CA        -4.1758  -16.8866  -53.8322 C.3       18 UNK         0.1400 
    101 CB        -3.7365  -15.6891  -52.9794 C.3       18 UNK        -0.1800 
    102 C         -5.1669  -16.4484  -54.9296 C.2       18 UNK         0.5000 
    103 O         -4.7326  -16.0503  -56.0105 O.2       18 UNK        -0.5000 
    104 N         -6.4732  -16.5944  -54.6661 N.am      19 UNK        -0.5000 
    105 CA        -7.5578  -16.3871  -55.6319 C.3       19 UNK         0.1400 
    106 CB        -8.9009  -16.4508  -54.8889 C.3       19 UNK        -0.1800 
    107 C         -7.5453  -17.3902  -56.8072 C.2       19 UNK         0.5000 
    108 O         -8.0731  -17.0763  -57.8744 O.2       19 UNK        -0.5000 
    109 N         -6.9292  -18.5605  -56.5976 N.am      20 UNK        -0.5000 
    110 CA        -6.6975  -19.6098  -57.5899 C.3       20 UNK         0.1400 
    111 CB        -7.2704  -20.9296  -57.0426 C.3       20 UNK        -0.1800 
    112 C         -5.1930  -19.7332  -57.9147 C.2       20 UNK         0.5000 
    113 O         -4.7475  -20.7956  -58.3540 O.2       20 UNK        -0.5000 
    114 N         -4.4250  -18.6611  -57.6554 N.am      21 UNK        -0.5000 
    115 CA        -2.9724  -18.5333  -57.8331 C.3       21 UNK         0.1400 
    116 CB        -2.6128  -18.5351  -59.3333 C.3       21 UNK        -0.1800 
    117 C         -2.1494  -19.5604  -57.0228 C.2       21 UNK         0.5000 
    118 O         -1.0294  -19.8938  -57.4138 O.2       21 UNK        -0.5000 
    119 N         -2.7255  -20.0471  -55.9152 N.am      22 UNK        -0.5000 
    120 CA        -2.1923  -21.0984  -55.0335 C.3       22 UNK         0.1400 
    121 C         -2.1381  -22.5118  -55.6901 C.2       22 UNK         0.5000 
    122 N         -2.8485  -22.7621  -56.7851 N.am      22 UNK        -0.7600 
    123 O         -1.4701  -23.4088  -55.1846 O.2       22 UNK        -0.5000 
    124 C124       -0.8681  -20.6992  -54.3212 C.3       23 UNK        -0.0398 
    125 S125       -1.0101  -19.1066  -53.4392 S.3       23 UNK        -0.2404 
    126 C126        0.7298  -18.7393  -53.0584 C.3       23 UNK        -0.0205 
    127 H127       -3.9574  -19.0701  -46.1557 H         1 UNK         0.0600 
    128 H128       -3.4846  -18.3119  -44.6351 H         1 UNK         0.0600 
    129 H129       -2.3158  -19.2780  -45.5456 H         1 UNK         0.0600 
    130 H130       -3.9229  -17.7680  -47.9164 H         1 UNK         0.3000 
    131 H131       -3.9059  -16.0231  -49.1364 H         1 UNK         0.0600 
    132 H132       -1.9645  -15.4165  -50.2320 H         1 UNK         0.0800 
    133 H133       -1.7492  -17.0630  -49.7586 H         1 UNK         0.0800 
    134 H134       -0.0502  -17.6460  -47.4822 H         1 UNK         0.0800 
    135 H135        1.5207  -16.9100  -47.6717 H         1 UNK         0.0800 
    136 H136        0.2497  -17.0635  -51.0077 H         1 UNK         0.1150 
    137 H137        1.8732  -20.9261  -51.8689 H         1 UNK         0.1150 
    138 H138        1.8348  -19.4748  -47.8382 H         1 UNK         0.1150 
    139 H139        3.1131  -22.1009  -50.1555 H         1 UNK         0.0800 
    140 H140        3.3992  -21.3627  -48.6031 H         1 UNK         0.0800 
    141 H141        0.5850  -21.1467  -47.0124 H         1 UNK         0.0800 
    142 H142        2.1306  -21.7700  -46.5159 H         1 UNK         0.0800 
    143 H143        0.9923  -23.9827  -45.9745 H         1 UNK         0.0600 
    144 H144        0.8615  -21.5851  -44.4216 H         1 UNK         0.3000 
    145 H145       -0.3234  -22.9952  -41.4458 H         1 UNK         0.0600 
    146 H146        1.8762  -22.5564  -40.4262 H         1 UNK         0.0600 
    147 H147        2.6453  -22.4893  -42.0123 H         1 UNK         0.0600 
    148 H148        1.9819  -24.0054  -41.4107 H         1 UNK         0.0600 
    149 H149        1.0789  -20.5837  -41.7966 H         1 UNK         0.3000 
    150 H150       -1.6302  -18.6163  -43.1192 H         1 UNK         0.0600 
    151 H151       -1.9304  -18.7717  -40.6499 H         1 UNK         0.0600 
    152 H152       -1.0537  -17.3146  -41.0955 H         1 UNK         0.0600 
    153 H153       -0.1874  -18.6933  -40.4208 H         1 UNK         0.0600 
    154 H154        0.9746  -17.8033  -42.4635 H         1 UNK         0.3000 
    155 H155        2.4915  -18.3275  -45.6700 H         1 UNK         0.0600 
    156 H156        1.1724  -16.1583  -45.5160 H         1 UNK         0.0600 
    157 H157        2.9037  -15.9485  -45.2874 H         1 UNK         0.0600 
    158 H158        1.8093  -15.9088  -43.9108 H         1 UNK         0.0600 
    159 H159        3.4277  -17.4950  -43.0529 H         1 UNK         0.3000 
    160 H160        4.6953  -20.6485  -42.0467 H         1 UNK         0.0600 
    161 H161        6.2327  -18.1821  -43.0290 H         1 UNK         0.0600 
    162 H162        6.4758  -19.8289  -43.5995 H         1 UNK         0.0600 
    163 H163        6.8465  -19.4201  -41.9323 H         1 UNK         0.0600 
    164 H164        4.9296  -18.0316  -40.9276 H         1 UNK         0.3000 
    165 H165        1.8515  -17.9972  -39.1357 H         1 UNK         0.0600 
    166 H166        3.3880  -17.7372  -37.2102 H         1 UNK         0.0600 
    167 H167        3.3703  -19.4109  -37.7416 H         1 UNK         0.0600 
    168 H168        4.7327  -18.3772  -38.1558 H         1 UNK         0.0600 
    169 H169        4.0310  -16.1890  -39.1266 H         1 UNK         0.3000 
    170 H170        3.4547  -14.0121  -40.0149 H         1 UNK         0.0600 
    171 H171        4.7038  -15.1950  -42.5765 H         1 UNK         0.0600 
    172 H172        5.1940  -13.6850  -41.8135 H         1 UNK         0.0600 
    173 H173        5.4531  -15.2079  -40.9834 H         1 UNK         0.0600 
    174 H174        1.8291  -14.3935  -42.3669 H         1 UNK         0.3000 
    175 H175        0.8046  -11.1187  -42.4478 H         1 UNK         0.0600 
    176 H176        2.5996  -12.0999  -44.7331 H         1 UNK         0.0600 
    177 H177        1.3388  -10.8723  -44.8630 H         1 UNK         0.0600 
    178 H178        2.7671  -10.5652  -43.8890 H         1 UNK         0.0600 
    179 H179        0.4243  -13.1842  -44.3822 H         1 UNK         0.3000 
    180 H180       -1.1552  -15.2921  -43.4863 H         1 UNK         0.0600 
    181 H181       -3.6362  -15.1825  -43.2552 H         1 UNK         0.0600 
    182 H182       -3.5109  -13.5578  -42.5800 H         1 UNK         0.0600 
    183 H183       -2.8312  -14.9314  -41.7152 H         1 UNK         0.0600 
    184 H184       -1.6777  -14.6310  -45.5164 H         1 UNK         0.3000 
    185 H185       -3.3159  -11.9883  -47.0267 H         1 UNK         0.0600 
    186 H186       -0.2485  -12.0679  -47.0629 H         1 UNK         0.0600 
    187 H187       -1.2786  -11.3811  -48.3190 H         1 UNK         0.0600 
    188 H188       -1.2296  -10.6472  -46.7243 H         1 UNK         0.0600 
    189 H189       -1.4234  -14.0118  -47.9441 H         1 UNK         0.3000 
    190 H190       -1.7418  -22.1676  -44.8083 H         1 UNK         0.3000 
    191 H191       -3.6656  -22.6042  -46.8014 H         1 UNK         0.0600 
    192 H192       -3.9530  -21.1084  -44.8129 H         1 UNK         0.0600 
    193 H193       -4.0454  -22.5170  -43.7625 H         1 UNK         0.0600 
    194 H194       -5.2941  -22.2297  -44.9683 H         1 UNK         0.0600 
    195 H195       -2.2641  -24.9472  -44.6344 H         1 UNK         0.3000 
    196 H196       -4.3505  -26.9539  -44.8330 H         1 UNK         0.0600 
    197 H197       -2.7860  -26.8530  -42.9041 H         1 UNK         0.0600 
    198 H198       -1.4116  -27.1271  -43.9740 H         1 UNK         0.0600 
    199 H199       -2.6192  -28.3868  -43.7434 H         1 UNK         0.0600 
    200 H200       -1.8417  -25.8867  -46.9974 H         1 UNK         0.3000 
    201 H201       -1.9213  -28.4536  -48.5498 H         1 UNK         0.0600 
    202 H202        0.2828  -28.0876  -47.4747 H         1 UNK         0.0600 
    203 H203        0.3868  -26.4736  -48.1763 H         1 UNK         0.0600 
    204 H204        0.4092  -27.8934  -49.2166 H         1 UNK         0.0600 
    205 H205       -1.7039  -24.8594  -48.7314 H         1 UNK         0.3000 
    206 H206       -3.0502  -24.7920  -51.3090 H         1 UNK         0.0600 
    207 H207       -0.0974  -23.9566  -51.0842 H         1 UNK         0.0600 
    208 H208       -0.7211  -25.2916  -52.0429 H         1 UNK         0.0600 
    209 H209       -1.1433  -23.6519  -52.4747 H         1 UNK         0.0600 
    210 H210       -1.1779  -22.1084  -51.0922 H         1 UNK         0.3000 
    211 H211       -1.4027  -19.9992  -50.5593 H         1 UNK         0.0600 
    212 H212       -2.9813  -20.7013  -48.0540 H         1 UNK         0.0600 
    213 H213       -1.8502  -19.3762  -48.3202 H         1 UNK         0.0600 
    214 H214       -1.2569  -21.0179  -48.2011 H         1 UNK         0.0600 
    215 H215       -3.8219  -21.5028  -51.8538 H         1 UNK         0.3000 
    216 H216       -6.0642  -19.6712  -51.5039 H         1 UNK         0.0600 
    217 H217       -7.0828  -21.1174  -53.2687 H         1 UNK         0.0600 
    218 H218       -6.4297  -22.0838  -51.9549 H         1 UNK         0.0600 
    219 H219       -5.5553  -21.9640  -53.4810 H         1 UNK         0.0600 
    220 H220       -4.5642  -17.7970  -51.9516 H         1 UNK         0.3000 
    221 H221       -3.2940  -17.2750  -54.3454 H         1 UNK         0.0600 
    222 H222       -4.5569  -15.3015  -52.3743 H         1 UNK         0.0600 
    223 H223       -2.9240  -15.9700  -52.3105 H         1 UNK         0.0600 
    224 H224       -3.3720  -14.8730  -53.6048 H         1 UNK         0.0600 
    225 H225       -6.7389  -16.9320  -53.7527 H         1 UNK         0.3000 
    226 H226       -7.4454  -15.3865  -56.0543 H         1 UNK         0.0600 
    227 H227       -8.9553  -15.6947  -54.1054 H         1 UNK         0.0600 
    228 H228       -9.7336  -16.2707  -55.5703 H         1 UNK         0.0600 
    229 H229       -9.0593  -17.4264  -54.4277 H         1 UNK         0.0600 
    230 H230       -6.4852  -18.7263  -55.6990 H         1 UNK         0.3000 
    231 H231       -7.2082  -19.3745  -58.5253 H         1 UNK         0.0600 
    232 H232       -7.1819  -21.7327  -57.7752 H         1 UNK         0.0600 
    233 H233       -8.3285  -20.8287  -56.8009 H         1 UNK         0.0600 
    234 H234       -6.7494  -21.2482  -56.1387 H         1 UNK         0.0600 
    235 H235       -4.8774  -17.8424  -57.2672 H         1 UNK         0.3000 
    236 H236       -2.7047  -17.5551  -57.4315 H         1 UNK         0.0600 
    237 H237       -2.7943  -19.5080  -59.7911 H         1 UNK         0.0600 
    238 H238       -3.1957  -17.7932  -59.8790 H         1 UNK         0.0600 
    239 H239       -1.5604  -18.2932  -59.4855 H         1 UNK         0.0600 
    240 H240       -3.6566  -19.7250  -55.6701 H         1 UNK         0.3000 
    241 H241       -2.9412  -21.2093  -54.2499 H         1 UNK         0.0600 
    242 H242       -3.4104  -22.0405  -57.2211 H         1 UNK         0.3800 
    243 H243       -2.8144  -23.6818  -57.1952 H         1 UNK         0.3800 
    244 H244       -0.0545  -20.6386  -55.0450 H         1 UNK         0.0800 
    245 H245       -0.5758  -21.4579  -53.5944 H         1 UNK         0.0800 
    246 H246        1.3977  -19.3335  -53.6835 H         1 UNK         0.0800 
    247 H247        0.9296  -17.6974  -53.3126 H         1 UNK         0.0800 
@<TRIPOS>BOND
     1    1    2 1    
     2    1  127 1    
     3    1  128 1    
     4    1  129 1    
     5    2    3 2    
     6    2    4 am   BACKBONE|DICT|INTERRES
     7    4    5 1    
     8    4  130 1    
     9    5    6 1    
    10    5   65 1    
    11    5  131 1    
    12    6    7 1    
    13    6  132 1    
    14    6  133 1    
    15    7    8 1    
    16    8    9 1    
    17    8  134 1    
    18    8  135 1    
    19    9   10 ar   
    20    9   14 ar   
    21   10   11 ar   
    22   10  136 1    
    23   11   12 ar   
    24   11  126 1    
    25   12   13 ar   
    26   12  137 1    
    27   13   14 ar   
    28   13   15 1    
    29   14  138 1    
    30   15   16 1    
    31   15  139 1    
    32   15  140 1    
    33   16   17 1    
    34   17   18 1    
    35   17  141 1    
    36   17  142 1    
    37   18   19 1    
    38   18   67 1    
    39   18  143 1    
    40   19   20 am   BACKBONE|DICT|INTERRES
    41   19  144 1    
    42   20   21 2    
    43   20   22 1    
    44   22   23 1    
    45   22   24 1    
    46   22  145 1    
    47   23  146 1    
    48   23  147 1    
    49   23  148 1    
    50   24   25 am   BACKBONE|DICT|INTERRES
    51   24  149 1    
    52   25   26 2    
    53   25   27 1    
    54   27   28 1    
    55   27   29 1    
    56   27  150 1    
    57   28  151 1    
    58   28  152 1    
    59   28  153 1    
    60   29   30 am   BACKBONE|DICT|INTERRES
    61   29  154 1    
    62   30   31 2    
    63   30   32 1    
    64   32   33 1    
    65   32   34 1    
    66   32  155 1    
    67   33  156 1    
    68   33  157 1    
    69   33  158 1    
    70   34   35 am   BACKBONE|DICT|INTERRES
    71   34  159 1    
    72   35   36 2    
    73   35   37 1    
    74   37   38 1    
    75   37   39 1    
    76   37  160 1    
    77   38  161 1    
    78   38  162 1    
    79   38  163 1    
    80   39   40 am   BACKBONE|DICT|INTERRES
    81   39  164 1    
    82   40   41 2    
    83   40   42 1    
    84   42   43 1    
    85   42   44 1    
    86   42  165 1    
    87   43  166 1    
    88   43  167 1    
    89   43  168 1    
    90   44   45 am   BACKBONE|DICT|INTERRES
    91   44  169 1    
    92   45   46 2    
    93   45   47 1    
    94   47   48 1    
    95   47   49 1    
    96   47  170 1    
    97   48  171 1    
    98   48  172 1    
    99   48  173 1    
   100   49   50 am   BACKBONE|DICT|INTERRES
   101   49  174 1    
   102   50   51 2    
   103   50   52 1    
   104   52   53 1    
   105   52   54 1    
   106   52  175 1    
   107   53  176 1    
   108   53  177 1    
   109   53  178 1    
   110   54   55 am   BACKBONE|DICT|INTERRES
   111   54  179 1    
   112   55   56 2    
   113   55   57 1    
   114   57   58 1    
   115   57   59 1    
   116   57  180 1    
   117   58  181 1    
   118   58  182 1    
   119   58  183 1    
   120   59   60 am   BACKBONE|DICT|INTERRES
   121   59  184 1    
   122   60   61 2    
   123   60   62 1    
   124   62   63 1    
   125   62   64 1    
   126   62  185 1    
   127   63  186 1    
   128   63  187 1    
   129   63  188 1    
   130   64   65 am   BACKBONE|DICT|INTERRES
   131   64  189 1    
   132   65   66 2    
   133   67   68 2    
   134   67   69 am   BACKBONE|DICT|INTERRES
   135   69   70 1    
   136   69  190 1    
   137   70   71 1    
   138   70   72 1    
   139   70  191 1    
   140   71  192 1    
   141   71  193 1    
   142   71  194 1    
   143   72   73 2    
   144   72   74 am   BACKBONE|DICT|INTERRES
   145   74   75 1    
   146   74  195 1    
   147   75   76 1    
   148   75   77 1    
   149   75  196 1    
   150   76  197 1    
   151   76  198 1    
   152   76  199 1    
   153   77   78 2    
   154   77   79 am   BACKBONE|DICT|INTERRES
   155   79   80 1    
   156   79  200 1    
   157   80   81 1    
   158   80   82 1    
   159   80  201 1    
   160   81  202 1    
   161   81  203 1    
   162   81  204 1    
   163   82   83 2    
   164   82   84 am   BACKBONE|DICT|INTERRES
   165   84   85 1    
   166   84  205 1    
   167   85   86 1    
   168   85   87 1    
   169   85  206 1    
   170   86  207 1    
   171   86  208 1    
   172   86  209 1    
   173   87   88 2    
   174   87   89 am   BACKBONE|DICT|INTERRES
   175   89   90 1    
   176   89  210 1    
   177   90   91 1    
   178   90   92 1    
   179   90  211 1    
   180   91  212 1    
   181   91  213 1    
   182   91  214 1    
   183   92   93 2    
   184   92   94 am   BACKBONE|DICT|INTERRES
   185   94   95 1    
   186   94  215 1    
   187   95   96 1    
   188   95   97 1    
   189   95  216 1    
   190   96  217 1    
   191   96  218 1    
   192   96  219 1    
   193   97   98 2    
   194   97   99 am   BACKBONE|DICT|INTERRES
   195   99  100 1    
   196   99  220 1    
   197  100  101 1    
   198  100  102 1    
   199  100  221 1    
   200  101  222 1    
   201  101  223 1    
   202  101  224 1    
   203  102  103 2    
   204  102  104 am   BACKBONE|DICT|INTERRES
   205  104  105 1    
   206  104  225 1    
   207  105  106 1    
   208  105  107 1    
   209  105  226 1    
   210  106  227 1    
   211  106  228 1    
   212  106  229 1    
   213  107  108 2    
   214  107  109 am   BACKBONE|DICT|INTERRES
   215  109  110 1    
   216  109  230 1    
   217  110  111 1    
   218  110  112 1    
   219  110  231 1    
   220  111  232 1    
   221  111  233 1    
   222  111  234 1    
   223  112  113 2    
   224  112  114 am   BACKBONE|DICT|INTERRES
   225  114  115 1    
   226  114  235 1    
   227  115  116 1    
   228  115  117 1    
   229  115  236 1    
   230  116  237 1    
   231  116  238 1    
   232  116  239 1    
   233  117  118 2    
   234  117  119 am   BACKBONE|DICT|INTERRES
   235  119  120 1    
   236  119  240 1    
   237  120  121 1    
   238  120  124 1    
   239  120  241 1    
   240  121  122 am   BACKBONE|DICT|INTERRES
   241  121  123 2    
   242  122  242 1    
   243  122  243 1    
   244  124  125 1    
   245  124  244 1    
   246  124  245 1    
   247  125  126 1    
   248  126  246 1    
   249  126  247 1    
@<TRIPOS>SUBSTRUCTURE
     1 UNK         1 GROUP             0       ****    0 ROOT    
