@<TRIPOS>MOLECULE
3R540
247   249    1
SMALL
USER_CHARGES


@<TRIPOS>ATOM
      1 CA         -6.6128  -13.0416  -43.9788 C.3       0 UNK        -0.1800 
      2 C          -5.2968  -13.2646  -44.7077 C.2       0 UNK         0.5000 
      3 O          -4.3299  -12.5447  -44.4594 O.2       0 UNK        -0.5000 
      4 N          -5.2454  -14.2701  -45.5915 N.am      1 UNK        -0.5000 
      5 CA         -4.0872  -14.6459  -46.4181 C.3       1 UNK         0.1400 
      6 C6         -4.4335  -15.7901  -47.4027 C.3       23 UNK        -0.0398 
      7 S7         -5.0747  -17.2950  -46.5809 S.3       23 UNK        -0.2404 
      8 C8         -4.0950  -18.6148  -47.3589 C.3       23 UNK        -0.0205 
      9 C9         -2.6079  -18.5129  -47.0594 C.ar      23 UNK        -0.0193 
     10 C10        -1.7096  -18.1628  -48.0701 C.ar      23 UNK        -0.1150 
     11 C11        -0.3351  -18.1390  -47.8226 C.ar      23 UNK        -0.0193 
     12 C12         0.1384  -18.4528  -46.5446 C.ar      23 UNK        -0.1150 
     13 C13        -0.7523  -18.7782  -45.5169 C.ar      23 UNK        -0.0193 
     14 C14        -2.1249  -18.8075  -45.7823 C.ar      23 UNK        -0.1150 
     15 C15        -0.2340  -19.0677  -44.1146 C.3       23 UNK        -0.0205 
     16 S16         0.2823  -20.7983  -43.8948 S.3       23 UNK        -0.2404 
     17 C17        -1.3054  -21.6930  -44.0203 C.3       23 UNK        -0.0398 
     18 CA         -1.4351  -22.4384  -45.3687 C.3       11 UNK         0.1400 
     19 N          -0.3482  -23.4031  -45.5529 N.am      11 UNK        -0.5000 
     20 C          -0.0937  -24.1221  -46.6535 C.2       10 UNK         0.5000 
     21 O          -0.8442  -24.1632  -47.6291 O.2       10 UNK        -0.5000 
     22 CA          1.2115  -24.9457  -46.6316 C.3       10 UNK         0.1400 
     23 CB          1.7468  -25.2561  -48.0451 C.3       10 UNK        -0.1800 
     24 N           2.2414  -24.3430  -45.7682 N.am      10 UNK        -0.5000 
     25 C           2.8948  -23.1852  -45.9635 C.2       9 UNK         0.5000 
     26 O           2.7992  -22.5194  -46.9941 O.2       9 UNK        -0.5000 
     27 CA          3.7739  -22.6868  -44.7901 C.3       9 UNK         0.1400 
     28 CB          4.4000  -23.8365  -43.9751 C.3       9 UNK        -0.1800 
     29 N           4.8492  -21.7921  -45.2198 N.am      9 UNK        -0.5000 
     30 C           4.7161  -20.5021  -45.5563 C.2       8 UNK         0.5000 
     31 O           3.6490  -19.8860  -45.5217 O.2       8 UNK        -0.5000 
     32 CA          6.0210  -19.8048  -45.9988 C.3       8 UNK         0.1400 
     33 CB          6.5748  -20.4282  -47.2911 C.3       8 UNK        -0.1800 
     34 N           5.8802  -18.3639  -46.2106 N.am      8 UNK        -0.5000 
     35 C           5.7111  -17.4451  -45.2518 C.2       7 UNK         0.5000 
     36 O           5.6451  -17.7135  -44.0501 O.2       7 UNK        -0.5000 
     37 CA          5.6698  -15.9645  -45.6881 C.3       7 UNK         0.1400 
     38 CB          5.9582  -15.7232  -47.1890 C.3       7 UNK        -0.1800 
     39 N           4.4287  -15.3037  -45.2780 N.am      7 UNK        -0.5000 
     40 C           3.1864  -15.5726  -45.7055 C.2       6 UNK         0.5000 
     41 O           2.9210  -16.4473  -46.5292 O.2       6 UNK        -0.5000 
     42 CA          2.0365  -14.7146  -45.1284 C.3       6 UNK         0.1400 
     43 CB          2.5029  -13.5904  -44.1749 C.3       6 UNK        -0.1800 
     44 N           1.1765  -14.1527  -46.1750 N.am      6 UNK        -0.5000 
     45 C           1.5579  -13.3846  -47.2084 C.2       5 UNK         0.5000 
     46 O           2.7191  -13.0394  -47.4307 O.2       5 UNK        -0.5000 
     47 CA          0.4365  -12.8655  -48.1191 C.3       5 UNK         0.1400 
     48 CB         -0.1653  -13.9913  -48.9766 C.3       5 UNK        -0.1800 
     49 N          -0.6066  -12.2424  -47.3056 N.am      5 UNK        -0.5000 
     50 C          -0.7602  -10.9199  -47.1615 C.2       4 UNK         0.5000 
     51 O          -0.0911  -10.0801  -47.7654 O.2       4 UNK        -0.5000 
     52 CA         -1.8402  -10.4443  -46.1743 C.3       4 UNK         0.1400 
     53 CB         -3.2236  -10.4399  -46.8425 C.3       4 UNK        -0.1800 
     54 N          -1.8969  -11.2326  -44.9428 N.am      4 UNK        -0.5000 
     55 C          -0.9646  -11.2084  -43.9790 C.2       3 UNK         0.5000 
     56 O           0.0831  -10.5669  -44.0586 O.2       3 UNK        -0.5000 
     57 CA         -1.2530  -12.0217  -42.7060 C.3       3 UNK         0.1400 
     58 CB         -2.2184  -11.2578  -41.7859 C.3       3 UNK        -0.1800 
     59 N          -1.8329  -13.3218  -43.0346 N.am      3 UNK        -0.5000 
     60 C          -1.2093  -14.4982  -42.8882 C.2       2 UNK         0.5000 
     61 O          -0.1041  -14.6263  -42.3622 O.2       2 UNK        -0.5000 
     62 CA         -1.9257  -15.7567  -43.4194 C.3       2 UNK         0.1400 
     63 CB         -2.5162  -16.5735  -42.2603 C.3       2 UNK        -0.1800 
     64 N          -2.9876  -15.4831  -44.3865 N.am      2 UNK        -0.5000 
     65 C          -2.8103  -14.9490  -45.6020 C.2       1 UNK         0.5000 
     66 O          -1.7092  -14.6267  -46.0497 O.2       1 UNK        -0.5000 
     67 C          -2.8360  -23.0637  -45.5176 C.2       11 UNK         0.5000 
     68 O          -3.7347  -22.4121  -46.0470 O.2       11 UNK        -0.5000 
     69 N          -2.9905  -24.3229  -45.0829 N.am      12 UNK        -0.5000 
     70 CA         -4.2322  -25.0907  -45.1994 C.3       12 UNK         0.1400 
     71 CB         -4.1195  -26.3687  -44.3548 C.3       12 UNK        -0.1800 
     72 C          -4.5904  -25.4334  -46.6577 C.2       12 UNK         0.5000 
     73 O          -5.7687  -25.4120  -47.0141 O.2       12 UNK        -0.5000 
     74 N          -3.5687  -25.7157  -47.4784 N.am      13 UNK        -0.5000 
     75 CA         -3.7124  -25.9340  -48.9168 C.3       13 UNK         0.1400 
     76 CB         -2.4820  -26.6780  -49.4590 C.3       13 UNK        -0.1800 
     77 C          -3.9166  -24.6022  -49.6526 C.2       13 UNK         0.5000 
     78 O          -4.7992  -24.5039  -50.5036 O.2       13 UNK        -0.5000 
     79 N          -3.1276  -23.5876  -49.2761 N.am      14 UNK        -0.5000 
     80 CA         -3.1666  -22.2375  -49.8348 C.3       14 UNK         0.1400 
     81 CB         -1.9981  -21.4314  -49.2620 C.3       14 UNK        -0.1800 
     82 C          -4.5023  -21.5073  -49.6085 C.2       14 UNK         0.5000 
     83 O          -4.8881  -20.6885  -50.4409 O.2       14 UNK        -0.5000 
     84 N          -5.2047  -21.8248  -48.5139 N.am      15 UNK        -0.5000 
     85 CA         -6.5505  -21.3277  -48.2254 C.3       15 UNK         0.1400 
     86 CB         -6.9287  -21.6938  -46.7826 C.3       15 UNK        -0.1800 
     87 C          -7.6096  -21.8514  -49.2149 C.2       15 UNK         0.5000 
     88 O          -8.5502  -21.1233  -49.5328 O.2       15 UNK        -0.5000 
     89 N          -7.4333  -23.0904  -49.6936 N.am      16 UNK        -0.5000 
     90 CA         -8.2989  -23.7207  -50.6895 C.3       16 UNK         0.1400 
     91 CB         -8.2670  -25.2453  -50.4982 C.3       16 UNK        -0.1800 
     92 C          -7.8843  -23.3398  -52.1213 C.2       16 UNK         0.5000 
     93 O          -8.7491  -23.0670  -52.9542 O.2       16 UNK        -0.5000 
     94 N          -6.5697  -23.3229  -52.3789 N.am      17 UNK        -0.5000 
     95 CA         -5.9686  -23.0236  -53.6804 C.3       17 UNK         0.1400 
     96 CB         -4.5389  -23.5877  -53.7017 C.3       17 UNK        -0.1800 
     97 C          -5.9779  -21.5267  -54.0553 C.2       17 UNK         0.5000 
     98 O          -5.7409  -21.2103  -55.2217 O.2       17 UNK        -0.5000 
     99 N          -6.2558  -20.6488  -53.0786 N.am      18 UNK        -0.5000 
    100 CA        -6.2332  -19.1840  -53.1509 C.3       18 UNK         0.1400 
    101 CB        -7.2647  -18.6472  -54.1659 C.3       18 UNK        -0.1800 
    102 C         -4.8004  -18.6734  -53.3949 C.2       18 UNK         0.5000 
    103 O         -4.4960  -18.1364  -54.4618 O.2       18 UNK        -0.5000 
    104 N         -3.9493  -18.9032  -52.3866 N.am      19 UNK        -0.5000 
    105 CA        -2.4908  -18.7839  -52.3966 C.3       19 UNK         0.1400 
    106 CB        -2.0149  -17.3593  -52.7601 C.3       19 UNK        -0.1800 
    107 C         -1.8773  -19.9174  -53.2426 C.2       19 UNK         0.5000 
    108 O         -2.3795  -21.0412  -53.1820 O.2       19 UNK        -0.5000 
    109 N         -0.8011  -19.6273  -53.9862 N.am      20 UNK        -0.5000 
    110 CA        -0.0618  -20.5030  -54.9073 C.3       20 UNK         0.1400 
    111 CB        -0.9631  -21.0106  -56.0500 C.3       20 UNK        -0.1800 
    112 C          0.6894  -21.6658  -54.2287 C.2       20 UNK         0.5000 
    113 O          1.8999  -21.7904  -54.4175 O.2       20 UNK        -0.5000 
    114 N         -0.0175  -22.4780  -53.4317 N.am      21 UNK        -0.5000 
    115 CA         0.5162  -23.6282  -52.6925 C.3       21 UNK         0.1400 
    116 CB        -0.6433  -24.3871  -52.0296 C.3       21 UNK        -0.1800 
    117 C          1.5750  -23.2372  -51.6430 C.2       21 UNK         0.5000 
    118 O          2.4937  -24.0142  -51.3830 O.2       21 UNK        -0.5000 
    119 N          1.4400  -22.0234  -51.0987 N.am      22 UNK        -0.5000 
    120 CA         2.4160  -21.3578  -50.2263 C.3       22 UNK         0.1400 
    121 C          3.6397  -20.7423  -50.9738 C.2       22 UNK         0.5000 
    122 N          3.7350  -20.8099  -52.2975 N.am      22 UNK        -0.7600 
    123 O          4.5367  -20.1967  -50.3397 O.2       22 UNK        -0.5000 
    124 C124        1.7174  -20.3339  -49.2929 C.3       23 UNK        -0.0398 
    125 S125        0.7651  -19.0631  -50.2000 S.3       23 UNK        -0.2404 
    126 C126        0.6278  -17.7608  -48.9384 C.3       23 UNK        -0.0205 
    127 H127       -7.3736  -13.7594  -44.2863 H         1 UNK         0.0600 
    128 H128       -6.9874  -12.0387  -44.1831 H         1 UNK         0.0600 
    129 H129       -6.4658  -13.1395  -42.9033 H         1 UNK         0.0600 
    130 H130       -6.0674  -14.8416  -45.7286 H         1 UNK         0.3000 
    131 H131       -3.8501  -13.7706  -47.0246 H         1 UNK         0.0600 
    132 H132       -5.1989  -15.4464  -48.0996 H         1 UNK         0.0800 
    133 H133       -3.5694  -16.0302  -48.0232 H         1 UNK         0.0800 
    134 H134       -4.4544  -19.5747  -46.9875 H         1 UNK         0.0800 
    135 H135       -4.2785  -18.6124  -48.4344 H         1 UNK         0.0800 
    136 H136       -2.0754  -17.9289  -49.0596 H         1 UNK         0.1150 
    137 H137        1.2013  -18.4380  -46.3455 H         1 UNK         0.1150 
    138 H138       -2.8240  -19.0596  -44.9980 H         1 UNK         0.1150 
    139 H139        0.6196  -18.4212  -43.9047 H         1 UNK         0.0800 
    140 H140       -0.9896  -18.8239  -43.3677 H         1 UNK         0.0800 
    141 H141       -2.1304  -20.9946  -43.8762 H         1 UNK         0.0800 
    142 H142       -1.3633  -22.3970  -43.1884 H         1 UNK         0.0800 
    143 H143       -1.3316  -21.6988  -46.1629 H         1 UNK         0.0600 
    144 H144        0.3342  -23.4294  -44.8105 H         1 UNK         0.3000 
    145 H145        0.9527  -25.8991  -46.1692 H         1 UNK         0.0600 
    146 H146        2.6841  -25.8101  -48.0018 H         1 UNK         0.0600 
    147 H147        1.0358  -25.8631  -48.6066 H         1 UNK         0.0600 
    148 H148        1.9183  -24.3486  -48.6237 H         1 UNK         0.0600 
    149 H149        2.4146  -24.8345  -44.9024 H         1 UNK         0.3000 
    150 H150        3.1169  -22.1256  -44.1229 H         1 UNK         0.0600 
    151 H151        4.9945  -24.4995  -44.6052 H         1 UNK         0.0600 
    152 H152        3.6397  -24.4395  -43.4778 H         1 UNK         0.0600 
    153 H153        5.0520  -23.4513  -43.1906 H         1 UNK         0.0600 
    154 H154        5.7595  -22.2180  -45.3108 H         1 UNK         0.3000 
    155 H155        6.7565  -19.9532  -45.2054 H         1 UNK         0.0600 
    156 H156        5.8625  -20.3368  -48.1100 H         1 UNK         0.0600 
    157 H157        6.7924  -21.4891  -47.1651 H         1 UNK         0.0600 
    158 H158        7.5031  -19.9461  -47.5981 H         1 UNK         0.0600 
    159 H159        5.8726  -18.0544  -47.1709 H         1 UNK         0.3000 
    160 H160        6.4672  -15.4723  -45.1296 H         1 UNK         0.0600 
    161 H161        5.2173  -16.1924  -47.8368 H         1 UNK         0.0600 
    162 H162        6.9386  -16.1108  -47.4687 H         1 UNK         0.0600 
    163 H163        5.9611  -14.6569  -47.4158 H         1 UNK         0.0600 
    164 H164        4.5363  -14.5797  -44.5824 H         1 UNK         0.3000 
    165 H165        1.4102  -15.3999  -44.5563 H         1 UNK         0.0600 
    166 H166        1.6522  -13.0226  -43.7994 H         1 UNK         0.0600 
    167 H167        3.0188  -13.9970  -43.3044 H         1 UNK         0.0600 
    168 H168        3.1720  -12.8840  -44.6676 H         1 UNK         0.0600 
    169 H169        0.1942  -14.4058  -46.1144 H         1 UNK         0.3000 
    170 H170        0.8740  -12.1357  -48.8036 H         1 UNK         0.0600 
    171 H171        0.5956  -14.4278  -49.6243 H         1 UNK         0.0600 
    172 H172       -0.5809  -14.7964  -48.3713 H         1 UNK         0.0600 
    173 H173       -0.9605  -13.6132  -49.6190 H         1 UNK         0.0600 
    174 H174       -1.1658  -12.8727  -46.7411 H         1 UNK         0.3000 
    175 H175       -1.6018   -9.4148  -45.8983 H         1 UNK         0.0600 
    176 H176       -3.5330  -11.4421  -47.1374 H         1 UNK         0.0600 
    177 H177       -3.9841  -10.0396  -46.1718 H         1 UNK         0.0600 
    178 H178       -3.2218   -9.8198  -47.7397 H         1 UNK         0.0600 
    179 H179       -2.7599  -11.7470  -44.7801 H         1 UNK         0.3000 
    180 H180       -0.3079  -12.1438  -42.1728 H         1 UNK         0.0600 
    181 H181       -1.8170  -10.2775  -41.5259 H         1 UNK         0.0600 
    182 H182       -2.3829  -11.7996  -40.8545 H         1 UNK         0.0600 
    183 H183       -3.1896  -11.1017  -42.2574 H         1 UNK         0.0600 
    184 H184       -2.7404  -13.3042  -43.4864 H         1 UNK         0.3000 
    185 H185       -1.1702  -16.3608  -43.9231 H         1 UNK         0.0600 
    186 H186       -2.9749  -17.4952  -42.6188 H         1 UNK         0.0600 
    187 H187       -1.7421  -16.8532  -41.5444 H         1 UNK         0.0600 
    188 H188       -3.2763  -16.0090  -41.7189 H         1 UNK         0.0600 
    189 H189       -3.9305  -15.7013  -44.0996 H         1 UNK         0.3000 
    190 H190       -2.1995  -24.7917  -44.6665 H         1 UNK         0.3000 
    191 H191       -5.0448  -24.4840  -44.7935 H         1 UNK         0.0600 
    192 H192       -3.9440  -26.1335  -43.3050 H         1 UNK         0.0600 
    193 H193       -5.0397  -26.9524  -44.4063 H         1 UNK         0.0600 
    194 H194       -3.3053  -27.0087  -44.6971 H         1 UNK         0.0600 
    195 H195       -2.6257  -25.6522  -47.1222 H         1 UNK         0.3000 
    196 H196       -4.5912  -26.5575  -49.0954 H         1 UNK         0.0600 
    197 H197       -2.5824  -26.8657  -50.5287 H         1 UNK         0.0600 
    198 H198       -2.3589  -27.6440  -48.9693 H         1 UNK         0.0600 
    199 H199       -1.5632  -26.1096  -49.3133 H         1 UNK         0.0600 
    200 H200       -2.4001  -23.7698  -48.5887 H         1 UNK         0.3000 
    201 H201       -3.0231  -22.3236  -50.9119 H         1 UNK         0.0600 
    202 H202       -1.9213  -20.4612  -49.7454 H         1 UNK         0.0600 
    203 H203       -1.0482  -21.9447  -49.4092 H         1 UNK         0.0600 
    204 H204       -2.1242  -21.2516  -48.1963 H         1 UNK         0.0600 
    205 H205       -4.7771  -22.4237  -47.8159 H         1 UNK         0.3000 
    206 H206       -6.5358  -20.2389  -48.3072 H         1 UNK         0.0600 
    207 H207       -6.2454  -21.2346  -46.0681 H         1 UNK         0.0600 
    208 H208       -7.9331  -21.3450  -46.5399 H         1 UNK         0.0600 
    209 H209       -6.9053  -22.7725  -46.6226 H         1 UNK         0.0600 
    210 H210       -6.6112  -23.6089  -49.4136 H         1 UNK         0.3000 
    211 H211       -9.3276  -23.3872  -50.5367 H         1 UNK         0.0600 
    212 H212       -7.2651  -25.6524  -50.6374 H         1 UNK         0.0600 
    213 H213       -8.9247  -25.7412  -51.2131 H         1 UNK         0.0600 
    214 H214       -8.6036  -25.5230  -49.4992 H         1 UNK         0.0600 
    215 H215       -5.9281  -23.6214  -51.6473 H         1 UNK         0.3000 
    216 H216       -6.5434  -23.5453  -54.4484 H         1 UNK         0.0600 
    217 H217       -4.0400  -23.3714  -54.6472 H         1 UNK         0.0600 
    218 H218       -4.5403  -24.6701  -53.5731 H         1 UNK         0.0600 
    219 H219       -3.9304  -23.1611  -52.9057 H         1 UNK         0.0600 
    220 H220       -6.3590  -21.0265  -52.1460 H         1 UNK         0.3000 
    221 H221       -6.5337  -18.8245  -52.1653 H         1 UNK         0.0600 
    222 H222       -7.0201  -18.9241  -55.1914 H         1 UNK         0.0600 
    223 H223       -8.2639  -19.0233  -53.9467 H         1 UNK         0.0600 
    224 H224       -7.3108  -17.5583  -54.1281 H         1 UNK         0.0600 
    225 H225       -4.3171  -19.4467  -51.6070 H         1 UNK         0.3000 
    226 H226       -2.1745  -18.9668  -51.3718 H         1 UNK         0.0600 
    227 H227       -0.9524  -17.2357  -52.5474 H         1 UNK         0.0600 
    228 H228       -2.1713  -17.1257  -53.8134 H         1 UNK         0.0600 
    229 H229       -2.5442  -16.6100  -52.1714 H         1 UNK         0.0600 
    230 H230       -0.4494  -18.6817  -53.9332 H         1 UNK         0.3000 
    231 H231        0.7004  -19.8672  -55.3608 H         1 UNK         0.0600 
    232 H232       -1.7565  -21.6662  -55.6898 H         1 UNK         0.0600 
    233 H233       -0.3827  -21.5755  -56.7804 H         1 UNK         0.0600 
    234 H234       -1.4317  -20.1807  -56.5790 H         1 UNK         0.0600 
    235 H235       -1.0030  -22.2560  -53.3069 H         1 UNK         0.3000 
    236 H236        0.9944  -24.2931  -53.4145 H         1 UNK         0.0600 
    237 H237       -1.3927  -24.6908  -52.7609 H         1 UNK         0.0600 
    238 H238       -0.2854  -25.2900  -51.5333 H         1 UNK         0.0600 
    239 H239       -1.1371  -23.7766  -51.2756 H         1 UNK         0.0600 
    240 H240        0.6645  -21.4499  -51.3941 H         1 UNK         0.3000 
    241 H241        2.8455  -22.1266  -49.5832 H         1 UNK         0.0600 
    242 H242        3.0243  -21.2583  -52.8642 H         1 UNK         0.3800 
    243 H243        4.5407  -20.4063  -52.7475 H         1 UNK         0.3800 
    244 H244        1.0336  -20.8576  -48.6233 H         1 UNK         0.0800 
    245 H245        2.4467  -19.8519  -48.6388 H         1 UNK         0.0800 
    246 H246        1.6171  -17.5290  -48.5427 H         1 UNK         0.0800 
    247 H247        0.2715  -16.8523  -49.4224 H         1 UNK         0.0800 
@<TRIPOS>BOND
     1    1    2 1    
     2    1  127 1    
     3    1  128 1    
     4    1  129 1    
     5    2    3 2    
     6    2    4 am   BACKBONE|DICT|INTERRES
     7    4    5 1    
     8    4  130 1    
     9    5    6 1    
    10    5   65 1    
    11    5  131 1    
    12    6    7 1    
    13    6  132 1    
    14    6  133 1    
    15    7    8 1    
    16    8    9 1    
    17    8  134 1    
    18    8  135 1    
    19    9   10 ar   
    20    9   14 ar   
    21   10   11 ar   
    22   10  136 1    
    23   11   12 ar   
    24   11  126 1    
    25   12   13 ar   
    26   12  137 1    
    27   13   14 ar   
    28   13   15 1    
    29   14  138 1    
    30   15   16 1    
    31   15  139 1    
    32   15  140 1    
    33   16   17 1    
    34   17   18 1    
    35   17  141 1    
    36   17  142 1    
    37   18   19 1    
    38   18   67 1    
    39   18  143 1    
    40   19   20 am   BACKBONE|DICT|INTERRES
    41   19  144 1    
    42   20   21 2    
    43   20   22 1    
    44   22   23 1    
    45   22   24 1    
    46   22  145 1    
    47   23  146 1    
    48   23  147 1    
    49   23  148 1    
    50   24   25 am   BACKBONE|DICT|INTERRES
    51   24  149 1    
    52   25   26 2    
    53   25   27 1    
    54   27   28 1    
    55   27   29 1    
    56   27  150 1    
    57   28  151 1    
    58   28  152 1    
    59   28  153 1    
    60   29   30 am   BACKBONE|DICT|INTERRES
    61   29  154 1    
    62   30   31 2    
    63   30   32 1    
    64   32   33 1    
    65   32   34 1    
    66   32  155 1    
    67   33  156 1    
    68   33  157 1    
    69   33  158 1    
    70   34   35 am   BACKBONE|DICT|INTERRES
    71   34  159 1    
    72   35   36 2    
    73   35   37 1    
    74   37   38 1    
    75   37   39 1    
    76   37  160 1    
    77   38  161 1    
    78   38  162 1    
    79   38  163 1    
    80   39   40 am   BACKBONE|DICT|INTERRES
    81   39  164 1    
    82   40   41 2    
    83   40   42 1    
    84   42   43 1    
    85   42   44 1    
    86   42  165 1    
    87   43  166 1    
    88   43  167 1    
    89   43  168 1    
    90   44   45 am   BACKBONE|DICT|INTERRES
    91   44  169 1    
    92   45   46 2    
    93   45   47 1    
    94   47   48 1    
    95   47   49 1    
    96   47  170 1    
    97   48  171 1    
    98   48  172 1    
    99   48  173 1    
   100   49   50 am   BACKBONE|DICT|INTERRES
   101   49  174 1    
   102   50   51 2    
   103   50   52 1    
   104   52   53 1    
   105   52   54 1    
   106   52  175 1    
   107   53  176 1    
   108   53  177 1    
   109   53  178 1    
   110   54   55 am   BACKBONE|DICT|INTERRES
   111   54  179 1    
   112   55   56 2    
   113   55   57 1    
   114   57   58 1    
   115   57   59 1    
   116   57  180 1    
   117   58  181 1    
   118   58  182 1    
   119   58  183 1    
   120   59   60 am   BACKBONE|DICT|INTERRES
   121   59  184 1    
   122   60   61 2    
   123   60   62 1    
   124   62   63 1    
   125   62   64 1    
   126   62  185 1    
   127   63  186 1    
   128   63  187 1    
   129   63  188 1    
   130   64   65 am   BACKBONE|DICT|INTERRES
   131   64  189 1    
   132   65   66 2    
   133   67   68 2    
   134   67   69 am   BACKBONE|DICT|INTERRES
   135   69   70 1    
   136   69  190 1    
   137   70   71 1    
   138   70   72 1    
   139   70  191 1    
   140   71  192 1    
   141   71  193 1    
   142   71  194 1    
   143   72   73 2    
   144   72   74 am   BACKBONE|DICT|INTERRES
   145   74   75 1    
   146   74  195 1    
   147   75   76 1    
   148   75   77 1    
   149   75  196 1    
   150   76  197 1    
   151   76  198 1    
   152   76  199 1    
   153   77   78 2    
   154   77   79 am   BACKBONE|DICT|INTERRES
   155   79   80 1    
   156   79  200 1    
   157   80   81 1    
   158   80   82 1    
   159   80  201 1    
   160   81  202 1    
   161   81  203 1    
   162   81  204 1    
   163   82   83 2    
   164   82   84 am   BACKBONE|DICT|INTERRES
   165   84   85 1    
   166   84  205 1    
   167   85   86 1    
   168   85   87 1    
   169   85  206 1    
   170   86  207 1    
   171   86  208 1    
   172   86  209 1    
   173   87   88 2    
   174   87   89 am   BACKBONE|DICT|INTERRES
   175   89   90 1    
   176   89  210 1    
   177   90   91 1    
   178   90   92 1    
   179   90  211 1    
   180   91  212 1    
   181   91  213 1    
   182   91  214 1    
   183   92   93 2    
   184   92   94 am   BACKBONE|DICT|INTERRES
   185   94   95 1    
   186   94  215 1    
   187   95   96 1    
   188   95   97 1    
   189   95  216 1    
   190   96  217 1    
   191   96  218 1    
   192   96  219 1    
   193   97   98 2    
   194   97   99 am   BACKBONE|DICT|INTERRES
   195   99  100 1    
   196   99  220 1    
   197  100  101 1    
   198  100  102 1    
   199  100  221 1    
   200  101  222 1    
   201  101  223 1    
   202  101  224 1    
   203  102  103 2    
   204  102  104 am   BACKBONE|DICT|INTERRES
   205  104  105 1    
   206  104  225 1    
   207  105  106 1    
   208  105  107 1    
   209  105  226 1    
   210  106  227 1    
   211  106  228 1    
   212  106  229 1    
   213  107  108 2    
   214  107  109 am   BACKBONE|DICT|INTERRES
   215  109  110 1    
   216  109  230 1    
   217  110  111 1    
   218  110  112 1    
   219  110  231 1    
   220  111  232 1    
   221  111  233 1    
   222  111  234 1    
   223  112  113 2    
   224  112  114 am   BACKBONE|DICT|INTERRES
   225  114  115 1    
   226  114  235 1    
   227  115  116 1    
   228  115  117 1    
   229  115  236 1    
   230  116  237 1    
   231  116  238 1    
   232  116  239 1    
   233  117  118 2    
   234  117  119 am   BACKBONE|DICT|INTERRES
   235  119  120 1    
   236  119  240 1    
   237  120  121 1    
   238  120  124 1    
   239  120  241 1    
   240  121  122 am   BACKBONE|DICT|INTERRES
   241  121  123 2    
   242  122  242 1    
   243  122  243 1    
   244  124  125 1    
   245  124  244 1    
   246  124  245 1    
   247  125  126 1    
   248  126  246 1    
   249  126  247 1    
@<TRIPOS>SUBSTRUCTURE
     1 UNK         1 GROUP             0       ****    0 ROOT    
