@<TRIPOS>MOLECULE
3R540
247   249    1
SMALL
USER_CHARGES


@<TRIPOS>ATOM
      1 CA          4.0967  -15.8423  -47.1820 C.3       0 UNK        -0.1800 
      2 C           3.0025  -14.8274  -46.8879 C.2       0 UNK         0.5000 
      3 O           2.8829  -14.3675  -45.7539 O.2       0 UNK        -0.5000 
      4 N           2.2216  -14.4608  -47.9124 N.am      1 UNK        -0.5000 
      5 CA          1.0277  -13.6032  -47.8392 C.3       1 UNK         0.1400 
      6 C6          0.3416  -13.4342  -49.2187 C.3       23 UNK        -0.0398 
      7 S7         -0.0351  -15.0310  -50.0179 S.3       23 UNK        -0.2404 
      8 C8          1.3098  -15.1248  -51.2426 C.3       23 UNK        -0.0205 
      9 C9          1.6259  -16.5677  -51.5957 C.ar      23 UNK        -0.0193 
     10 C10         1.2283  -17.1071  -52.8210 C.ar      23 UNK        -0.1150 
     11 C11         1.5216  -18.4359  -53.1436 C.ar      23 UNK        -0.0193 
     12 C12         2.2197  -19.2243  -52.2197 C.ar      23 UNK        -0.1150 
     13 C13         2.5992  -18.7051  -50.9781 C.ar      23 UNK        -0.0193 
     14 C14         2.3196  -17.3676  -50.6857 C.ar      23 UNK        -0.1150 
     15 C15         3.2942  -19.6017  -49.9564 C.3       23 UNK        -0.0205 
     16 S16         2.6534  -19.4116  -48.2543 S.3       23 UNK        -0.2404 
     17 C17         0.8769  -19.7816  -48.4609 C.3       23 UNK        -0.0398 
     18 CA          0.4755  -21.1287  -47.8188 C.3       11 UNK         0.1400 
     19 N           0.5651  -21.1167  -46.3541 N.am      11 UNK        -0.5000 
     20 C           0.4059  -22.1992  -45.5783 C.2       10 UNK         0.5000 
     21 O           0.2296  -23.3350  -46.0183 O.2       10 UNK        -0.5000 
     22 CA          0.3737  -21.9734  -44.0562 C.3       10 UNK         0.1400 
     23 CB          1.7923  -21.8227  -43.4871 C.3       10 UNK        -0.1800 
     24 N          -0.4490  -20.8234  -43.6774 N.am      10 UNK        -0.5000 
     25 C          -1.7693  -20.7372  -43.8959 C.2       9 UNK         0.5000 
     26 O          -2.4367  -21.6418  -44.3950 O.2       9 UNK        -0.5000 
     27 CA         -2.4601  -19.4098  -43.5377 C.3       9 UNK         0.1400 
     28 CB         -2.8065  -19.3621  -42.0426 C.3       9 UNK        -0.1800 
     29 N          -1.6668  -18.2365  -43.9028 N.am      9 UNK        -0.5000 
     30 C          -1.3193  -17.9072  -45.1561 C.2       8 UNK         0.5000 
     31 O          -1.6626  -18.5437  -46.1524 O.2       8 UNK        -0.5000 
     32 CA         -0.3850  -16.6923  -45.3137 C.3       8 UNK         0.1400 
     33 CB         -1.1641  -15.3803  -45.1271 C.3       8 UNK        -0.1800 
     34 N           0.7343  -16.7327  -44.3725 N.am      8 UNK        -0.5000 
     35 C           1.6456  -17.7140  -44.3077 C.2       7 UNK         0.5000 
     36 O           1.6785  -18.6690  -45.0825 O.2       7 UNK        -0.5000 
     37 CA          2.6367  -17.6614  -43.1321 C.3       7 UNK         0.1400 
     38 CB          3.8041  -16.7045  -43.4127 C.3       7 UNK        -0.1800 
     39 N           1.9740  -17.2804  -41.8848 N.am      7 UNK        -0.5000 
     40 C           1.1185  -18.0663  -41.2159 C.2       6 UNK         0.5000 
     41 O           0.8343  -19.2128  -41.5593 O.2       6 UNK        -0.5000 
     42 CA          0.4416  -17.4561  -39.9748 C.3       6 UNK         0.1400 
     43 CB          1.3446  -17.6003  -38.7408 C.3       6 UNK        -0.1800 
     44 N           0.0967  -16.0462  -40.1600 N.am      6 UNK        -0.5000 
     45 C          -0.8361  -15.5987  -41.0131 C.2       5 UNK         0.5000 
     46 O          -1.5427  -16.3353  -41.6993 O.2       5 UNK        -0.5000 
     47 CA         -0.9587  -14.0697  -41.1620 C.3       5 UNK         0.1400 
     48 CB         -1.9183  -13.4977  -40.1082 C.3       5 UNK        -0.1800 
     49 N           0.3356  -13.3867  -41.0679 N.am      5 UNK        -0.5000 
     50 C           1.3395  -13.5642  -41.9358 C.2       4 UNK         0.5000 
     51 O           1.2628  -14.2938  -42.9259 O.2       4 UNK        -0.5000 
     52 CA          2.6686  -12.8821  -41.5981 C.3       4 UNK         0.1400 
     53 CB          3.4323  -13.7208  -40.5517 C.3       4 UNK        -0.1800 
     54 N           3.4553  -12.7482  -42.8207 N.am      4 UNK        -0.5000 
     55 C           4.5822  -12.0376  -42.9451 C.2       3 UNK         0.5000 
     56 O           5.0859  -11.3804  -42.0331 O.2       3 UNK        -0.5000 
     57 CA          5.2522  -12.0480  -44.3270 C.3       3 UNK         0.1400 
     58 CB          5.9515  -13.3914  -44.5916 C.3       3 UNK        -0.1800 
     59 N           4.2926  -11.7649  -45.3942 N.am      3 UNK        -0.5000 
     60 C           3.8913  -10.5297  -45.7301 C.2       2 UNK         0.5000 
     61 O           4.2750   -9.5145  -45.1470 O.2       2 UNK        -0.5000 
     62 CA          2.9322  -10.3775  -46.9277 C.3       2 UNK         0.1400 
     63 CB          3.6153   -9.6038  -48.0682 C.3       2 UNK        -0.1800 
     64 N           2.4792  -11.6642  -47.4558 N.am      2 UNK        -0.5000 
     65 C           1.2858  -12.2182  -47.2082 C.2       1 UNK         0.5000 
     66 O           0.4119  -11.6918  -46.5184 O.2       1 UNK        -0.5000 
     67 C          -0.9237  -21.5613  -48.3007 C.2       11 UNK         0.5000 
     68 O          -1.0149  -22.4158  -49.1801 O.2       11 UNK        -0.5000 
     69 N          -1.9815  -21.0083  -47.6908 N.am      12 UNK        -0.5000 
     70 CA         -3.3756  -21.3335  -47.9954 C.3       12 UNK         0.1400 
     71 CB         -4.2989  -20.3735  -47.2323 C.3       12 UNK        -0.1800 
     72 C          -3.7450  -22.7988  -47.6962 C.2       12 UNK         0.5000 
     73 O          -4.4928  -23.4018  -48.4685 O.2       12 UNK        -0.5000 
     74 N          -3.2080  -23.3416  -46.5954 N.am      13 UNK        -0.5000 
     75 CA         -3.3689  -24.7355  -46.1837 C.3       13 UNK         0.1400 
     76 CB         -2.9545  -24.8819  -44.7118 C.3       13 UNK        -0.1800 
     77 C          -2.5776  -25.7169  -47.0673 C.2       13 UNK         0.5000 
     78 O          -3.0533  -26.8274  -47.3045 O.2       13 UNK        -0.5000 
     79 N          -1.3936  -25.2985  -47.5384 N.am      14 UNK        -0.5000 
     80 CA         -0.5646  -26.0505  -48.4847 C.3       14 UNK         0.1400 
     81 CB          0.8506  -25.4528  -48.5102 C.3       14 UNK        -0.1800 
     82 C          -1.1658  -26.0843  -49.9036 C.2       14 UNK         0.5000 
     83 O          -0.9434  -27.0497  -50.6364 O.2       14 UNK        -0.5000 
     84 N          -1.9181  -25.0349  -50.2562 N.am      15 UNK        -0.5000 
     85 CA         -2.7030  -24.9107  -51.4810 C.3       15 UNK         0.1400 
     86 CB         -2.9823  -23.4192  -51.7216 C.3       15 UNK        -0.1800 
     87 C          -4.0093  -25.7305  -51.4165 C.2       15 UNK         0.5000 
     88 O          -4.1826  -26.5781  -50.5379 O.2       15 UNK        -0.5000 
     89 N          -4.9375  -25.4538  -52.3410 N.am      16 UNK        -0.5000 
     90 CA         -6.2348  -26.1260  -52.4651 C.3       16 UNK         0.1400 
     91 CB         -6.7248  -25.9789  -53.9168 C.3       16 UNK        -0.1800 
     92 C          -7.2755  -25.6389  -51.4287 C.2       16 UNK         0.5000 
     93 O          -8.4237  -25.3837  -51.7920 O.2       16 UNK        -0.5000 
     94 N          -6.8533  -25.5224  -50.1607 N.am      17 UNK        -0.5000 
     95 CA         -7.6089  -25.0511  -48.9958 C.3       17 UNK         0.1400 
     96 CB         -8.7226  -26.0529  -48.6259 C.3       17 UNK        -0.1800 
     97 C          -8.1272  -23.6132  -49.1960 C.2       17 UNK         0.5000 
     98 O          -9.3365  -23.3919  -49.2857 O.2       17 UNK        -0.5000 
     99 N          -7.1775  -22.6709  -49.2852 N.am      18 UNK        -0.5000 
    100 CA        -7.3775  -21.2404  -49.5503 C.3       18 UNK         0.1400 
    101 CB        -8.1751  -20.5659  -48.4130 C.3       18 UNK        -0.1800 
    102 C         -7.9668  -20.9713  -50.9516 C.2       18 UNK         0.5000 
    103 O         -8.8572  -20.1337  -51.1091 O.2       18 UNK        -0.5000 
    104 N         -7.4354  -21.6845  -51.9483 N.am      19 UNK        -0.5000 
    105 CA        -7.7480  -21.5545  -53.3675 C.3       19 UNK         0.1400 
    106 CB        -8.9772  -22.4145  -53.7164 C.3       19 UNK        -0.1800 
    107 C         -6.5001  -21.9507  -54.1744 C.2       19 UNK         0.5000 
    108 O         -5.4527  -22.2185  -53.5791 O.2       19 UNK        -0.5000 
    109 N         -6.6225  -21.9708  -55.5093 N.am      20 UNK        -0.5000 
    110 CA        -5.5585  -22.2744  -56.4780 C.3       20 UNK         0.1400 
    111 CB        -5.0955  -23.7422  -56.3573 C.3       20 UNK        -0.1800 
    112 C         -4.3959  -21.2617  -56.4059 C.2       20 UNK         0.5000 
    113 O         -3.2269  -21.6493  -56.3587 O.2       20 UNK        -0.5000 
    114 N         -4.7624  -19.9721  -56.3684 N.am      21 UNK        -0.5000 
    115 CA        -3.9259  -18.7665  -56.2883 C.3       21 UNK         0.1400 
    116 CB        -2.9445  -18.6717  -57.4729 C.3       21 UNK        -0.1800 
    117 C         -3.1959  -18.5812  -54.9443 C.2       21 UNK         0.5000 
    118 O         -3.2385  -17.4840  -54.3866 O.2       21 UNK        -0.5000 
    119 N         -2.5442  -19.6377  -54.4505 N.am      22 UNK        -0.5000 
    120 CA        -1.8023  -19.6445  -53.1818 C.3       22 UNK         0.1400 
    121 C         -2.7007  -19.7003  -51.9137 C.2       22 UNK         0.5000 
    122 N         -3.9398  -20.1709  -51.9913 N.am      22 UNK        -0.7600 
    123 O         -2.2695  -19.2925  -50.8402 O.2       22 UNK        -0.5000 
    124 C124       -0.7360  -20.7675  -53.1480 C.3       23 UNK        -0.0398 
    125 S125        0.5122  -20.7206  -54.4833 S.3       23 UNK        -0.2404 
    126 C126        1.0823  -18.9845  -54.5003 C.3       23 UNK        -0.0205 
    127 H127        4.2757  -15.9471  -48.2520 H         1 UNK         0.0600 
    128 H128        3.8143  -16.8174  -46.7852 H         1 UNK         0.0600 
    129 H129        5.0319  -15.5388  -46.7122 H         1 UNK         0.0600 
    130 H130        2.3798  -14.8820  -48.8146 H         1 UNK         0.3000 
    131 H131        0.3238  -14.1195  -47.1879 H         1 UNK         0.0600 
    132 H132       -0.6018  -12.8969  -49.1043 H         1 UNK         0.0800 
    133 H133        0.9526  -12.8257  -49.8881 H         1 UNK         0.0800 
    134 H134        2.2138  -14.6519  -50.8572 H         1 UNK         0.0800 
    135 H135        1.0242  -14.5594  -52.1311 H         1 UNK         0.0800 
    136 H136        0.6894  -16.4892  -53.5257 H         1 UNK         0.1150 
    137 H137        2.4518  -20.2522  -52.4595 H         1 UNK         0.1150 
    138 H138        2.6157  -16.9562  -49.7324 H         1 UNK         0.1150 
    139 H139        3.2019  -20.6508  -50.2420 H         1 UNK         0.0800 
    140 H140        4.3603  -19.3722  -49.9581 H         1 UNK         0.0800 
    141 H141        0.6302  -19.7785  -49.5239 H         1 UNK         0.0800 
    142 H142        0.3045  -18.9623  -48.0231 H         1 UNK         0.0800 
    143 H143        1.1755  -21.8873  -48.1760 H         1 UNK         0.0600 
    144 H144        0.7558  -20.2196  -45.9163 H         1 UNK         0.3000 
    145 H145       -0.0745  -22.8598  -43.6024 H         1 UNK         0.0600 
    146 H146        1.7736  -21.7319  -42.4010 H         1 UNK         0.0600 
    147 H147        2.4027  -22.6932  -43.7301 H         1 UNK         0.0600 
    148 H148        2.3000  -20.9461  -43.8877 H         1 UNK         0.0600 
    149 H149        0.0240  -20.0575  -43.2095 H         1 UNK         0.3000 
    150 H150       -3.3946  -19.3612  -44.0995 H         1 UNK         0.0600 
    151 H151       -3.4144  -20.2208  -41.7551 H         1 UNK         0.0600 
    152 H152       -3.3756  -18.4650  -41.7984 H         1 UNK         0.0600 
    153 H153       -1.9115  -19.3704  -41.4206 H         1 UNK         0.0600 
    154 H154       -1.3853  -17.6263  -43.1408 H         1 UNK         0.3000 
    155 H155        0.0336  -16.7076  -46.3222 H         1 UNK         0.0600 
    156 H156       -0.4987  -14.5174  -45.1113 H         1 UNK         0.0600 
    157 H157       -1.7270  -15.3708  -44.1941 H         1 UNK         0.0600 
    158 H158       -1.8767  -15.2348  -45.9395 H         1 UNK         0.0600 
    159 H159        0.8257  -15.9425  -43.7392 H         1 UNK         0.3000 
    160 H160        3.0517  -18.6635  -43.0049 H         1 UNK         0.0600 
    161 H161        3.4667  -15.6741  -43.5129 H         1 UNK         0.0600 
    162 H162        4.3163  -16.9739  -44.3366 H         1 UNK         0.0600 
    163 H163        4.5420  -16.7368  -42.6112 H         1 UNK         0.0600 
    164 H164        2.1107  -16.3329  -41.5693 H         1 UNK         0.3000 
    165 H165       -0.4804  -18.0114  -39.7904 H         1 UNK         0.0600 
    166 H166        0.8444  -17.2392  -37.8421 H         1 UNK         0.0600 
    167 H167        1.6051  -18.6455  -38.5687 H         1 UNK         0.0600 
    168 H168        2.2761  -17.0439  -38.8539 H         1 UNK         0.0600 
    169 H169        0.6256  -15.3720  -39.6275 H         1 UNK         0.3000 
    170 H170       -1.3758  -13.8660  -42.1505 H         1 UNK         0.0600 
    171 H171       -2.8960  -13.9774  -40.1704 H         1 UNK         0.0600 
    172 H172       -1.5426  -13.6479  -39.0953 H         1 UNK         0.0600 
    173 H173       -2.0727  -12.4285  -40.2546 H         1 UNK         0.0600 
    174 H174        0.4698  -12.7781  -40.2731 H         1 UNK         0.3000 
    175 H175        2.4599  -11.8874  -41.1995 H         1 UNK         0.0600 
    176 H176        3.7090  -14.6992  -40.9459 H         1 UNK         0.0600 
    177 H177        4.3465  -13.2243  -40.2277 H         1 UNK         0.0600 
    178 H178        2.8296  -13.8844  -39.6576 H         1 UNK         0.0600 
    179 H179        3.0806  -13.2515  -43.6194 H         1 UNK         0.3000 
    180 H180        6.0224  -11.2734  -44.3326 H         1 UNK         0.0600 
    181 H181        5.2557  -14.2289  -44.5549 H         1 UNK         0.0600 
    182 H182        6.7233  -13.5792  -43.8444 H         1 UNK         0.0600 
    183 H183        6.4354  -13.3993  -45.5683 H         1 UNK         0.0600 
    184 H184        3.8559  -12.5655  -45.8358 H         1 UNK         0.3000 
    185 H185        2.0801   -9.7872  -46.5844 H         1 UNK         0.0600 
    186 H186        3.9370   -8.6158  -47.7362 H         1 UNK         0.0600 
    187 H187        4.4964  -10.1285  -48.4398 H         1 UNK         0.0600 
    188 H188        2.9343   -9.4558  -48.9065 H         1 UNK         0.0600 
    189 H189        3.1376  -12.1752  -48.0263 H         1 UNK         0.3000 
    190 H190       -1.8253  -20.2774  -47.0018 H         1 UNK         0.3000 
    191 H191       -3.5253  -21.1729  -49.0647 H         1 UNK         0.0600 
    192 H192       -4.1387  -20.4333  -46.1564 H         1 UNK         0.0600 
    193 H193       -5.3471  -20.6042  -47.4146 H         1 UNK         0.0600 
    194 H194       -4.1319  -19.3407  -47.5387 H         1 UNK         0.0600 
    195 H195       -2.6712  -22.7450  -45.9718 H         1 UNK         0.3000 
    196 H196       -4.4267  -24.9940  -46.2662 H         1 UNK         0.0600 
    197 H197       -3.0758  -25.9107  -44.3707 H         1 UNK         0.0600 
    198 H198       -3.5654  -24.2507  -44.0664 H         1 UNK         0.0600 
    199 H199       -1.9107  -24.6045  -44.5592 H         1 UNK         0.0600 
    200 H200       -1.0336  -24.4001  -47.2338 H         1 UNK         0.3000 
    201 H201       -0.4914  -27.0811  -48.1315 H         1 UNK         0.0600 
    202 H202        1.3113  -25.4886  -47.5229 H         1 UNK         0.0600 
    203 H203        0.8428  -24.4131  -48.8381 H         1 UNK         0.0600 
    204 H204        1.4971  -26.0075  -49.1913 H         1 UNK         0.0600 
    205 H205       -1.9906  -24.2658  -49.6013 H         1 UNK         0.3000 
    206 H206       -2.1056  -25.2910  -52.3118 H         1 UNK         0.0600 
    207 H207       -3.8007  -23.0493  -51.1029 H         1 UNK         0.0600 
    208 H208       -3.2368  -23.2333  -52.7644 H         1 UNK         0.0600 
    209 H209       -2.1078  -22.8137  -51.4946 H         1 UNK         0.0600 
    210 H210       -4.7661  -24.6963  -52.9880 H         1 UNK         0.3000 
    211 H211       -6.0900  -27.1924  -52.2801 H         1 UNK         0.0600 
    212 H212       -6.9064  -24.9362  -54.1746 H         1 UNK         0.0600 
    213 H213       -7.6553  -26.5249  -54.0770 H         1 UNK         0.0600 
    214 H214       -5.9942  -26.3762  -54.6217 H         1 UNK         0.0600 
    215 H215       -5.8860  -25.7771  -49.9828 H         1 UNK         0.3000 
    216 H216       -6.9063  -25.0205  -48.1613 H         1 UNK         0.0600 
    217 H217       -9.2373  -25.7420  -47.7161 H         1 UNK         0.0600 
    218 H218       -8.3129  -27.0464  -48.4441 H         1 UNK         0.0600 
    219 H219       -9.4736  -26.1395  -49.4117 H         1 UNK         0.0600 
    220 H220       -6.2115  -22.9685  -49.1672 H         1 UNK         0.3000 
    221 H221       -6.3825  -20.7950  -49.5583 H         1 UNK         0.0600 
    222 H222       -9.2191  -20.8799  -48.4058 H         1 UNK         0.0600 
    223 H223       -7.7515  -20.7988  -47.4364 H         1 UNK         0.0600 
    224 H224       -8.1637  -19.4809  -48.5218 H         1 UNK         0.0600 
    225 H225       -6.6674  -22.3133  -51.7543 H         1 UNK         0.3000 
    226 H226       -7.9625  -20.5081  -53.5934 H         1 UNK         0.0600 
    227 H227       -9.8264  -22.1665  -53.0795 H         1 UNK         0.0600 
    228 H228       -9.2948  -22.2573  -54.7472 H         1 UNK         0.0600 
    229 H229       -8.7723  -23.4774  -53.5941 H         1 UNK         0.0600 
    230 H230       -7.5191  -21.7355  -55.9116 H         1 UNK         0.3000 
    231 H231       -5.9999  -22.1557  -57.4686 H         1 UNK         0.0600 
    232 H232       -5.9364  -24.4280  -56.4571 H         1 UNK         0.0600 
    233 H233       -4.6074  -23.9421  -55.4034 H         1 UNK         0.0600 
    234 H234       -4.3827  -23.9910  -57.1442 H         1 UNK         0.0600 
    235 H235       -5.7557  -19.7877  -56.3713 H         1 UNK         0.3000 
    236 H236       -4.6194  -17.9289  -56.3801 H         1 UNK         0.0600 
    237 H237       -2.1890  -19.4574  -57.4442 H         1 UNK         0.0600 
    238 H238       -3.4682  -18.7435  -58.4261 H         1 UNK         0.0600 
    239 H239       -2.4171  -17.7171  -57.4627 H         1 UNK         0.0600 
    240 H240       -2.5636  -20.5019  -54.9846 H         1 UNK         0.3000 
    241 H241       -1.2805  -18.6904  -53.1069 H         1 UNK         0.0600 
    242 H242       -4.2906  -20.5997  -52.8374 H         1 UNK         0.3800 
    243 H243       -4.5074  -20.1603  -51.1638 H         1 UNK         0.3800 
    244 H244       -0.2088  -20.7685  -52.1921 H         1 UNK         0.0800 
    245 H245       -1.2247  -21.7373  -53.2258 H         1 UNK         0.0800 
    246 H246        0.2862  -18.3688  -54.9219 H         1 UNK         0.0800 
    247 H247        1.9230  -18.9053  -55.1903 H         1 UNK         0.0800 
@<TRIPOS>BOND
     1    1    2 1    
     2    1  127 1    
     3    1  128 1    
     4    1  129 1    
     5    2    3 2    
     6    2    4 am   BACKBONE|DICT|INTERRES
     7    4    5 1    
     8    4  130 1    
     9    5    6 1    
    10    5   65 1    
    11    5  131 1    
    12    6    7 1    
    13    6  132 1    
    14    6  133 1    
    15    7    8 1    
    16    8    9 1    
    17    8  134 1    
    18    8  135 1    
    19    9   10 ar   
    20    9   14 ar   
    21   10   11 ar   
    22   10  136 1    
    23   11   12 ar   
    24   11  126 1    
    25   12   13 ar   
    26   12  137 1    
    27   13   14 ar   
    28   13   15 1    
    29   14  138 1    
    30   15   16 1    
    31   15  139 1    
    32   15  140 1    
    33   16   17 1    
    34   17   18 1    
    35   17  141 1    
    36   17  142 1    
    37   18   19 1    
    38   18   67 1    
    39   18  143 1    
    40   19   20 am   BACKBONE|DICT|INTERRES
    41   19  144 1    
    42   20   21 2    
    43   20   22 1    
    44   22   23 1    
    45   22   24 1    
    46   22  145 1    
    47   23  146 1    
    48   23  147 1    
    49   23  148 1    
    50   24   25 am   BACKBONE|DICT|INTERRES
    51   24  149 1    
    52   25   26 2    
    53   25   27 1    
    54   27   28 1    
    55   27   29 1    
    56   27  150 1    
    57   28  151 1    
    58   28  152 1    
    59   28  153 1    
    60   29   30 am   BACKBONE|DICT|INTERRES
    61   29  154 1    
    62   30   31 2    
    63   30   32 1    
    64   32   33 1    
    65   32   34 1    
    66   32  155 1    
    67   33  156 1    
    68   33  157 1    
    69   33  158 1    
    70   34   35 am   BACKBONE|DICT|INTERRES
    71   34  159 1    
    72   35   36 2    
    73   35   37 1    
    74   37   38 1    
    75   37   39 1    
    76   37  160 1    
    77   38  161 1    
    78   38  162 1    
    79   38  163 1    
    80   39   40 am   BACKBONE|DICT|INTERRES
    81   39  164 1    
    82   40   41 2    
    83   40   42 1    
    84   42   43 1    
    85   42   44 1    
    86   42  165 1    
    87   43  166 1    
    88   43  167 1    
    89   43  168 1    
    90   44   45 am   BACKBONE|DICT|INTERRES
    91   44  169 1    
    92   45   46 2    
    93   45   47 1    
    94   47   48 1    
    95   47   49 1    
    96   47  170 1    
    97   48  171 1    
    98   48  172 1    
    99   48  173 1    
   100   49   50 am   BACKBONE|DICT|INTERRES
   101   49  174 1    
   102   50   51 2    
   103   50   52 1    
   104   52   53 1    
   105   52   54 1    
   106   52  175 1    
   107   53  176 1    
   108   53  177 1    
   109   53  178 1    
   110   54   55 am   BACKBONE|DICT|INTERRES
   111   54  179 1    
   112   55   56 2    
   113   55   57 1    
   114   57   58 1    
   115   57   59 1    
   116   57  180 1    
   117   58  181 1    
   118   58  182 1    
   119   58  183 1    
   120   59   60 am   BACKBONE|DICT|INTERRES
   121   59  184 1    
   122   60   61 2    
   123   60   62 1    
   124   62   63 1    
   125   62   64 1    
   126   62  185 1    
   127   63  186 1    
   128   63  187 1    
   129   63  188 1    
   130   64   65 am   BACKBONE|DICT|INTERRES
   131   64  189 1    
   132   65   66 2    
   133   67   68 2    
   134   67   69 am   BACKBONE|DICT|INTERRES
   135   69   70 1    
   136   69  190 1    
   137   70   71 1    
   138   70   72 1    
   139   70  191 1    
   140   71  192 1    
   141   71  193 1    
   142   71  194 1    
   143   72   73 2    
   144   72   74 am   BACKBONE|DICT|INTERRES
   145   74   75 1    
   146   74  195 1    
   147   75   76 1    
   148   75   77 1    
   149   75  196 1    
   150   76  197 1    
   151   76  198 1    
   152   76  199 1    
   153   77   78 2    
   154   77   79 am   BACKBONE|DICT|INTERRES
   155   79   80 1    
   156   79  200 1    
   157   80   81 1    
   158   80   82 1    
   159   80  201 1    
   160   81  202 1    
   161   81  203 1    
   162   81  204 1    
   163   82   83 2    
   164   82   84 am   BACKBONE|DICT|INTERRES
   165   84   85 1    
   166   84  205 1    
   167   85   86 1    
   168   85   87 1    
   169   85  206 1    
   170   86  207 1    
   171   86  208 1    
   172   86  209 1    
   173   87   88 2    
   174   87   89 am   BACKBONE|DICT|INTERRES
   175   89   90 1    
   176   89  210 1    
   177   90   91 1    
   178   90   92 1    
   179   90  211 1    
   180   91  212 1    
   181   91  213 1    
   182   91  214 1    
   183   92   93 2    
   184   92   94 am   BACKBONE|DICT|INTERRES
   185   94   95 1    
   186   94  215 1    
   187   95   96 1    
   188   95   97 1    
   189   95  216 1    
   190   96  217 1    
   191   96  218 1    
   192   96  219 1    
   193   97   98 2    
   194   97   99 am   BACKBONE|DICT|INTERRES
   195   99  100 1    
   196   99  220 1    
   197  100  101 1    
   198  100  102 1    
   199  100  221 1    
   200  101  222 1    
   201  101  223 1    
   202  101  224 1    
   203  102  103 2    
   204  102  104 am   BACKBONE|DICT|INTERRES
   205  104  105 1    
   206  104  225 1    
   207  105  106 1    
   208  105  107 1    
   209  105  226 1    
   210  106  227 1    
   211  106  228 1    
   212  106  229 1    
   213  107  108 2    
   214  107  109 am   BACKBONE|DICT|INTERRES
   215  109  110 1    
   216  109  230 1    
   217  110  111 1    
   218  110  112 1    
   219  110  231 1    
   220  111  232 1    
   221  111  233 1    
   222  111  234 1    
   223  112  113 2    
   224  112  114 am   BACKBONE|DICT|INTERRES
   225  114  115 1    
   226  114  235 1    
   227  115  116 1    
   228  115  117 1    
   229  115  236 1    
   230  116  237 1    
   231  116  238 1    
   232  116  239 1    
   233  117  118 2    
   234  117  119 am   BACKBONE|DICT|INTERRES
   235  119  120 1    
   236  119  240 1    
   237  120  121 1    
   238  120  124 1    
   239  120  241 1    
   240  121  122 am   BACKBONE|DICT|INTERRES
   241  121  123 2    
   242  122  242 1    
   243  122  243 1    
   244  124  125 1    
   245  124  244 1    
   246  124  245 1    
   247  125  126 1    
   248  126  246 1    
   249  126  247 1    
@<TRIPOS>SUBSTRUCTURE
     1 UNK         1 GROUP             0       ****    0 ROOT    
