@<TRIPOS>MOLECULE
3R540
247   249    1
SMALL
USER_CHARGES


@<TRIPOS>ATOM
      1 CA         -0.1717  -10.0798  -52.6792 C.3       0 UNK        -0.1800 
      2 C          -0.0114  -11.4009  -51.9398 C.2       0 UNK         0.5000 
      3 O           1.0339  -12.0420  -52.0514 O.2       0 UNK        -0.5000 
      4 N          -1.0445  -11.8120  -51.1946 N.am      1 UNK        -0.5000 
      5 CA         -1.0589  -13.0281  -50.3768 C.3       1 UNK         0.1400 
      6 C6         -2.4916  -13.3812  -49.9032 C.3       23 UNK        -0.0398 
      7 S7         -3.4748  -14.1001  -51.2631 S.3       23 UNK        -0.2404 
      8 C8         -3.5408  -15.8612  -50.7854 C.3       23 UNK        -0.0205 
      9 C9         -2.1632  -16.4495  -50.5017 C.ar      23 UNK        -0.0193 
     10 C10        -1.1803  -16.4861  -51.4956 C.ar      23 UNK        -0.1150 
     11 C11         0.0964  -16.9828  -51.2146 C.ar      23 UNK        -0.0193 
     12 C12         0.3766  -17.4799  -49.9390 C.ar      23 UNK        -0.1150 
     13 C13        -0.6002  -17.4580  -48.9402 C.ar      23 UNK        -0.0193 
     14 C14        -1.8637  -16.9353  -49.2265 C.ar      23 UNK        -0.1150 
     15 C15        -0.2894  -17.9802  -47.5461 C.3       23 UNK        -0.0205 
     16 S16        -1.3228  -19.4101  -47.1134 S.3       23 UNK        -0.2404 
     17 C17        -0.7014  -20.6609  -48.2807 C.3       23 UNK        -0.0398 
     18 CA         -0.5657  -22.0832  -47.6939 C.3       11 UNK         0.1400 
     19 N           0.4207  -22.1853  -46.6135 N.am      11 UNK        -0.5000 
     20 C           0.9590  -23.3516  -46.2276 C.2       10 UNK         0.5000 
     21 O           0.6665  -24.4358  -46.7314 O.2       10 UNK        -0.5000 
     22 CA          1.9518  -23.3164  -45.0566 C.3       10 UNK         0.1400 
     23 CB          3.3135  -22.7541  -45.4935 C.3       10 UNK        -0.1800 
     24 N           1.4359  -22.5543  -43.9232 N.am      10 UNK        -0.5000 
     25 C           0.4050  -22.9370  -43.1578 C.2       9 UNK         0.5000 
     26 O          -0.2361  -23.9729  -43.3370 O.2       9 UNK        -0.5000 
     27 CA          0.0133  -21.9875  -42.0123 C.3       9 UNK         0.1400 
     28 CB          0.8829  -22.2445  -40.7730 C.3       9 UNK        -0.1800 
     29 N           0.1206  -20.5799  -42.3935 N.am      9 UNK        -0.5000 
     30 C          -0.6963  -19.9797  -43.2711 C.2       8 UNK         0.5000 
     31 O          -1.6272  -20.5493  -43.8364 O.2       8 UNK        -0.5000 
     32 CA         -0.4041  -18.5024  -43.5897 C.3       8 UNK         0.1400 
     33 CB         -0.9693  -17.6222  -42.4649 C.3       8 UNK        -0.1800 
     34 N           1.0206  -18.2072  -43.7618 N.am      8 UNK        -0.5000 
     35 C           1.8829  -18.8792  -44.5437 C.2       7 UNK         0.5000 
     36 O           1.5504  -19.7805  -45.3131 O.2       7 UNK        -0.5000 
     37 CA          3.3812  -18.5337  -44.4182 C.3       7 UNK         0.1400 
     38 CB          3.8338  -17.6963  -45.6224 C.3       7 UNK        -0.1800 
     39 N           3.7343  -17.8203  -43.1891 N.am      7 UNK        -0.5000 
     40 C           3.5291  -18.2444  -41.9330 C.2       6 UNK         0.5000 
     41 O           3.1050  -19.3670  -41.6528 O.2       6 UNK        -0.5000 
     42 CA          3.7785  -17.2202  -40.8041 C.3       6 UNK         0.1400 
     43 CB          5.0884  -17.5424  -40.0693 C.3       6 UNK        -0.1800 
     44 N           3.8124  -15.8170  -41.2440 N.am      6 UNK        -0.5000 
     45 C           2.8138  -15.1576  -41.8506 C.2       5 UNK         0.5000 
     46 O           1.7254  -15.6738  -42.1163 O.2       5 UNK        -0.5000 
     47 CA          3.1151  -13.7044  -42.2621 C.3       5 UNK         0.1400 
     48 CB          4.2794  -13.6505  -43.2683 C.3       5 UNK        -0.1800 
     49 N           1.9463  -13.0986  -42.8946 N.am      5 UNK        -0.5000 
     50 C           1.1691  -12.1470  -42.3611 C.2       4 UNK         0.5000 
     51 O           1.3734  -11.6385  -41.2578 O.2       4 UNK        -0.5000 
     52 CA         -0.0344  -11.6613  -43.1997 C.3       4 UNK         0.1400 
     53 CB          0.2870  -10.3160  -43.8693 C.3       4 UNK        -0.1800 
     54 N          -0.4327  -12.6154  -44.2352 N.am      4 UNK        -0.5000 
     55 C          -1.0744  -13.7673  -44.0016 C.2       3 UNK         0.5000 
     56 O          -1.5522  -14.0612  -42.9060 O.2       3 UNK        -0.5000 
     57 CA         -1.1961  -14.7666  -45.1738 C.3       3 UNK         0.1400 
     58 CB         -2.6604  -14.9331  -45.6083 C.3       3 UNK        -0.1800 
     59 N          -0.3902  -14.4461  -46.3562 N.am      3 UNK        -0.5000 
     60 C           0.9483  -14.4026  -46.4181 C.2       2 UNK         0.5000 
     61 O           1.6716  -14.5813  -45.4393 O.2       2 UNK        -0.5000 
     62 CA          1.5886  -14.1043  -47.7901 C.3       2 UNK         0.1400 
     63 CB          2.6291  -15.1753  -48.1548 C.3       2 UNK        -0.1800 
     64 N           0.6121  -14.0043  -48.8799 N.am      2 UNK        -0.5000 
     65 C          -0.0976  -12.9081  -49.1778 C.2       1 UNK         0.5000 
     66 O          -0.0456  -11.8606  -48.5296 O.2       1 UNK        -0.5000 
     67 C          -1.9258  -22.7050  -47.3148 C.2       11 UNK         0.5000 
     68 O          -2.5895  -23.2674  -48.1894 O.2       11 UNK        -0.5000 
     69 N          -2.2991  -22.6404  -46.0260 N.am      12 UNK        -0.5000 
     70 CA         -3.4750  -23.3144  -45.4767 C.3       12 UNK         0.1400 
     71 CB         -3.7365  -22.8660  -44.0327 C.3       12 UNK        -0.1800 
     72 C          -3.3616  -24.8449  -45.5623 C.2       12 UNK         0.5000 
     73 O          -4.3052  -25.4963  -46.0101 O.2       12 UNK        -0.5000 
     74 N          -2.1994  -25.3868  -45.1745 N.am      13 UNK        -0.5000 
     75 CA         -1.8900  -26.8128  -45.2758 C.3       13 UNK         0.1400 
     76 CB         -0.5800  -27.1061  -44.5288 C.3       13 UNK        -0.1800 
     77 C          -1.8093  -27.3045  -46.7334 C.2       13 UNK         0.5000 
     78 O          -2.2766  -28.4053  -47.0280 O.2       13 UNK        -0.5000 
     79 N          -1.2186  -26.4840  -47.6120 N.am      14 UNK        -0.5000 
     80 CA         -1.0112  -26.7986  -49.0221 C.3       14 UNK         0.1400 
     81 CB          0.0513  -25.8563  -49.6062 C.3       14 UNK        -0.1800 
     82 C          -2.2978  -26.7504  -49.8645 C.2       14 UNK         0.5000 
     83 O          -2.5458  -27.6894  -50.6229 O.2       14 UNK        -0.5000 
     84 N          -3.0686  -25.6575  -49.7606 N.am      15 UNK        -0.5000 
     85 CA         -4.1668  -25.3636  -50.6876 C.3       15 UNK         0.1400 
     86 CB         -3.5947  -24.7166  -51.9670 C.3       15 UNK        -0.1800 
     87 C          -5.2787  -24.5037  -50.0609 C.2       15 UNK         0.5000 
     88 O          -5.9697  -23.7915  -50.7913 O.2       15 UNK        -0.5000 
     89 N          -5.4315  -24.5447  -48.7275 N.am      16 UNK        -0.5000 
     90 CA         -6.4322  -23.7993  -47.9429 C.3       16 UNK         0.1400 
     91 CB         -7.8527  -24.3142  -48.2584 C.3       16 UNK        -0.1800 
     92 C          -6.3279  -22.2606  -48.0787 C.2       16 UNK         0.5000 
     93 O          -7.2995  -21.5593  -47.7938 O.2       16 UNK        -0.5000 
     94 N          -5.1634  -21.7711  -48.5377 N.am      17 UNK        -0.5000 
     95 CA         -4.8566  -20.3897  -48.9329 C.3       17 UNK         0.1400 
     96 CB         -4.8888  -19.4592  -47.7034 C.3       17 UNK        -0.1800 
     97 C          -5.7342  -19.8576  -50.0931 C.2       17 UNK         0.5000 
     98 O          -5.8116  -18.6435  -50.2903 O.2       17 UNK        -0.5000 
     99 N          -6.3951  -20.7596  -50.8320 N.am      18 UNK        -0.5000 
    100 CA        -7.3825  -20.4326  -51.8555 C.3       18 UNK         0.1400 
    101 CB        -8.3091  -21.6429  -52.0482 C.3       18 UNK        -0.1800 
    102 C         -6.7303  -20.0465  -53.1915 C.2       18 UNK         0.5000 
    103 O         -5.6559  -20.5523  -53.5255 O.2       18 UNK        -0.5000 
    104 N         -7.4225  -19.1750  -53.9413 N.am      19 UNK        -0.5000 
    105 CA        -7.1815  -18.7879  -55.3413 C.3       19 UNK         0.1400 
    106 CB        -7.4976  -19.9835  -56.2642 C.3       19 UNK        -0.1800 
    107 C         -5.7887  -18.1915  -55.6483 C.2       19 UNK         0.5000 
    108 O         -5.4154  -18.1052  -56.8194 O.2       19 UNK        -0.5000 
    109 N         -5.0393  -17.8153  -54.6013 N.am      20 UNK        -0.5000 
    110 CA        -3.6160  -17.4631  -54.6216 C.3       20 UNK         0.1400 
    111 CB        -3.3842  -16.1085  -55.3213 C.3       20 UNK        -0.1800 
    112 C         -2.7293  -18.6042  -55.1701 C.2       20 UNK         0.5000 
    113 O         -1.7485  -18.3457  -55.8688 O.2       20 UNK        -0.5000 
    114 N         -3.0950  -19.8539  -54.8412 N.am      21 UNK        -0.5000 
    115 CA        -2.3323  -21.0587  -55.1782 C.3       21 UNK         0.1400 
    116 CB        -3.2369  -22.2883  -55.0046 C.3       21 UNK        -0.1800 
    117 C         -1.0533  -21.2066  -54.3307 C.2       21 UNK         0.5000 
    118 O         -0.1052  -21.8561  -54.7721 O.2       21 UNK        -0.5000 
    119 N         -1.0585  -20.5973  -53.1368 N.am      22 UNK        -0.5000 
    120 CA         0.0626  -20.4934  -52.1847 C.3       22 UNK         0.1400 
    121 C          0.4684  -21.8274  -51.4880 C.2       22 UNK         0.5000 
    122 N         -0.2767  -22.9137  -51.6431 N.am      22 UNK        -0.7600 
    123 O          1.4555  -21.8718  -50.7605 O.2       22 UNK        -0.5000 
    124 C124        1.3013  -19.7435  -52.7565 C.3       23 UNK        -0.0398 
    125 S125        0.9027  -18.1675  -53.5917 S.3       23 UNK        -0.2404 
    126 C126        1.1828  -16.9438  -52.2779 C.3       23 UNK        -0.0205 
    127 H127        0.5939   -9.3742  -52.3565 H         1 UNK         0.0600 
    128 H128       -1.1477   -9.6290  -52.4978 H         1 UNK         0.0600 
    129 H129       -0.0634  -10.2350  -53.7526 H         1 UNK         0.0600 
    130 H130       -1.8712  -11.2355  -51.1357 H         1 UNK         0.3000 
    131 H131       -0.6881  -13.8388  -51.0059 H         1 UNK         0.0600 
    132 H132       -3.0042  -12.4947  -49.5261 H         1 UNK         0.0800 
    133 H133       -2.4804  -14.0861  -49.0706 H         1 UNK         0.0800 
    134 H134       -4.0233  -16.4308  -51.5788 H         1 UNK         0.0800 
    135 H135       -4.1886  -15.9608  -49.9128 H         1 UNK         0.0800 
    136 H136       -1.3983  -16.0976  -52.4806 H         1 UNK         0.1150 
    137 H137        1.3596  -17.8736  -49.7214 H         1 UNK         0.1150 
    138 H138       -2.6160  -16.9132  -48.4513 H         1 UNK         0.1150 
    139 H139        0.7629  -18.2510  -47.4510 H         1 UNK         0.0800 
    140 H140       -0.4689  -17.1908  -46.8185 H         1 UNK         0.0800 
    141 H141       -1.3612  -20.6715  -49.1491 H         1 UNK         0.0800 
    142 H142        0.2726  -20.3440  -48.6554 H         1 UNK         0.0800 
    143 H143       -0.1831  -22.6964  -48.5115 H         1 UNK         0.0600 
    144 H144        0.6982  -21.3227  -46.1510 H         1 UNK         0.3000 
    145 H145        2.1074  -24.3450  -44.7237 H         1 UNK         0.0600 
    146 H146        4.0285  -22.7679  -44.6708 H         1 UNK         0.0600 
    147 H147        3.2372  -21.7286  -45.8544 H         1 UNK         0.0600 
    148 H148        3.7369  -23.3517  -46.3017 H         1 UNK         0.0600 
    149 H149        1.8567  -21.6532  -43.7507 H         1 UNK         0.3000 
    150 H150       -1.0261  -22.1939  -41.7482 H         1 UNK         0.0600 
    151 H151        0.8148  -23.2865  -40.4573 H         1 UNK         0.0600 
    152 H152        0.5625  -21.6287  -39.9325 H         1 UNK         0.0600 
    153 H153        1.9343  -22.0266  -40.9658 H         1 UNK         0.0600 
    154 H154        0.8912  -20.0540  -42.0008 H         1 UNK         0.3000 
    155 H155       -0.9127  -18.2436  -44.5177 H         1 UNK         0.0600 
    156 H156       -2.0474  -17.7559  -42.3671 H         1 UNK         0.0600 
    157 H157       -0.7889  -16.5666  -42.6530 H         1 UNK         0.0600 
    158 H158       -0.5176  -17.8602  -41.5010 H         1 UNK         0.0600 
    159 H159        1.3852  -17.4529  -43.1898 H         1 UNK         0.3000 
    160 H160        3.9316  -19.4764  -44.4245 H         1 UNK         0.0600 
    161 H161        3.3479  -16.7208  -45.6290 H         1 UNK         0.0600 
    162 H162        3.5898  -18.1926  -46.5628 H         1 UNK         0.0600 
    163 H163        4.9118  -17.5351  -45.6106 H         1 UNK         0.0600 
    164 H164        4.0765  -16.8788  -43.3077 H         1 UNK         0.3000 
    165 H165        2.9542  -17.3213  -40.0953 H         1 UNK         0.0600 
    166 H166        5.2295  -16.8896  -39.2077 H         1 UNK         0.0600 
    167 H167        5.0880  -18.5688  -39.6995 H         1 UNK         0.0600 
    168 H168        5.9541  -17.4297  -40.7233 H         1 UNK         0.0600 
    169 H169        4.6755  -15.3236  -41.0663 H         1 UNK         0.3000 
    170 H170        3.3988  -13.1514  -41.3646 H         1 UNK         0.0600 
    171 H171        4.0778  -14.2570  -44.1524 H         1 UNK         0.0600 
    172 H172        4.4609  -12.6287  -43.6024 H         1 UNK         0.0600 
    173 H173        5.2088  -14.0107  -42.8266 H         1 UNK         0.0600 
    174 H174        1.6711  -13.5252  -43.7741 H         1 UNK         0.3000 
    175 H175       -0.8746  -11.5124  -42.5182 H         1 UNK         0.0600 
    176 H176        1.1189  -10.4036  -44.5693 H         1 UNK         0.0600 
    177 H177       -0.5741   -9.9317  -44.4165 H         1 UNK         0.0600 
    178 H178        0.5602   -9.5650  -43.1268 H         1 UNK         0.0600 
    179 H179       -0.0894  -12.4426  -45.1684 H         1 UNK         0.3000 
    180 H180       -0.8428  -15.7284  -44.8019 H         1 UNK         0.0600 
    181 H181       -3.0590  -14.0133  -46.0378 H         1 UNK         0.0600 
    182 H182       -3.2932  -15.2020  -44.7614 H         1 UNK         0.0600 
    183 H183       -2.7649  -15.7255  -46.3490 H         1 UNK         0.0600 
    184 H184       -0.8991  -14.2638  -47.2064 H         1 UNK         0.3000 
    185 H185        2.1106  -13.1494  -47.7000 H         1 UNK         0.0600 
    186 H186        2.2075  -16.1793  -48.1181 H         1 UNK         0.0600 
    187 H187        3.0334  -15.0146  -49.1544 H         1 UNK         0.0600 
    188 H188        3.4705  -15.1490  -47.4617 H         1 UNK         0.0600 
    189 H189        0.4969  -14.8331  -49.4468 H         1 UNK         0.3000 
    190 H190       -1.7375  -22.1033  -45.3753 H         1 UNK         0.3000 
    191 H191       -4.3329  -23.0071  -46.0712 H         1 UNK         0.0600 
    192 H192       -3.9636  -21.8010  -43.9890 H         1 UNK         0.0600 
    193 H193       -2.8785  -23.0557  -43.3877 H         1 UNK         0.0600 
    194 H194       -4.5908  -23.3940  -43.6072 H         1 UNK         0.0600 
    195 H195       -1.4772  -24.7903  -44.7843 H         1 UNK         0.3000 
    196 H196       -2.6919  -27.3666  -44.7829 H         1 UNK         0.0600 
    197 H197       -0.6600  -26.8393  -43.4749 H         1 UNK         0.0600 
    198 H198        0.2577  -26.5496  -44.9506 H         1 UNK         0.0600 
    199 H199       -0.3298  -28.1665  -44.5783 H         1 UNK         0.0600 
    200 H200       -0.7933  -25.6279  -47.2686 H         1 UNK         0.3000 
    201 H201       -0.6167  -27.8152  -49.0846 H         1 UNK         0.0600 
    202 H202        1.0064  -25.9753  -49.0942 H         1 UNK         0.0600 
    203 H203       -0.2487  -24.8138  -49.5120 H         1 UNK         0.0600 
    204 H204        0.2213  -26.0625  -50.6637 H         1 UNK         0.0600 
    205 H205       -2.8086  -24.9110  -49.1197 H         1 UNK         0.3000 
    206 H206       -4.6562  -26.2981  -50.9691 H         1 UNK         0.0600 
    207 H207       -2.8310  -25.3429  -52.4279 H         1 UNK         0.0600 
    208 H208       -3.1491  -23.7453  -51.7513 H         1 UNK         0.0600 
    209 H209       -4.3728  -24.5626  -52.7156 H         1 UNK         0.0600 
    210 H210       -4.8170  -25.1402  -48.1855 H         1 UNK         0.3000 
    211 H211       -6.2440  -24.0235  -46.8942 H         1 UNK         0.0600 
    212 H212       -8.1655  -24.0516  -49.2695 H         1 UNK         0.0600 
    213 H213       -8.5856  -23.8901  -47.5712 H         1 UNK         0.0600 
    214 H214       -7.9098  -25.3982  -48.1599 H         1 UNK         0.0600 
    215 H215       -4.4164  -22.4386  -48.6971 H         1 UNK         0.3000 
    216 H216       -3.8335  -20.4044  -49.3097 H         1 UNK         0.0600 
    217 H217       -4.4684  -18.4820  -47.9421 H         1 UNK         0.0600 
    218 H218       -4.3049  -19.8713  -46.8803 H         1 UNK         0.0600 
    219 H219       -5.9051  -19.2980  -47.3435 H         1 UNK         0.0600 
    220 H220       -6.2332  -21.7478  -50.6689 H         1 UNK         0.3000 
    221 H221       -7.9848  -19.5937  -51.5001 H         1 UNK         0.0600 
    222 H222       -7.7649  -22.5082  -52.4290 H         1 UNK         0.0600 
    223 H223       -8.7814  -21.9323  -51.1091 H         1 UNK         0.0600 
    224 H224       -9.1057  -21.4186  -52.7586 H         1 UNK         0.0600 
    225 H225       -8.2720  -18.7953  -53.5462 H         1 UNK         0.3000 
    226 H226       -7.8991  -17.9975  -55.5654 H         1 UNK         0.0600 
    227 H227       -8.4921  -20.3832  -56.0660 H         1 UNK         0.0600 
    228 H228       -7.4733  -19.6915  -57.3147 H         1 UNK         0.0600 
    229 H229       -6.7787  -20.7931  -56.1324 H         1 UNK         0.0600 
    230 H230       -5.4469  -17.9368  -53.6851 H         1 UNK         0.3000 
    231 H231       -3.3181  -17.3444  -53.5806 H         1 UNK         0.0600 
    232 H232       -2.3462  -15.7898  -55.2183 H         1 UNK         0.0600 
    233 H233       -4.0057  -15.3281  -54.8822 H         1 UNK         0.0600 
    234 H234       -3.6070  -16.1576  -56.3873 H         1 UNK         0.0600 
    235 H235       -3.9550  -19.9987  -54.3180 H         1 UNK         0.3000 
    236 H236       -2.0325  -20.9987  -56.2265 H         1 UNK         0.0600 
    237 H237       -3.5822  -22.3902  -53.9753 H         1 UNK         0.0600 
    238 H238       -4.1169  -22.2229  -55.6449 H         1 UNK         0.0600 
    239 H239       -2.7090  -23.2057  -55.2680 H         1 UNK         0.0600 
    240 H240       -1.8960  -20.0992  -52.8766 H         1 UNK         0.3000 
    241 H241       -0.3290  -19.8799  -51.3740 H         1 UNK         0.0600 
    242 H242        0.0110  -23.7704  -51.2025 H         1 UNK         0.3800 
    243 H243       -1.0705  -22.9004  -52.2609 H         1 UNK         0.3800 
    244 H244        1.8179  -20.3759  -53.4800 H         1 UNK         0.0800 
    245 H245        2.0260  -19.5461  -51.9650 H         1 UNK         0.0800 
    246 H246        1.2012  -15.9495  -52.7266 H         1 UNK         0.0800 
    247 H247        2.1702  -17.0947  -51.8388 H         1 UNK         0.0800 
@<TRIPOS>BOND
     1    1    2 1    
     2    1  127 1    
     3    1  128 1    
     4    1  129 1    
     5    2    3 2    
     6    2    4 am   BACKBONE|DICT|INTERRES
     7    4    5 1    
     8    4  130 1    
     9    5    6 1    
    10    5   65 1    
    11    5  131 1    
    12    6    7 1    
    13    6  132 1    
    14    6  133 1    
    15    7    8 1    
    16    8    9 1    
    17    8  134 1    
    18    8  135 1    
    19    9   10 ar   
    20    9   14 ar   
    21   10   11 ar   
    22   10  136 1    
    23   11   12 ar   
    24   11  126 1    
    25   12   13 ar   
    26   12  137 1    
    27   13   14 ar   
    28   13   15 1    
    29   14  138 1    
    30   15   16 1    
    31   15  139 1    
    32   15  140 1    
    33   16   17 1    
    34   17   18 1    
    35   17  141 1    
    36   17  142 1    
    37   18   19 1    
    38   18   67 1    
    39   18  143 1    
    40   19   20 am   BACKBONE|DICT|INTERRES
    41   19  144 1    
    42   20   21 2    
    43   20   22 1    
    44   22   23 1    
    45   22   24 1    
    46   22  145 1    
    47   23  146 1    
    48   23  147 1    
    49   23  148 1    
    50   24   25 am   BACKBONE|DICT|INTERRES
    51   24  149 1    
    52   25   26 2    
    53   25   27 1    
    54   27   28 1    
    55   27   29 1    
    56   27  150 1    
    57   28  151 1    
    58   28  152 1    
    59   28  153 1    
    60   29   30 am   BACKBONE|DICT|INTERRES
    61   29  154 1    
    62   30   31 2    
    63   30   32 1    
    64   32   33 1    
    65   32   34 1    
    66   32  155 1    
    67   33  156 1    
    68   33  157 1    
    69   33  158 1    
    70   34   35 am   BACKBONE|DICT|INTERRES
    71   34  159 1    
    72   35   36 2    
    73   35   37 1    
    74   37   38 1    
    75   37   39 1    
    76   37  160 1    
    77   38  161 1    
    78   38  162 1    
    79   38  163 1    
    80   39   40 am   BACKBONE|DICT|INTERRES
    81   39  164 1    
    82   40   41 2    
    83   40   42 1    
    84   42   43 1    
    85   42   44 1    
    86   42  165 1    
    87   43  166 1    
    88   43  167 1    
    89   43  168 1    
    90   44   45 am   BACKBONE|DICT|INTERRES
    91   44  169 1    
    92   45   46 2    
    93   45   47 1    
    94   47   48 1    
    95   47   49 1    
    96   47  170 1    
    97   48  171 1    
    98   48  172 1    
    99   48  173 1    
   100   49   50 am   BACKBONE|DICT|INTERRES
   101   49  174 1    
   102   50   51 2    
   103   50   52 1    
   104   52   53 1    
   105   52   54 1    
   106   52  175 1    
   107   53  176 1    
   108   53  177 1    
   109   53  178 1    
   110   54   55 am   BACKBONE|DICT|INTERRES
   111   54  179 1    
   112   55   56 2    
   113   55   57 1    
   114   57   58 1    
   115   57   59 1    
   116   57  180 1    
   117   58  181 1    
   118   58  182 1    
   119   58  183 1    
   120   59   60 am   BACKBONE|DICT|INTERRES
   121   59  184 1    
   122   60   61 2    
   123   60   62 1    
   124   62   63 1    
   125   62   64 1    
   126   62  185 1    
   127   63  186 1    
   128   63  187 1    
   129   63  188 1    
   130   64   65 am   BACKBONE|DICT|INTERRES
   131   64  189 1    
   132   65   66 2    
   133   67   68 2    
   134   67   69 am   BACKBONE|DICT|INTERRES
   135   69   70 1    
   136   69  190 1    
   137   70   71 1    
   138   70   72 1    
   139   70  191 1    
   140   71  192 1    
   141   71  193 1    
   142   71  194 1    
   143   72   73 2    
   144   72   74 am   BACKBONE|DICT|INTERRES
   145   74   75 1    
   146   74  195 1    
   147   75   76 1    
   148   75   77 1    
   149   75  196 1    
   150   76  197 1    
   151   76  198 1    
   152   76  199 1    
   153   77   78 2    
   154   77   79 am   BACKBONE|DICT|INTERRES
   155   79   80 1    
   156   79  200 1    
   157   80   81 1    
   158   80   82 1    
   159   80  201 1    
   160   81  202 1    
   161   81  203 1    
   162   81  204 1    
   163   82   83 2    
   164   82   84 am   BACKBONE|DICT|INTERRES
   165   84   85 1    
   166   84  205 1    
   167   85   86 1    
   168   85   87 1    
   169   85  206 1    
   170   86  207 1    
   171   86  208 1    
   172   86  209 1    
   173   87   88 2    
   174   87   89 am   BACKBONE|DICT|INTERRES
   175   89   90 1    
   176   89  210 1    
   177   90   91 1    
   178   90   92 1    
   179   90  211 1    
   180   91  212 1    
   181   91  213 1    
   182   91  214 1    
   183   92   93 2    
   184   92   94 am   BACKBONE|DICT|INTERRES
   185   94   95 1    
   186   94  215 1    
   187   95   96 1    
   188   95   97 1    
   189   95  216 1    
   190   96  217 1    
   191   96  218 1    
   192   96  219 1    
   193   97   98 2    
   194   97   99 am   BACKBONE|DICT|INTERRES
   195   99  100 1    
   196   99  220 1    
   197  100  101 1    
   198  100  102 1    
   199  100  221 1    
   200  101  222 1    
   201  101  223 1    
   202  101  224 1    
   203  102  103 2    
   204  102  104 am   BACKBONE|DICT|INTERRES
   205  104  105 1    
   206  104  225 1    
   207  105  106 1    
   208  105  107 1    
   209  105  226 1    
   210  106  227 1    
   211  106  228 1    
   212  106  229 1    
   213  107  108 2    
   214  107  109 am   BACKBONE|DICT|INTERRES
   215  109  110 1    
   216  109  230 1    
   217  110  111 1    
   218  110  112 1    
   219  110  231 1    
   220  111  232 1    
   221  111  233 1    
   222  111  234 1    
   223  112  113 2    
   224  112  114 am   BACKBONE|DICT|INTERRES
   225  114  115 1    
   226  114  235 1    
   227  115  116 1    
   228  115  117 1    
   229  115  236 1    
   230  116  237 1    
   231  116  238 1    
   232  116  239 1    
   233  117  118 2    
   234  117  119 am   BACKBONE|DICT|INTERRES
   235  119  120 1    
   236  119  240 1    
   237  120  121 1    
   238  120  124 1    
   239  120  241 1    
   240  121  122 am   BACKBONE|DICT|INTERRES
   241  121  123 2    
   242  122  242 1    
   243  122  243 1    
   244  124  125 1    
   245  124  244 1    
   246  124  245 1    
   247  125  126 1    
   248  126  246 1    
   249  126  247 1    
@<TRIPOS>SUBSTRUCTURE
     1 UNK         1 GROUP             0       ****    0 ROOT    
