@<TRIPOS>MOLECULE
3R540
247   249    1
SMALL
USER_CHARGES


@<TRIPOS>ATOM
      1 CA         -2.3530  -14.1617  -49.0273 C.3       0 UNK        -0.1800 
      2 C          -0.9654  -13.8824  -49.5871 C.2       0 UNK         0.5000 
      3 O          -0.7979  -13.8381  -50.8066 O.2       0 UNK        -0.5000 
      4 N           0.0078  -13.6807  -48.6931 N.am      1 UNK        -0.5000 
      5 CA          1.3493  -13.1704  -48.9797 C.3       1 UNK         0.1400 
      6 C6          2.4604  -14.1450  -48.5040 C.3       23 UNK        -0.0398 
      7 S7          2.7136  -15.5161  -49.6746 S.3       23 UNK        -0.2404 
      8 C8          1.7816  -16.8434  -48.8557 C.3       23 UNK        -0.0205 
      9 C9          1.3116  -17.9002  -49.8438 C.ar      23 UNK        -0.0193 
     10 C10         0.4908  -17.5363  -50.9122 C.ar      23 UNK        -0.1150 
     11 C11         0.0479  -18.4935  -51.8252 C.ar      23 UNK        -0.0193 
     12 C12         0.3797  -19.8361  -51.6289 C.ar      23 UNK        -0.1150 
     13 C13         1.1747  -20.2291  -50.5470 C.ar      23 UNK        -0.0193 
     14 C14         1.6635  -19.2422  -49.6758 C.ar      23 UNK        -0.1150 
     15 C15         1.4470  -21.7285  -50.3721 C.3       23 UNK        -0.0205 
     16 S16         2.4423  -22.2271  -48.9220 S.3       23 UNK        -0.2404 
     17 C17         1.3761  -21.6969  -47.5408 C.3       23 UNK        -0.0398 
     18 CA          0.8340  -22.8485  -46.6681 C.3       11 UNK         0.1400 
     19 N           0.3967  -22.3469  -45.3645 N.am      11 UNK        -0.5000 
     20 C           0.0179  -23.1061  -44.3287 C.2       10 UNK         0.5000 
     21 O           0.0386  -24.3370  -44.3374 O.2       10 UNK        -0.5000 
     22 CA         -0.5171  -22.3581  -43.0935 C.3       10 UNK         0.1400 
     23 CB          0.6384  -21.8077  -42.2445 C.3       10 UNK        -0.1800 
     24 N          -1.4256  -21.2660  -43.4501 N.am      10 UNK        -0.5000 
     25 C          -2.6093  -21.4355  -44.0571 C.2       9 UNK         0.5000 
     26 O          -3.0806  -22.5377  -44.3370 O.2       9 UNK        -0.5000 
     27 CA         -3.3729  -20.1617  -44.4645 C.3       9 UNK         0.1400 
     28 CB         -4.0956  -19.5422  -43.2593 C.3       9 UNK        -0.1800 
     29 N          -2.5095  -19.1592  -45.0898 N.am      9 UNK        -0.5000 
     30 C          -1.8422  -19.3394  -46.2381 C.2       8 UNK         0.5000 
     31 O          -1.9012  -20.3639  -46.9130 O.2       8 UNK        -0.5000 
     32 CA         -0.9145  -18.2014  -46.6878 C.3       8 UNK         0.1400 
     33 CB         -1.7207  -17.0847  -47.3646 C.3       8 UNK        -0.1800 
     34 N          -0.1341  -17.6538  -45.5781 N.am      8 UNK        -0.5000 
     35 C           0.7876  -18.3435  -44.8896 C.2       7 UNK         0.5000 
     36 O           1.1072  -19.5036  -45.1431 O.2       7 UNK        -0.5000 
     37 CA          1.4104  -17.6371  -43.6742 C.3       7 UNK         0.1400 
     38 CB          2.5346  -16.6843  -44.1102 C.3       7 UNK        -0.1800 
     39 N           0.4070  -16.9026  -42.9044 N.am      7 UNK        -0.5000 
     40 C          -0.5999  -17.4797  -42.2308 C.2       6 UNK         0.5000 
     41 O          -0.7472  -18.6977  -42.1308 O.2       6 UNK        -0.5000 
     42 CA         -1.6466  -16.5343  -41.6120 C.3       6 UNK         0.1400 
     43 CB         -1.2225  -16.1133  -40.1974 C.3       6 UNK        -0.1800 
     44 N          -1.8782  -15.3376  -42.4247 N.am      6 UNK        -0.5000 
     45 C          -2.3904  -15.3402  -43.6649 C.2       5 UNK         0.5000 
     46 O          -2.7750  -16.3599  -44.2354 O.2       5 UNK        -0.5000 
     47 CA         -2.4296  -13.9895  -44.4069 C.3       5 UNK         0.1400 
     48 CB         -3.7929  -13.3089  -44.2201 C.3       5 UNK        -0.1800 
     49 N          -1.3667  -13.0866  -43.9555 N.am      5 UNK        -0.5000 
     50 C          -0.0760  -13.2263  -44.2828 C.2       4 UNK         0.5000 
     51 O           0.3383  -14.0429  -45.1111 O.2       4 UNK        -0.5000 
     52 CA          0.9170  -12.3791  -43.4753 C.3       4 UNK         0.1400 
     53 CB          1.2379  -13.1053  -42.1501 C.3       4 UNK        -0.1800 
     54 N           2.1282  -12.1676  -44.2628 N.am      4 UNK        -0.5000 
     55 C           3.1775  -11.4120  -43.9112 C.2       3 UNK         0.5000 
     56 O           3.2514  -10.7791  -42.8572 O.2       3 UNK        -0.5000 
     57 CA          4.3370  -11.3302  -44.9214 C.3       3 UNK         0.1400 
     58 CB          5.1202  -12.6526  -44.9642 C.3       3 UNK        -0.1800 
     59 N           3.8812  -10.9927  -46.2689 N.am      3 UNK        -0.5000 
     60 C           3.3215   -9.8268  -46.6256 C.2       2 UNK         0.5000 
     61 O           3.2010   -8.8634  -45.8680 O.2       2 UNK        -0.5000 
     62 CA          2.8001   -9.7183  -48.0742 C.3       2 UNK         0.1400 
     63 CB          3.8279   -9.0013  -48.9634 C.3       2 UNK        -0.1800 
     64 N           2.4647  -11.0118  -48.6800 N.am      2 UNK        -0.5000 
     65 C           1.4858  -11.8206  -48.2522 C.2       1 UNK         0.5000 
     66 O           0.7455  -11.5488  -47.3026 O.2       1 UNK        -0.5000 
     67 C          -0.2841  -23.6378  -47.3798 C.2       11 UNK         0.5000 
     68 O          -0.0309  -24.7379  -47.8676 O.2       11 UNK        -0.5000 
     69 N          -1.5086  -23.0927  -47.3787 N.am      12 UNK        -0.5000 
     70 CA         -2.7060  -23.7240  -47.9308 C.3       12 UNK         0.1400 
     71 CB         -3.8792  -22.7330  -47.8920 C.3       12 UNK        -0.1800 
     72 C          -3.0797  -25.0329  -47.2151 C.2       12 UNK         0.5000 
     73 O          -3.4286  -26.0094  -47.8784 O.2       12 UNK        -0.5000 
     74 N          -2.9643  -25.0466  -45.8797 N.am      13 UNK        -0.5000 
     75 CA         -3.1710  -26.2315  -45.0468 C.3       13 UNK         0.1400 
     76 CB         -3.1675  -25.8299  -43.5642 C.3       13 UNK        -0.1800 
     77 C          -2.1354  -27.3381  -45.3215 C.2       13 UNK         0.5000 
     78 O          -2.5070  -28.5104  -45.3795 O.2       13 UNK        -0.5000 
     79 N          -0.8680  -26.9468  -45.5167 N.am      14 UNK        -0.5000 
     80 CA          0.2291  -27.8440  -45.8822 C.3       14 UNK         0.1400 
     81 CB          1.5697  -27.1144  -45.7050 C.3       14 UNK        -0.1800 
     82 C           0.0897  -28.4022  -47.3119 C.2       14 UNK         0.5000 
     83 O           0.3217  -29.5932  -47.5237 O.2       14 UNK        -0.5000 
     84 N          -0.2987  -27.5397  -48.2612 N.am      15 UNK        -0.5000 
     85 CA         -0.5356  -27.8865  -49.6647 C.3       15 UNK         0.1400 
     86 CB         -0.6094  -26.5937  -50.4931 C.3       15 UNK        -0.1800 
     87 C          -1.8098  -28.7242  -49.8851 C.2       15 UNK         0.5000 
     88 O          -1.8851  -29.4531  -50.8750 O.2       15 UNK        -0.5000 
     89 N          -2.7834  -28.5850  -48.9739 N.am      16 UNK        -0.5000 
     90 CA         -4.1368  -29.1461  -49.0108 C.3       16 UNK         0.1400 
     91 CB         -4.1080  -30.6880  -48.9586 C.3       16 UNK        -0.1800 
     92 C          -4.9706  -28.5826  -50.1821 C.2       16 UNK         0.5000 
     93 O          -5.7540  -29.3094  -50.7966 O.2       16 UNK        -0.5000 
     94 N          -4.7860  -27.2886  -50.4661 N.am      17 UNK        -0.5000 
     95 CA         -5.4621  -26.5312  -51.5138 C.3       17 UNK         0.1400 
     96 CB         -4.8025  -26.8065  -52.8766 C.3       17 UNK        -0.1800 
     97 C          -5.3766  -25.0438  -51.1518 C.2       17 UNK         0.5000 
     98 O          -4.3747  -24.6253  -50.5714 O.2       17 UNK        -0.5000 
     99 N          -6.4191  -24.2746  -51.4883 N.am      18 UNK        -0.5000 
    100 CA        -6.5373  -22.8489  -51.1725 C.3       18 UNK         0.1400 
    101 CB        -7.9363  -22.3595  -51.5787 C.3       18 UNK        -0.1800 
    102 C         -5.4529  -21.9870  -51.8481 C.2       18 UNK         0.5000 
    103 O         -5.1382  -22.2065  -53.0202 O.2       18 UNK        -0.5000 
    104 N         -4.9321  -21.0036  -51.1018 N.am      19 UNK        -0.5000 
    105 CA        -3.9376  -20.0393  -51.5776 C.3       19 UNK         0.1400 
    106 CB        -3.3049  -19.3282  -50.3685 C.3       19 UNK        -0.1800 
    107 C         -4.5334  -19.0152  -52.5624 C.2       19 UNK         0.5000 
    108 O         -3.8611  -18.6265  -53.5161 O.2       19 UNK        -0.5000 
    109 N         -5.7828  -18.5958  -52.3075 N.am      20 UNK        -0.5000 
    110 CA        -6.5855  -17.6668  -53.1169 C.3       20 UNK         0.1400 
    111 CB        -6.9399  -18.3071  -54.4757 C.3       20 UNK        -0.1800 
    112 C         -5.9757  -16.2520  -53.2671 C.2       20 UNK         0.5000 
    113 O         -6.2937  -15.5519  -54.2298 O.2       20 UNK        -0.5000 
    114 N         -5.1333  -15.8542  -52.2997 N.am      21 UNK        -0.5000 
    115 CA        -4.4434  -14.5629  -52.1898 C.3       21 UNK         0.1400 
    116 CB        -5.4445  -13.4444  -51.8346 C.3       21 UNK        -0.1800 
    117 C         -3.5679  -14.2305  -53.4165 C.2       21 UNK         0.5000 
    118 O         -3.7229  -13.1693  -54.0246 O.2       21 UNK        -0.5000 
    119 N         -2.6797  -15.1684  -53.7691 N.am      22 UNK        -0.5000 
    120 CA        -1.7749  -15.0770  -54.9264 C.3       22 UNK         0.1400 
    121 C         -0.6942  -13.9532  -54.8657 C.2       22 UNK         0.5000 
    122 N         -0.3691  -13.3889  -53.7079 N.am      22 UNK        -0.7600 
    123 O         -0.1488  -13.5763  -55.8997 O.2       22 UNK        -0.5000 
    124 C124       -1.1769  -16.4622  -55.2984 C.3       23 UNK        -0.0398 
    125 S125        0.1432  -17.0613  -54.1833 S.3       23 UNK        -0.2404 
    126 C126       -0.8056  -18.0676  -53.0060 C.3       23 UNK        -0.0205 
    127 H127       -2.6868  -15.1553  -49.3239 H         1 UNK         0.0600 
    128 H128       -3.0638  -13.4285  -49.4080 H         1 UNK         0.0600 
    129 H129       -2.3705  -14.1060  -47.9391 H         1 UNK         0.0600 
    130 H130       -0.2230  -13.6656  -47.7078 H         1 UNK         0.3000 
    131 H131        1.4663  -12.9767  -50.0484 H         1 UNK         0.0600 
    132 H132        3.4246  -13.6393  -48.4292 H         1 UNK         0.0800 
    133 H133        2.2479  -14.5301  -47.5045 H         1 UNK         0.0800 
    134 H134        2.3956  -17.2807  -48.0669 H         1 UNK         0.0800 
    135 H135        0.9086  -16.4163  -48.3685 H         1 UNK         0.0800 
    136 H136        0.2174  -16.4989  -51.0494 H         1 UNK         0.1150 
    137 H137        0.0122  -20.5824  -52.3195 H         1 UNK         0.1150 
    138 H138        2.3016  -19.5053  -48.8466 H         1 UNK         0.1150 
    139 H139        0.4928  -22.2564  -50.3270 H         1 UNK         0.0800 
    140 H140        1.9558  -22.0916  -51.2661 H         1 UNK         0.0800 
    141 H141        0.5591  -21.0683  -47.8972 H         1 UNK         0.0800 
    142 H142        2.0057  -21.0490  -46.9317 H         1 UNK         0.0800 
    143 H143        1.6540  -23.5437  -46.4755 H         1 UNK         0.0600 
    144 H144        0.3867  -21.3373  -45.2546 H         1 UNK         0.3000 
    145 H145       -1.0748  -23.0745  -42.4869 H         1 UNK         0.0600 
    146 H146        0.2681  -21.3464  -41.3288 H         1 UNK         0.0600 
    147 H147        1.3245  -22.6043  -41.9542 H         1 UNK         0.0600 
    148 H148        1.2148  -21.0567  -42.7858 H         1 UNK         0.0600 
    149 H149       -1.1262  -20.3254  -43.2113 H         1 UNK         0.3000 
    150 H150       -4.1277  -20.4487  -45.1993 H         1 UNK         0.0600 
    151 H151       -4.7934  -20.2540  -42.8166 H         1 UNK         0.0600 
    152 H152       -4.6687  -18.6622  -43.5524 H         1 UNK         0.0600 
    153 H153       -3.3966  -19.2414  -42.4795 H         1 UNK         0.0600 
    154 H154       -2.4449  -18.2558  -44.6305 H         1 UNK         0.3000 
    155 H155       -0.2111  -18.6077  -47.4163 H         1 UNK         0.0600 
    156 H156       -2.6066  -16.8078  -46.7935 H         1 UNK         0.0600 
    157 H157       -1.1226  -16.1855  -47.4912 H         1 UNK         0.0600 
    158 H158       -2.0573  -17.4015  -48.3519 H         1 UNK         0.0600 
    159 H159       -0.3564  -16.7143  -45.2828 H         1 UNK         0.3000 
    160 H160        1.8428  -18.4023  -43.0259 H         1 UNK         0.0600 
    161 H161        2.1715  -15.9018  -44.7762 H         1 UNK         0.0600 
    162 H162        3.3169  -17.2266  -44.6428 H         1 UNK         0.0600 
    163 H163        3.0015  -16.2036  -43.2505 H         1 UNK         0.0600 
    164 H164        0.4405  -15.8965  -42.9565 H         1 UNK         0.3000 
    165 H165       -2.5890  -17.0808  -41.5400 H         1 UNK         0.0600 
    166 H166       -1.9877  -15.4990  -39.7224 H         1 UNK         0.0600 
    167 H167       -1.0675  -16.9860  -39.5615 H         1 UNK         0.0600 
    168 H168       -0.2918  -15.5446  -40.2064 H         1 UNK         0.0600 
    169 H169       -1.6098  -14.4552  -42.0173 H         1 UNK         0.3000 
    170 H170       -2.2920  -14.1921  -45.4709 H         1 UNK         0.0600 
    171 H171       -4.6010  -13.9533  -44.5691 H         1 UNK         0.0600 
    172 H172       -3.9883  -13.0746  -43.1729 H         1 UNK         0.0600 
    173 H173       -3.8505  -12.3807  -44.7890 H         1 UNK         0.0600 
    174 H174       -1.6311  -12.3806  -43.2830 H         1 UNK         0.3000 
    175 H175        0.4643  -11.4077  -43.2670 H         1 UNK         0.0600 
    176 H176        1.7652  -14.0437  -42.3249 H         1 UNK         0.0600 
    177 H177        1.8560  -12.4961  -41.4917 H         1 UNK         0.0600 
    178 H178        0.3295  -13.3360  -41.5932 H         1 UNK         0.0600 
    179 H179        2.1181  -12.6295  -45.1627 H         1 UNK         0.3000 
    180 H180        5.0172  -10.5433  -44.5883 H         1 UNK         0.0600 
    181 H181        4.5072  -13.4775  -45.3298 H         1 UNK         0.0600 
    182 H182        5.4776  -12.9257  -43.9705 H         1 UNK         0.0600 
    183 H183        5.9940  -12.5720  -45.6112 H         1 UNK         0.0600 
    184 H184        3.9630  -11.7127  -46.9692 H         1 UNK         0.3000 
    185 H185        1.8906   -9.1144  -48.0480 H         1 UNK         0.0600 
    186 H186        4.0798   -8.0208  -48.5571 H         1 UNK         0.0600 
    187 H187        4.7549   -9.5700  -49.0463 H         1 UNK         0.0600 
    188 H188        3.4383   -8.8434  -49.9693 H         1 UNK         0.0600 
    189 H189        3.0285  -11.2929  -49.4698 H         1 UNK         0.3000 
    190 H190       -1.6319  -22.1548  -47.0020 H         1 UNK         0.3000 
    191 H191       -2.4896  -23.9641  -48.9724 H         1 UNK         0.0600 
    192 H192       -4.0871  -22.3928  -46.8778 H         1 UNK         0.0600 
    193 H193       -4.7907  -23.1905  -48.2767 H         1 UNK         0.0600 
    194 H194       -3.6705  -21.8564  -48.5032 H         1 UNK         0.0600 
    195 H195       -2.7283  -24.1838  -45.3988 H         1 UNK         0.3000 
    196 H196       -4.1573  -26.6358  -45.2843 H         1 UNK         0.0600 
    197 H197       -3.3444  -26.6955  -42.9248 H         1 UNK         0.0600 
    198 H198       -3.9513  -25.1026  -43.3519 H         1 UNK         0.0600 
    199 H199       -2.2155  -25.3904  -43.2665 H         1 UNK         0.0600 
    200 H200       -0.6371  -25.9652  -45.4030 H         1 UNK         0.3000 
    201 H201        0.2146  -28.6908  -45.1929 H         1 UNK         0.0600 
    202 H202        1.7017  -26.7787  -44.6762 H         1 UNK         0.0600 
    203 H203        1.6440  -26.2402  -46.3521 H         1 UNK         0.0600 
    204 H204        2.4066  -27.7718  -45.9435 H         1 UNK         0.0600 
    205 H205       -0.3941  -26.5561  -48.0170 H         1 UNK         0.3000 
    206 H206        0.3137  -28.4736  -50.0201 H         1 UNK         0.0600 
    207 H207        0.3102  -26.0147  -50.4053 H         1 UNK         0.0600 
    208 H208       -0.7563  -26.8132  -51.5514 H         1 UNK         0.0600 
    209 H209       -1.4366  -25.9589  -50.1722 H         1 UNK         0.0600 
    210 H210       -2.6363  -27.8904  -48.2502 H         1 UNK         0.3000 
    211 H211       -4.6263  -28.7989  -48.0998 H         1 UNK         0.0600 
    212 H212       -3.6999  -31.1200  -49.8726 H         1 UNK         0.0600 
    213 H213       -5.1128  -31.0915  -48.8288 H         1 UNK         0.0600 
    214 H214       -3.5062  -31.0416  -48.1214 H         1 UNK         0.0600 
    215 H215       -4.1690  -26.7345  -49.8789 H         1 UNK         0.3000 
    216 H216       -6.5131  -26.8255  -51.5480 H         1 UNK         0.0600 
    217 H217       -3.7430  -26.5469  -52.8666 H         1 UNK         0.0600 
    218 H218       -5.2777  -26.2230  -53.6660 H         1 UNK         0.0600 
    219 H219       -4.8863  -27.8573  -53.1538 H         1 UNK         0.0600 
    220 H220       -7.1873  -24.6848  -51.9988 H         1 UNK         0.3000 
    221 H221       -6.4413  -22.7447  -50.0900 H         1 UNK         0.0600 
    222 H222       -8.1048  -22.4697  -52.6508 H         1 UNK         0.0600 
    223 H223       -8.7165  -22.9138  -51.0567 H         1 UNK         0.0600 
    224 H224       -8.0694  -21.3050  -51.3333 H         1 UNK         0.0600 
    225 H225       -5.2428  -20.8953  -50.1477 H         1 UNK         0.3000 
    226 H226       -3.1488  -20.5822  -52.1031 H         1 UNK         0.0600 
    227 H227       -2.7268  -20.0242  -49.7603 H         1 UNK         0.0600 
    228 H228       -2.6215  -18.5402  -50.6828 H         1 UNK         0.0600 
    229 H229       -4.0571  -18.8674  -49.7274 H         1 UNK         0.0600 
    230 H230       -6.2444  -18.9695  -51.4908 H         1 UNK         0.3000 
    231 H231       -7.5198  -17.5264  -52.5718 H         1 UNK         0.0600 
    232 H232       -6.0621  -18.4132  -55.1138 H         1 UNK         0.0600 
    233 H233       -7.6670  -17.7021  -55.0185 H         1 UNK         0.0600 
    234 H234       -7.3788  -19.2960  -54.3428 H         1 UNK         0.0600 
    235 H235       -4.9468  -16.5136  -51.5587 H         1 UNK         0.3000 
    236 H236       -3.7531  -14.6606  -51.3552 H         1 UNK         0.0600 
    237 H237       -4.9279  -12.5003  -51.6573 H         1 UNK         0.0600 
    238 H238       -6.1670  -13.2778  -52.6342 H         1 UNK         0.0600 
    239 H239       -5.9981  -13.6853  -50.9272 H         1 UNK         0.0600 
    240 H240       -2.6375  -16.0234  -53.2373 H         1 UNK         0.3000 
    241 H241       -2.4149  -14.7967  -55.7655 H         1 UNK         0.0600 
    242 H242        0.3265  -12.6612  -53.6999 H         1 UNK         0.3800 
    243 H243       -0.7628  -13.7021  -52.8269 H         1 UNK         0.3800 
    244 H244       -0.7535  -16.4136  -56.3029 H         1 UNK         0.0800 
    245 H245       -1.9690  -17.2106  -55.3569 H         1 UNK         0.0800 
    246 H246       -1.6488  -17.4901  -52.6314 H         1 UNK         0.0800 
    247 H247       -1.2151  -18.9357  -53.5244 H         1 UNK         0.0800 
@<TRIPOS>BOND
     1    1    2 1    
     2    1  127 1    
     3    1  128 1    
     4    1  129 1    
     5    2    3 2    
     6    2    4 am   BACKBONE|DICT|INTERRES
     7    4    5 1    
     8    4  130 1    
     9    5    6 1    
    10    5   65 1    
    11    5  131 1    
    12    6    7 1    
    13    6  132 1    
    14    6  133 1    
    15    7    8 1    
    16    8    9 1    
    17    8  134 1    
    18    8  135 1    
    19    9   10 ar   
    20    9   14 ar   
    21   10   11 ar   
    22   10  136 1    
    23   11   12 ar   
    24   11  126 1    
    25   12   13 ar   
    26   12  137 1    
    27   13   14 ar   
    28   13   15 1    
    29   14  138 1    
    30   15   16 1    
    31   15  139 1    
    32   15  140 1    
    33   16   17 1    
    34   17   18 1    
    35   17  141 1    
    36   17  142 1    
    37   18   19 1    
    38   18   67 1    
    39   18  143 1    
    40   19   20 am   BACKBONE|DICT|INTERRES
    41   19  144 1    
    42   20   21 2    
    43   20   22 1    
    44   22   23 1    
    45   22   24 1    
    46   22  145 1    
    47   23  146 1    
    48   23  147 1    
    49   23  148 1    
    50   24   25 am   BACKBONE|DICT|INTERRES
    51   24  149 1    
    52   25   26 2    
    53   25   27 1    
    54   27   28 1    
    55   27   29 1    
    56   27  150 1    
    57   28  151 1    
    58   28  152 1    
    59   28  153 1    
    60   29   30 am   BACKBONE|DICT|INTERRES
    61   29  154 1    
    62   30   31 2    
    63   30   32 1    
    64   32   33 1    
    65   32   34 1    
    66   32  155 1    
    67   33  156 1    
    68   33  157 1    
    69   33  158 1    
    70   34   35 am   BACKBONE|DICT|INTERRES
    71   34  159 1    
    72   35   36 2    
    73   35   37 1    
    74   37   38 1    
    75   37   39 1    
    76   37  160 1    
    77   38  161 1    
    78   38  162 1    
    79   38  163 1    
    80   39   40 am   BACKBONE|DICT|INTERRES
    81   39  164 1    
    82   40   41 2    
    83   40   42 1    
    84   42   43 1    
    85   42   44 1    
    86   42  165 1    
    87   43  166 1    
    88   43  167 1    
    89   43  168 1    
    90   44   45 am   BACKBONE|DICT|INTERRES
    91   44  169 1    
    92   45   46 2    
    93   45   47 1    
    94   47   48 1    
    95   47   49 1    
    96   47  170 1    
    97   48  171 1    
    98   48  172 1    
    99   48  173 1    
   100   49   50 am   BACKBONE|DICT|INTERRES
   101   49  174 1    
   102   50   51 2    
   103   50   52 1    
   104   52   53 1    
   105   52   54 1    
   106   52  175 1    
   107   53  176 1    
   108   53  177 1    
   109   53  178 1    
   110   54   55 am   BACKBONE|DICT|INTERRES
   111   54  179 1    
   112   55   56 2    
   113   55   57 1    
   114   57   58 1    
   115   57   59 1    
   116   57  180 1    
   117   58  181 1    
   118   58  182 1    
   119   58  183 1    
   120   59   60 am   BACKBONE|DICT|INTERRES
   121   59  184 1    
   122   60   61 2    
   123   60   62 1    
   124   62   63 1    
   125   62   64 1    
   126   62  185 1    
   127   63  186 1    
   128   63  187 1    
   129   63  188 1    
   130   64   65 am   BACKBONE|DICT|INTERRES
   131   64  189 1    
   132   65   66 2    
   133   67   68 2    
   134   67   69 am   BACKBONE|DICT|INTERRES
   135   69   70 1    
   136   69  190 1    
   137   70   71 1    
   138   70   72 1    
   139   70  191 1    
   140   71  192 1    
   141   71  193 1    
   142   71  194 1    
   143   72   73 2    
   144   72   74 am   BACKBONE|DICT|INTERRES
   145   74   75 1    
   146   74  195 1    
   147   75   76 1    
   148   75   77 1    
   149   75  196 1    
   150   76  197 1    
   151   76  198 1    
   152   76  199 1    
   153   77   78 2    
   154   77   79 am   BACKBONE|DICT|INTERRES
   155   79   80 1    
   156   79  200 1    
   157   80   81 1    
   158   80   82 1    
   159   80  201 1    
   160   81  202 1    
   161   81  203 1    
   162   81  204 1    
   163   82   83 2    
   164   82   84 am   BACKBONE|DICT|INTERRES
   165   84   85 1    
   166   84  205 1    
   167   85   86 1    
   168   85   87 1    
   169   85  206 1    
   170   86  207 1    
   171   86  208 1    
   172   86  209 1    
   173   87   88 2    
   174   87   89 am   BACKBONE|DICT|INTERRES
   175   89   90 1    
   176   89  210 1    
   177   90   91 1    
   178   90   92 1    
   179   90  211 1    
   180   91  212 1    
   181   91  213 1    
   182   91  214 1    
   183   92   93 2    
   184   92   94 am   BACKBONE|DICT|INTERRES
   185   94   95 1    
   186   94  215 1    
   187   95   96 1    
   188   95   97 1    
   189   95  216 1    
   190   96  217 1    
   191   96  218 1    
   192   96  219 1    
   193   97   98 2    
   194   97   99 am   BACKBONE|DICT|INTERRES
   195   99  100 1    
   196   99  220 1    
   197  100  101 1    
   198  100  102 1    
   199  100  221 1    
   200  101  222 1    
   201  101  223 1    
   202  101  224 1    
   203  102  103 2    
   204  102  104 am   BACKBONE|DICT|INTERRES
   205  104  105 1    
   206  104  225 1    
   207  105  106 1    
   208  105  107 1    
   209  105  226 1    
   210  106  227 1    
   211  106  228 1    
   212  106  229 1    
   213  107  108 2    
   214  107  109 am   BACKBONE|DICT|INTERRES
   215  109  110 1    
   216  109  230 1    
   217  110  111 1    
   218  110  112 1    
   219  110  231 1    
   220  111  232 1    
   221  111  233 1    
   222  111  234 1    
   223  112  113 2    
   224  112  114 am   BACKBONE|DICT|INTERRES
   225  114  115 1    
   226  114  235 1    
   227  115  116 1    
   228  115  117 1    
   229  115  236 1    
   230  116  237 1    
   231  116  238 1    
   232  116  239 1    
   233  117  118 2    
   234  117  119 am   BACKBONE|DICT|INTERRES
   235  119  120 1    
   236  119  240 1    
   237  120  121 1    
   238  120  124 1    
   239  120  241 1    
   240  121  122 am   BACKBONE|DICT|INTERRES
   241  121  123 2    
   242  122  242 1    
   243  122  243 1    
   244  124  125 1    
   245  124  244 1    
   246  124  245 1    
   247  125  126 1    
   248  126  246 1    
   249  126  247 1    
@<TRIPOS>SUBSTRUCTURE
     1 UNK         1 GROUP             0       ****    0 ROOT    
