@<TRIPOS>MOLECULE
3R540
247   249    1
SMALL
USER_CHARGES


@<TRIPOS>ATOM
      1 CA         -0.0052   -9.7555  -48.4359 C.3       0 UNK        -0.1800 
      2 C          -0.2582  -11.2027  -48.0416 C.2       0 UNK         0.5000 
      3 O           0.5538  -11.7931  -47.3299 O.2       0 UNK        -0.5000 
      4 N          -1.3864  -11.7724  -48.4859 N.am      1 UNK        -0.5000 
      5 CA         -1.7897  -13.1638  -48.2380 C.3       1 UNK         0.1400 
      6 C6         -3.0890  -13.5383  -48.9871 C.3       23 UNK        -0.0398 
      7 S7         -2.8864  -13.4736  -50.7975 S.3       23 UNK        -0.2404 
      8 C8         -2.8547  -15.2450  -51.2157 C.3       23 UNK        -0.0205 
      9 C9         -1.5345  -15.9043  -50.8439 C.ar      23 UNK        -0.0193 
     10 C10        -0.4579  -15.8467  -51.7336 C.ar      23 UNK        -0.1150 
     11 C11         0.7317  -16.5232  -51.4526 C.ar      23 UNK        -0.0193 
     12 C12         0.8576  -17.2173  -50.2463 C.ar      23 UNK        -0.1150 
     13 C13        -0.2065  -17.2769  -49.3431 C.ar      23 UNK        -0.0193 
     14 C14        -1.4021  -16.6172  -49.6461 C.ar      23 UNK        -0.1150 
     15 C15        -0.0558  -18.0762  -48.0571 C.3       23 UNK        -0.0205 
     16 S16        -0.1385  -19.8669  -48.3792 S.3       23 UNK        -0.2404 
     17 C17         0.5405  -20.5273  -46.8215 C.3       23 UNK        -0.0398 
     18 CA         -0.0642  -21.8929  -46.4114 C.3       11 UNK         0.1400 
     19 N           0.7970  -22.5902  -45.4525 N.am      11 UNK        -0.5000 
     20 C           0.6862  -23.8863  -45.1240 C.2       10 UNK         0.5000 
     21 O          -0.1366  -24.6462  -45.6301 O.2       10 UNK        -0.5000 
     22 CA          1.6164  -24.4186  -44.0149 C.3       10 UNK         0.1400 
     23 CB          2.9255  -24.9451  -44.6208 C.3       10 UNK        -0.1800 
     24 N           1.9288  -23.4175  -42.9952 N.am      10 UNK        -0.5000 
     25 C           1.0272  -22.8150  -42.2070 C.2       9 UNK         0.5000 
     26 O          -0.1635  -23.1256  -42.1811 O.2       9 UNK        -0.5000 
     27 CA          1.5236  -21.6286  -41.3543 C.3       9 UNK         0.1400 
     28 CB          1.7966  -22.0803  -39.9125 C.3       9 UNK        -0.1800 
     29 N           2.7201  -20.9612  -41.8845 N.am      9 UNK        -0.5000 
     30 C           2.8172  -20.3964  -43.0959 C.2       8 UNK         0.5000 
     31 O           1.9017  -20.3868  -43.9206 O.2       8 UNK        -0.5000 
     32 CA          4.1663  -19.7545  -43.4375 C.3       8 UNK         0.1400 
     33 CB          4.4573  -19.7935  -44.9488 C.3       8 UNK        -0.1800 
     34 N           4.1316  -18.3687  -42.9941 N.am      8 UNK        -0.5000 
     35 C           4.8345  -17.8625  -41.9756 C.2       7 UNK         0.5000 
     36 O           5.6212  -18.5176  -41.2905 O.2       7 UNK        -0.5000 
     37 CA          4.6143  -16.3719  -41.6647 C.3       7 UNK         0.1400 
     38 CB          5.2979  -15.4875  -42.7194 C.3       7 UNK        -0.1800 
     39 N           3.1982  -16.0173  -41.5761 N.am      7 UNK        -0.5000 
     40 C           2.3733  -16.4066  -40.5938 C.2       6 UNK         0.5000 
     41 O           2.7231  -17.1024  -39.6397 O.2       6 UNK        -0.5000 
     42 CA          0.9096  -15.9396  -40.6931 C.3       6 UNK         0.1400 
     43 CB          0.7605  -14.4898  -40.2068 C.3       6 UNK        -0.1800 
     44 N           0.3848  -16.0618  -42.0524 N.am      6 UNK        -0.5000 
     45 C           0.0832  -17.2311  -42.6333 C.2       5 UNK         0.5000 
     46 O           0.1281  -18.3118  -42.0468 O.2       5 UNK        -0.5000 
     47 CA         -0.3312  -17.1958  -44.1159 C.3       5 UNK         0.1400 
     48 CB         -1.8517  -17.0263  -44.2522 C.3       5 UNK        -0.1800 
     49 N           0.3424  -16.1494  -44.8874 N.am      5 UNK        -0.5000 
     50 C           1.6583  -16.1123  -45.1389 C.2       4 UNK         0.5000 
     51 O           2.4480  -16.9775  -44.7682 O.2       4 UNK        -0.5000 
     52 CA          2.1956  -14.8764  -45.8828 C.3       4 UNK         0.1400 
     53 CB          1.9233  -14.9725  -47.3909 C.3       4 UNK        -0.1800 
     54 N           1.6459  -13.6265  -45.3602 N.am      4 UNK        -0.5000 
     55 C           1.8277  -13.1804  -44.1093 C.2       3 UNK         0.5000 
     56 O           2.5111  -13.7616  -43.2673 O.2       3 UNK        -0.5000 
     57 CA          1.0739  -11.8997  -43.7169 C.3       3 UNK         0.1400 
     58 CB          1.8108  -10.6471  -44.2146 C.3       3 UNK        -0.1800 
     59 N          -0.2966  -11.9048  -44.2262 N.am      3 UNK        -0.5000 
     60 C          -1.2663  -12.7098  -43.7693 C.2       2 UNK         0.5000 
     61 O          -1.1179  -13.5003  -42.8379 O.2       2 UNK        -0.5000 
     62 CA         -2.6159  -12.6483  -44.5063 C.3       2 UNK         0.1400 
     63 CB         -3.4669  -11.4799  -43.9870 C.3       2 UNK        -0.1800 
     64 N          -2.4576  -12.5287  -45.9567 N.am      2 UNK        -0.5000 
     65 C          -1.9400  -13.4870  -46.7390 C.2       1 UNK         0.5000 
     66 O          -1.5622  -14.5792  -46.3193 O.2       1 UNK        -0.5000 
     67 C          -1.4988  -21.7510  -45.8618 C.2       11 UNK         0.5000 
     68 O          -2.4578  -21.9675  -46.6014 O.2       11 UNK        -0.5000 
     69 N          -1.6180  -21.4477  -44.5594 N.am      12 UNK        -0.5000 
     70 CA         -2.8927  -21.3924  -43.8431 C.3       12 UNK         0.1400 
     71 CB         -2.6879  -20.7601  -42.4573 C.3       12 UNK        -0.1800 
     72 C          -3.5448  -22.7817  -43.7233 C.2       12 UNK         0.5000 
     73 O          -4.7395  -22.9157  -43.9884 O.2       12 UNK        -0.5000 
     74 N          -2.7406  -23.7949  -43.3683 N.am      13 UNK        -0.5000 
     75 CA         -3.1573  -25.1946  -43.2442 C.3       13 UNK         0.1400 
     76 CB         -2.0055  -26.0166  -42.6478 C.3       13 UNK        -0.1800 
     77 C          -3.6326  -25.8136  -44.5734 C.2       13 UNK         0.5000 
     78 O          -4.5725  -26.6090  -44.5710 O.2       13 UNK        -0.5000 
     79 N          -2.9981  -25.4161  -45.6845 N.am      14 UNK        -0.5000 
     80 CA         -3.3568  -25.8116  -47.0482 C.3       14 UNK         0.1400 
     81 CB         -2.1501  -25.5648  -47.9657 C.3       14 UNK        -0.1800 
     82 C          -4.6154  -25.1041  -47.5959 C.2       14 UNK         0.5000 
     83 O          -5.0885  -25.4820  -48.6699 O.2       14 UNK        -0.5000 
     84 N          -5.1349  -24.1056  -46.8646 N.am      15 UNK        -0.5000 
     85 CA         -6.3133  -23.2910  -47.1656 C.3       15 UNK         0.1400 
     86 CB         -7.6011  -24.1412  -47.0861 C.3       15 UNK        -0.1800 
     87 C          -6.1492  -22.5227  -48.4912 C.2       15 UNK         0.5000 
     88 O          -5.4591  -21.5035  -48.5126 O.2       15 UNK        -0.5000 
     89 N          -6.7762  -23.0156  -49.5678 N.am      16 UNK        -0.5000 
     90 CA         -6.6489  -22.4678  -50.9184 C.3       16 UNK         0.1400 
     91 CB         -7.7782  -23.0226  -51.7992 C.3       16 UNK        -0.1800 
     92 C          -5.2788  -22.7615  -51.5574 C.2       16 UNK         0.5000 
     93 O          -4.8202  -21.9614  -52.3727 O.2       16 UNK        -0.5000 
     94 N          -4.6616  -23.8934  -51.1821 N.am      17 UNK        -0.5000 
     95 CA         -3.3578  -24.4287  -51.5991 C.3       17 UNK         0.1400 
     96 CB         -2.2134  -23.4983  -51.1515 C.3       17 UNK        -0.1800 
     97 C          -3.2387  -24.7827  -53.0968 C.2       17 UNK         0.5000 
     98 O          -2.9095  -25.9213  -53.4309 O.2       17 UNK        -0.5000 
     99 N          -3.5070  -23.8048  -53.9621 N.am      18 UNK        -0.5000 
    100 CA        -3.4324  -23.8455  -55.4151 C.3       18 UNK         0.1400 
    101 CB        -1.9635  -23.8891  -55.8825 C.3       18 UNK        -0.1800 
    102 C         -4.1608  -22.5870  -55.8979 C.2       18 UNK         0.5000 
    103 O         -3.5233  -21.5531  -56.1075 O.2       18 UNK        -0.5000 
    104 N         -5.4953  -22.6699  -55.9772 N.am      19 UNK        -0.5000 
    105 CA        -6.4290  -21.5467  -56.1480 C.3       19 UNK         0.1400 
    106 CB        -7.8626  -22.1003  -56.1631 C.3       19 UNK        -0.1800 
    107 C         -6.1944  -20.6399  -57.3761 C.2       19 UNK         0.5000 
    108 O         -6.6578  -19.4989  -57.3792 O.2       19 UNK        -0.5000 
    109 N         -5.4767  -21.1470  -58.3864 N.am      20 UNK        -0.5000 
    110 CA        -5.0344  -20.3949  -59.5616 C.3       20 UNK         0.1400 
    111 CB        -4.5930  -21.3941  -60.6428 C.3       20 UNK        -0.1800 
    112 C         -3.9006  -19.3876  -59.2656 C.2       20 UNK         0.5000 
    113 O         -3.6660  -18.4984  -60.0857 O.2       20 UNK        -0.5000 
    114 N         -3.2103  -19.5442  -58.1289 N.am      21 UNK        -0.5000 
    115 CA        -2.0857  -18.7213  -57.6981 C.3       21 UNK         0.1400 
    116 CB        -0.7681  -19.3982  -58.1328 C.3       21 UNK        -0.1800 
    117 C         -2.2022  -18.4534  -56.1852 C.2       21 UNK         0.5000 
    118 O         -3.1913  -17.8580  -55.7554 O.2       21 UNK        -0.5000 
    119 N         -1.1936  -18.8726  -55.4117 N.am      22 UNK        -0.5000 
    120 CA        -1.0674  -18.6705  -53.9563 C.3       22 UNK         0.1400 
    121 C         -2.0354  -19.5067  -53.0669 C.2       22 UNK         0.5000 
    122 N         -2.8707  -20.3758  -53.6119 N.am      22 UNK        -0.7600 
    123 O         -2.0499  -19.3455  -51.8519 O.2       22 UNK        -0.5000 
    124 C124        0.4128  -18.8246  -53.5102 C.3       23 UNK        -0.0398 
    125 S125        1.4099  -17.3836  -54.0414 S.3       23 UNK        -0.2404 
    126 C126        1.8646  -16.5593  -52.4709 C.3       23 UNK        -0.0205 
    127 H127        0.0881   -9.1355  -47.5443 H         1 UNK         0.0600 
    128 H128       -0.8133   -9.3543  -49.0478 H         1 UNK         0.0600 
    129 H129        0.9222   -9.6798  -49.0035 H         1 UNK         0.0600 
    130 H130       -2.0056  -11.2410  -49.0814 H         1 UNK         0.3000 
    131 H131       -0.9867  -13.7996  -48.6163 H         1 UNK         0.0600 
    132 H132       -3.4285  -14.5360  -48.7033 H         1 UNK         0.0800 
    133 H133       -3.8984  -12.8606  -48.7104 H         1 UNK         0.0800 
    134 H134       -3.6896  -15.7583  -50.7361 H         1 UNK         0.0800 
    135 H135       -3.0197  -15.3513  -52.2891 H         1 UNK         0.0800 
    136 H136       -0.5616  -15.3148  -52.6690 H         1 UNK         0.1150 
    137 H137        1.7724  -17.7476  -50.0222 H         1 UNK         0.1150 
    138 H138       -2.2344  -16.6780  -48.9597 H         1 UNK         0.1150 
    139 H139        0.9036  -17.8373  -47.5972 H         1 UNK         0.0800 
    140 H140       -0.8251  -17.7981  -47.3354 H         1 UNK         0.0800 
    141 H141        0.4182  -19.7948  -46.0248 H         1 UNK         0.0800 
    142 H142        1.6172  -20.6277  -46.9662 H         1 UNK         0.0800 
    143 H143       -0.1164  -22.5200  -47.3046 H         1 UNK         0.0600 
    144 H144        1.4438  -22.0031  -44.9355 H         1 UNK         0.3000 
    145 H145        1.1085  -25.2497  -43.5228 H         1 UNK         0.0600 
    146 H146        3.5605  -25.3959  -43.8580 H         1 UNK         0.0600 
    147 H147        2.7271  -25.7116  -45.3713 H         1 UNK         0.0600 
    148 H148        3.4937  -24.1501  -45.1056 H         1 UNK         0.0600 
    149 H149        2.8868  -23.1055  -42.9445 H         1 UNK         0.3000 
    150 H150        0.7190  -20.8911  -41.3346 H         1 UNK         0.0600 
    151 H151        0.9166  -22.5580  -39.4795 H         1 UNK         0.0600 
    152 H152        2.0502  -21.2327  -39.2754 H         1 UNK         0.0600 
    153 H153        2.6174  -22.7969  -39.8639 H         1 UNK         0.0600 
    154 H154        3.5130  -20.9046  -41.2614 H         1 UNK         0.3000 
    155 H155        4.9554  -20.3139  -42.9308 H         1 UNK         0.0600 
    156 H156        5.4306  -19.3564  -45.1713 H         1 UNK         0.0600 
    157 H157        3.7091  -19.2470  -45.5243 H         1 UNK         0.0600 
    158 H158        4.4683  -20.8200  -45.3171 H         1 UNK         0.0600 
    159 H159        3.4831  -17.7693  -43.5033 H         1 UNK         0.3000 
    160 H160        5.0767  -16.1608  -40.6982 H         1 UNK         0.0600 
    161 H161        4.8495  -15.6159  -43.7054 H         1 UNK         0.0600 
    162 H162        6.3582  -15.7280  -42.8050 H         1 UNK         0.0600 
    163 H163        5.2234  -14.4324  -42.4554 H         1 UNK         0.0600 
    164 H164        2.8414  -15.3958  -42.2965 H         1 UNK         0.3000 
    165 H165        0.3117  -16.5746  -40.0358 H         1 UNK         0.0600 
    166 H166       -0.2849  -14.1809  -40.2069 H         1 UNK         0.0600 
    167 H167        1.1318  -14.3804  -39.1871 H         1 UNK         0.0600 
    168 H168        1.3145  -13.7918  -40.8344 H         1 UNK         0.0600 
    169 H169        0.2630  -15.2046  -42.5775 H         1 UNK         0.3000 
    170 H170       -0.0566  -18.1589  -44.5464 H         1 UNK         0.0600 
    171 H171       -2.3887  -17.7890  -43.6894 H         1 UNK         0.0600 
    172 H172       -2.1797  -16.0542  -43.8822 H         1 UNK         0.0600 
    173 H173       -2.1664  -17.1116  -45.2922 H         1 UNK         0.0600 
    174 H174       -0.2535  -15.4211  -45.2738 H         1 UNK         0.3000 
    175 H175        3.2773  -14.8458  -45.7371 H         1 UNK         0.0600 
    176 H176        2.3931  -15.8600  -47.8159 H         1 UNK         0.0600 
    177 H177        0.8566  -15.0290  -47.6060 H         1 UNK         0.0600 
    178 H178        2.3242  -14.1084  -47.9210 H         1 UNK         0.0600 
    179 H179        1.1032  -13.0593  -46.0063 H         1 UNK         0.3000 
    180 H180        1.0334  -11.8564  -42.6263 H         1 UNK         0.0600 
    181 H181        1.3046   -9.7377  -43.8908 H         1 UNK         0.0600 
    182 H182        1.8829  -10.6217  -45.3021 H         1 UNK         0.0600 
    183 H183        2.8266  -10.6120  -43.8189 H         1 UNK         0.0600 
    184 H184       -0.4839  -11.3276  -45.0327 H         1 UNK         0.3000 
    185 H185       -3.1501  -13.5780  -44.2987 H         1 UNK         0.0600 
    186 H186       -2.9977  -10.5163  -44.1893 H         1 UNK         0.0600 
    187 H187       -4.4546  -11.4762  -44.4483 H         1 UNK         0.0600 
    188 H188       -3.6133  -11.5540  -42.9085 H         1 UNK         0.0600 
    189 H189       -2.7326  -11.6537  -46.3785 H         1 UNK         0.3000 
    190 H190       -0.7798  -21.3234  -44.0095 H         1 UNK         0.3000 
    191 H191       -3.5687  -20.7498  -44.4114 H         1 UNK         0.0600 
    192 H192       -3.6444  -20.6136  -41.9545 H         1 UNK         0.0600 
    193 H193       -2.2062  -19.7865  -42.5300 H         1 UNK         0.0600 
    194 H194       -2.0730  -21.3831  -41.8085 H         1 UNK         0.0600 
    195 H195       -1.7786  -23.5834  -43.1166 H         1 UNK         0.3000 
    196 H196       -3.9960  -25.2274  -42.5458 H         1 UNK         0.0600 
    197 H197       -1.1411  -26.0338  -43.3114 H         1 UNK         0.0600 
    198 H198       -1.6844  -25.6109  -41.6882 H         1 UNK         0.0600 
    199 H199       -2.3101  -27.0502  -42.4798 H         1 UNK         0.0600 
    200 H200       -2.1857  -24.8155  -45.5924 H         1 UNK         0.3000 
    201 H201       -3.5666  -26.8830  -47.0505 H         1 UNK         0.0600 
    202 H202       -1.8827  -24.5082  -47.9995 H         1 UNK         0.0600 
    203 H203       -2.3559  -25.8911  -48.9842 H         1 UNK         0.0600 
    204 H204       -1.2767  -26.1207  -47.6247 H         1 UNK         0.0600 
    205 H205       -4.6502  -23.8484  -46.0139 H         1 UNK         0.3000 
    206 H206       -6.3721  -22.5367  -46.3795 H         1 UNK         0.0600 
    207 H207       -7.7246  -24.5599  -46.0872 H         1 UNK         0.0600 
    208 H208       -8.4839  -23.5341  -47.2908 H         1 UNK         0.0600 
    209 H209       -7.5996  -24.9732  -47.7905 H         1 UNK         0.0600 
    210 H210       -7.3076  -23.8683  -49.4666 H         1 UNK         0.3000 
    211 H211       -6.7625  -21.3830  -50.8638 H         1 UNK         0.0600 
    212 H212       -7.7252  -22.6059  -52.8056 H         1 UNK         0.0600 
    213 H213       -8.7572  -22.7666  -51.3939 H         1 UNK         0.0600 
    214 H214       -7.7240  -24.1083  -51.8895 H         1 UNK         0.0600 
    215 H215       -5.1273  -24.4562  -50.4776 H         1 UNK         0.3000 
    216 H216       -3.2477  -25.3671  -51.0555 H         1 UNK         0.0600 
    217 H217       -1.2421  -23.9535  -51.3476 H         1 UNK         0.0600 
    218 H218       -2.2351  -22.5407  -51.6722 H         1 UNK         0.0600 
    219 H219       -2.2681  -23.2917  -50.0829 H         1 UNK         0.0600 
    220 H220       -3.8457  -22.9293  -53.5688 H         1 UNK         0.3000 
    221 H221       -3.9572  -24.7277  -55.7867 H         1 UNK         0.0600 
    222 H222       -1.8987  -23.8261  -56.9693 H         1 UNK         0.0600 
    223 H223       -1.4784  -24.8179  -55.5827 H         1 UNK         0.0600 
    224 H224       -1.3838  -23.0626  -55.4691 H         1 UNK         0.0600 
    225 H225       -5.9241  -23.5625  -55.7798 H         1 UNK         0.3000 
    226 H226       -6.3206  -20.9117  -55.2662 H         1 UNK         0.0600 
    227 H227       -8.0235  -22.7701  -57.0087 H         1 UNK         0.0600 
    228 H228       -8.0854  -22.6524  -55.2503 H         1 UNK         0.0600 
    229 H229       -8.5942  -21.2947  -56.2386 H         1 UNK         0.0600 
    230 H230       -5.1334  -22.0917  -58.2965 H         1 UNK         0.3000 
    231 H231       -5.8837  -19.8274  -59.9476 H         1 UNK         0.0600 
    232 H232       -3.7474  -21.9977  -60.3105 H         1 UNK         0.0600 
    233 H233       -4.2888  -20.8766  -61.5536 H         1 UNK         0.0600 
    234 H234       -5.4049  -22.0702  -60.9114 H         1 UNK         0.0600 
    235 H235       -3.4808  -20.2799  -57.4800 H         1 UNK         0.3000 
    236 H236       -2.1379  -17.7419  -58.1780 H         1 UNK         0.0600 
    237 H237        0.0998  -18.8057  -57.8404 H         1 UNK         0.0600 
    238 H238       -0.6623  -20.3947  -57.7015 H         1 UNK         0.0600 
    239 H239       -0.7272  -19.5053  -59.2170 H         1 UNK         0.0600 
    240 H240       -0.4299  -19.3627  -55.8525 H         1 UNK         0.3000 
    241 H241       -1.3654  -17.6392  -53.7602 H         1 UNK         0.0600 
    242 H242       -3.5325  -20.8597  -53.0119 H         1 UNK         0.3800 
    243 H243       -2.9059  -20.5283  -54.6134 H         1 UNK         0.3800 
    244 H244        0.8462  -19.7296  -53.9379 H         1 UNK         0.0800 
    245 H245        0.5010  -18.9525  -52.4314 H         1 UNK         0.0800 
    246 H246        2.7351  -17.0692  -52.0553 H         1 UNK         0.0800 
    247 H247        2.1842  -15.5390  -52.6861 H         1 UNK         0.0800 
@<TRIPOS>BOND
     1    1    2 1    
     2    1  127 1    
     3    1  128 1    
     4    1  129 1    
     5    2    3 2    
     6    2    4 am   BACKBONE|DICT|INTERRES
     7    4    5 1    
     8    4  130 1    
     9    5    6 1    
    10    5   65 1    
    11    5  131 1    
    12    6    7 1    
    13    6  132 1    
    14    6  133 1    
    15    7    8 1    
    16    8    9 1    
    17    8  134 1    
    18    8  135 1    
    19    9   10 ar   
    20    9   14 ar   
    21   10   11 ar   
    22   10  136 1    
    23   11   12 ar   
    24   11  126 1    
    25   12   13 ar   
    26   12  137 1    
    27   13   14 ar   
    28   13   15 1    
    29   14  138 1    
    30   15   16 1    
    31   15  139 1    
    32   15  140 1    
    33   16   17 1    
    34   17   18 1    
    35   17  141 1    
    36   17  142 1    
    37   18   19 1    
    38   18   67 1    
    39   18  143 1    
    40   19   20 am   BACKBONE|DICT|INTERRES
    41   19  144 1    
    42   20   21 2    
    43   20   22 1    
    44   22   23 1    
    45   22   24 1    
    46   22  145 1    
    47   23  146 1    
    48   23  147 1    
    49   23  148 1    
    50   24   25 am   BACKBONE|DICT|INTERRES
    51   24  149 1    
    52   25   26 2    
    53   25   27 1    
    54   27   28 1    
    55   27   29 1    
    56   27  150 1    
    57   28  151 1    
    58   28  152 1    
    59   28  153 1    
    60   29   30 am   BACKBONE|DICT|INTERRES
    61   29  154 1    
    62   30   31 2    
    63   30   32 1    
    64   32   33 1    
    65   32   34 1    
    66   32  155 1    
    67   33  156 1    
    68   33  157 1    
    69   33  158 1    
    70   34   35 am   BACKBONE|DICT|INTERRES
    71   34  159 1    
    72   35   36 2    
    73   35   37 1    
    74   37   38 1    
    75   37   39 1    
    76   37  160 1    
    77   38  161 1    
    78   38  162 1    
    79   38  163 1    
    80   39   40 am   BACKBONE|DICT|INTERRES
    81   39  164 1    
    82   40   41 2    
    83   40   42 1    
    84   42   43 1    
    85   42   44 1    
    86   42  165 1    
    87   43  166 1    
    88   43  167 1    
    89   43  168 1    
    90   44   45 am   BACKBONE|DICT|INTERRES
    91   44  169 1    
    92   45   46 2    
    93   45   47 1    
    94   47   48 1    
    95   47   49 1    
    96   47  170 1    
    97   48  171 1    
    98   48  172 1    
    99   48  173 1    
   100   49   50 am   BACKBONE|DICT|INTERRES
   101   49  174 1    
   102   50   51 2    
   103   50   52 1    
   104   52   53 1    
   105   52   54 1    
   106   52  175 1    
   107   53  176 1    
   108   53  177 1    
   109   53  178 1    
   110   54   55 am   BACKBONE|DICT|INTERRES
   111   54  179 1    
   112   55   56 2    
   113   55   57 1    
   114   57   58 1    
   115   57   59 1    
   116   57  180 1    
   117   58  181 1    
   118   58  182 1    
   119   58  183 1    
   120   59   60 am   BACKBONE|DICT|INTERRES
   121   59  184 1    
   122   60   61 2    
   123   60   62 1    
   124   62   63 1    
   125   62   64 1    
   126   62  185 1    
   127   63  186 1    
   128   63  187 1    
   129   63  188 1    
   130   64   65 am   BACKBONE|DICT|INTERRES
   131   64  189 1    
   132   65   66 2    
   133   67   68 2    
   134   67   69 am   BACKBONE|DICT|INTERRES
   135   69   70 1    
   136   69  190 1    
   137   70   71 1    
   138   70   72 1    
   139   70  191 1    
   140   71  192 1    
   141   71  193 1    
   142   71  194 1    
   143   72   73 2    
   144   72   74 am   BACKBONE|DICT|INTERRES
   145   74   75 1    
   146   74  195 1    
   147   75   76 1    
   148   75   77 1    
   149   75  196 1    
   150   76  197 1    
   151   76  198 1    
   152   76  199 1    
   153   77   78 2    
   154   77   79 am   BACKBONE|DICT|INTERRES
   155   79   80 1    
   156   79  200 1    
   157   80   81 1    
   158   80   82 1    
   159   80  201 1    
   160   81  202 1    
   161   81  203 1    
   162   81  204 1    
   163   82   83 2    
   164   82   84 am   BACKBONE|DICT|INTERRES
   165   84   85 1    
   166   84  205 1    
   167   85   86 1    
   168   85   87 1    
   169   85  206 1    
   170   86  207 1    
   171   86  208 1    
   172   86  209 1    
   173   87   88 2    
   174   87   89 am   BACKBONE|DICT|INTERRES
   175   89   90 1    
   176   89  210 1    
   177   90   91 1    
   178   90   92 1    
   179   90  211 1    
   180   91  212 1    
   181   91  213 1    
   182   91  214 1    
   183   92   93 2    
   184   92   94 am   BACKBONE|DICT|INTERRES
   185   94   95 1    
   186   94  215 1    
   187   95   96 1    
   188   95   97 1    
   189   95  216 1    
   190   96  217 1    
   191   96  218 1    
   192   96  219 1    
   193   97   98 2    
   194   97   99 am   BACKBONE|DICT|INTERRES
   195   99  100 1    
   196   99  220 1    
   197  100  101 1    
   198  100  102 1    
   199  100  221 1    
   200  101  222 1    
   201  101  223 1    
   202  101  224 1    
   203  102  103 2    
   204  102  104 am   BACKBONE|DICT|INTERRES
   205  104  105 1    
   206  104  225 1    
   207  105  106 1    
   208  105  107 1    
   209  105  226 1    
   210  106  227 1    
   211  106  228 1    
   212  106  229 1    
   213  107  108 2    
   214  107  109 am   BACKBONE|DICT|INTERRES
   215  109  110 1    
   216  109  230 1    
   217  110  111 1    
   218  110  112 1    
   219  110  231 1    
   220  111  232 1    
   221  111  233 1    
   222  111  234 1    
   223  112  113 2    
   224  112  114 am   BACKBONE|DICT|INTERRES
   225  114  115 1    
   226  114  235 1    
   227  115  116 1    
   228  115  117 1    
   229  115  236 1    
   230  116  237 1    
   231  116  238 1    
   232  116  239 1    
   233  117  118 2    
   234  117  119 am   BACKBONE|DICT|INTERRES
   235  119  120 1    
   236  119  240 1    
   237  120  121 1    
   238  120  124 1    
   239  120  241 1    
   240  121  122 am   BACKBONE|DICT|INTERRES
   241  121  123 2    
   242  122  242 1    
   243  122  243 1    
   244  124  125 1    
   245  124  244 1    
   246  124  245 1    
   247  125  126 1    
   248  126  246 1    
   249  126  247 1    
@<TRIPOS>SUBSTRUCTURE
     1 UNK         1 GROUP             0       ****    0 ROOT    
