@<TRIPOS>MOLECULE
3R540
247   249    1
SMALL
USER_CHARGES


@<TRIPOS>ATOM
      1 CA          2.1850  -13.6445  -51.9114 C.3       0 UNK        -0.1800 
      2 C           2.0189  -12.8137  -50.6471 C.2       0 UNK         0.5000 
      3 O           1.6232  -11.6501  -50.7202 O.2       0 UNK        -0.5000 
      4 N           2.3008  -13.4092  -49.4829 N.am      1 UNK        -0.5000 
      5 CA          2.2111  -12.8092  -48.1456 C.3       1 UNK         0.1400 
      6 C6          3.1934  -13.4826  -47.1437 C.3       23 UNK        -0.0398 
      7 S7          3.1039  -15.3104  -47.1049 S.3       23 UNK        -0.2404 
      8 C8          4.5223  -15.7353  -48.1611 C.3       23 UNK        -0.0205 
      9 C9          4.4280  -17.1506  -48.7102 C.ar      23 UNK        -0.0193 
     10 C10         3.5655  -17.4352  -49.7734 C.ar      23 UNK        -0.1150 
     11 C11         3.5403  -18.7100  -50.3457 C.ar      23 UNK        -0.0193 
     12 C12         4.3840  -19.7045  -49.8440 C.ar      23 UNK        -0.1150 
     13 C13         5.2365  -19.4417  -48.7644 C.ar      23 UNK        -0.0193 
     14 C14         5.2480  -18.1614  -48.2016 C.ar      23 UNK        -0.1150 
     15 C15         6.1898  -20.5059  -48.2233 C.3       23 UNK        -0.0205 
     16 S16         5.4711  -22.1792  -48.1229 S.3       23 UNK        -0.2404 
     17 C17         4.0183  -21.8599  -47.0709 C.3       23 UNK        -0.0398 
     18 CA          3.4093  -23.1384  -46.4511 C.3       11 UNK         0.1400 
     19 N           2.4448  -22.7966  -45.4046 N.am      11 UNK        -0.5000 
     20 C           1.9655  -23.6472  -44.4876 C.2       10 UNK         0.5000 
     21 O           2.3639  -24.8045  -44.3520 O.2       10 UNK        -0.5000 
     22 CA          0.8631  -23.1121  -43.5549 C.3       10 UNK         0.1400 
     23 CB          1.4831  -22.4713  -42.3038 C.3       10 UNK        -0.1800 
     24 N          -0.0138  -22.1425  -44.2141 N.am      10 UNK        -0.5000 
     25 C          -0.9420  -22.4609  -45.1280 C.2       9 UNK         0.5000 
     26 O          -1.2149  -23.6148  -45.4518 O.2       9 UNK        -0.5000 
     27 CA         -1.6929  -21.2982  -45.8020 C.3       9 UNK         0.1400 
     28 CB         -2.9091  -20.8908  -44.9601 C.3       9 UNK        -0.1800 
     29 N          -0.8540  -20.1231  -46.0378 N.am      9 UNK        -0.5000 
     30 C           0.2117  -20.0898  -46.8502 C.2       8 UNK         0.5000 
     31 O           0.6161  -21.0615  -47.4837 O.2       8 UNK        -0.5000 
     32 CA          0.9873  -18.7625  -46.9176 C.3       8 UNK         0.1400 
     33 CB          0.2558  -17.7390  -47.8009 C.3       8 UNK        -0.1800 
     34 N           1.2060  -18.1997  -45.5858 N.am      8 UNK        -0.5000 
     35 C           1.9470  -18.7778  -44.6301 C.2       7 UNK         0.5000 
     36 O           2.5683  -19.8293  -44.7837 O.2       7 UNK        -0.5000 
     37 CA          1.9424  -18.0930  -43.2536 C.3       7 UNK         0.1400 
     38 CB          2.9027  -16.8937  -43.2393 C.3       7 UNK        -0.1800 
     39 N           0.5985  -17.6593  -42.8672 N.am      7 UNK        -0.5000 
     40 C          -0.4005  -18.4974  -42.5483 C.2       6 UNK         0.5000 
     41 O          -0.2713  -19.7197  -42.5031 O.2       6 UNK        -0.5000 
     42 CA         -1.7885  -17.8811  -42.2745 C.3       6 UNK         0.1400 
     43 CB         -1.9324  -17.5197  -40.7890 C.3       6 UNK        -0.1800 
     44 N          -2.0663  -16.6961  -43.0858 N.am      6 UNK        -0.5000 
     45 C          -2.0809  -16.6716  -44.4250 C.2       5 UNK         0.5000 
     46 O          -1.9877  -17.6822  -45.1195 O.2       5 UNK        -0.5000 
     47 CA         -2.1596  -15.2950  -45.1134 C.3       5 UNK         0.1400 
     48 CB         -3.5763  -15.0565  -45.6569 C.3       5 UNK        -0.1800 
     49 N          -1.7552  -14.1422  -44.2964 N.am      5 UNK        -0.5000 
     50 C          -0.5835  -13.9859  -43.6584 C.2       4 UNK         0.5000 
     51 O           0.2647  -14.8727  -43.5524 O.2       4 UNK        -0.5000 
     52 CA         -0.3171  -12.5875  -43.0808 C.3       4 UNK         0.1400 
     53 CB          1.0899  -12.4391  -42.4721 C.3       4 UNK        -0.1800 
     54 N          -0.4883  -11.6159  -44.1547 N.am      4 UNK        -0.5000 
     55 C          -1.0659  -10.4137  -44.0430 C.2       3 UNK         0.5000 
     56 O          -1.4905   -9.9588  -42.9801 O.2       3 UNK        -0.5000 
     57 CA         -1.2016   -9.5719  -45.3311 C.3       3 UNK         0.1400 
     58 CB         -0.1407   -8.4607  -45.3589 C.3       3 UNK        -0.1800 
     59 N          -1.0898  -10.3583  -46.5624 N.am      3 UNK        -0.5000 
     60 C          -1.9828  -11.2654  -46.9823 C.2       2 UNK         0.5000 
     61 O          -3.0552  -11.4756  -46.4156 O.2       2 UNK        -0.5000 
     62 CA         -1.5998  -12.1070  -48.2175 C.3       2 UNK         0.1400 
     63 CB         -2.2834  -11.5567  -49.4778 C.3       2 UNK        -0.1800 
     64 N          -0.1567  -12.2078  -48.4663 N.am      2 UNK        -0.5000 
     65 C           0.7507  -12.7436  -47.6379 C.2       1 UNK         0.5000 
     66 O           0.4635  -13.1554  -46.5159 O.2       1 UNK        -0.5000 
     67 C           2.7670  -24.0570  -47.5148 C.2       11 UNK         0.5000 
     68 O           3.3536  -25.0764  -47.8843 O.2       11 UNK        -0.5000 
     69 N           1.5615  -23.6874  -47.9632 N.am      12 UNK        -0.5000 
     70 CA          0.7096  -24.4604  -48.8620 C.3       12 UNK         0.1400 
     71 CB         -0.4297  -23.5428  -49.3394 C.3       12 UNK        -0.1800 
     72 C           0.1250  -25.7157  -48.1841 C.2       12 UNK         0.5000 
     73 O           0.2035  -25.8749  -46.9644 O.2       12 UNK        -0.5000 
     74 N          -0.5383  -26.5618  -48.9806 N.am      13 UNK        -0.5000 
     75 CA         -1.3848  -27.6584  -48.5024 C.3       13 UNK         0.1400 
     76 CB         -1.4329  -28.7539  -49.5828 C.3       13 UNK        -0.1800 
     77 C          -2.7847  -27.1203  -48.1318 C.2       13 UNK         0.5000 
     78 O          -3.7840  -27.5374  -48.7213 O.2       13 UNK        -0.5000 
     79 N          -2.8181  -26.1414  -47.2141 N.am      14 UNK        -0.5000 
     80 CA         -3.9404  -25.2833  -46.8110 C.3       14 UNK         0.1400 
     81 CB         -5.1181  -26.0938  -46.2369 C.3       14 UNK        -0.1800 
     82 C          -4.3975  -24.3278  -47.9294 C.2       14 UNK         0.5000 
     83 O          -4.4132  -23.1134  -47.7216 O.2       14 UNK        -0.5000 
     84 N          -4.7498  -24.8944  -49.0927 N.am      15 UNK        -0.5000 
     85 CA         -5.1190  -24.2293  -50.3468 C.3       15 UNK         0.1400 
     86 CB         -3.8600  -23.6363  -51.0108 C.3       15 UNK        -0.1800 
     87 C          -6.2631  -23.2063  -50.1916 C.2       15 UNK         0.5000 
     88 O          -6.2035  -22.1247  -50.7759 O.2       15 UNK        -0.5000 
     89 N          -7.2695  -23.5603  -49.3770 N.am      16 UNK        -0.5000 
     90 CA         -8.4222  -22.7320  -48.9979 C.3       16 UNK         0.1400 
     91 CB         -9.3409  -22.4889  -50.2149 C.3       16 UNK        -0.1800 
     92 C          -7.9980  -21.4271  -48.2877 C.2       16 UNK         0.5000 
     93 O          -8.5045  -20.3524  -48.6082 O.2       16 UNK        -0.5000 
     94 N          -7.0380  -21.5527  -47.3588 N.am      17 UNK        -0.5000 
     95 CA         -6.3287  -20.4701  -46.6664 C.3       17 UNK         0.1400 
     96 CB         -7.2786  -19.6458  -45.7724 C.3       17 UNK        -0.1800 
     97 C          -5.5090  -19.6129  -47.6535 C.2       17 UNK         0.5000 
     98 O          -5.5950  -18.3846  -47.6400 O.2       17 UNK        -0.5000 
     99 N          -4.7621  -20.3093  -48.5223 N.am      18 UNK        -0.5000 
    100 CA        -3.9295  -19.8119  -49.6243 C.3       18 UNK         0.1400 
    101 CB        -2.8035  -18.9036  -49.0992 C.3       18 UNK        -0.1800 
    102 C         -4.6900  -19.1526  -50.7952 C.2       18 UNK         0.5000 
    103 O         -4.0429  -18.7430  -51.7612 O.2       18 UNK        -0.5000 
    104 N         -6.0280  -19.0829  -50.7294 N.am      19 UNK        -0.5000 
    105 CA        -6.8923  -18.4780  -51.7449 C.3       19 UNK         0.1400 
    106 CB        -8.3353  -18.4181  -51.2262 C.3       19 UNK        -0.1800 
    107 C         -6.8414  -19.1913  -53.1078 C.2       19 UNK         0.5000 
    108 O         -6.9903  -18.5308  -54.1371 O.2       19 UNK        -0.5000 
    109 N         -6.5792  -20.5059  -53.1105 N.am      20 UNK        -0.5000 
    110 CA        -6.3504  -21.3138  -54.3095 C.3       20 UNK         0.1400 
    111 CB        -6.7175  -22.7789  -54.0133 C.3       20 UNK        -0.1800 
    112 C         -4.9049  -21.1461  -54.8273 C.2       20 UNK         0.5000 
    113 O         -4.1729  -22.1289  -54.9604 O.2       20 UNK        -0.5000 
    114 N         -4.5175  -19.8873  -55.0824 N.am      21 UNK        -0.5000 
    115 CA        -3.2452  -19.4227  -55.6483 C.3       21 UNK         0.1400 
    116 CB        -3.2026  -19.7443  -57.1564 C.3       21 UNK        -0.1800 
    117 C         -1.9911  -19.9273  -54.8998 C.2       21 UNK         0.5000 
    118 O         -0.9674  -20.1948  -55.5322 O.2       21 UNK        -0.5000 
    119 N         -2.0939  -20.0627  -53.5695 N.am      22 UNK        -0.5000 
    120 CA        -1.0658  -20.6502  -52.6914 C.3       22 UNK         0.1400 
    121 C         -0.7977  -22.1718  -52.9393 C.2       22 UNK         0.5000 
    122 N         -1.6823  -22.9053  -53.6063 N.am      22 UNK        -0.7600 
    123 O          0.2208  -22.7097  -52.5162 O.2       22 UNK        -0.5000 
    124 C124        0.2323  -19.7903  -52.6667 C.3       23 UNK        -0.0398 
    125 S125        1.0636  -19.7528  -51.0436 S.3       23 UNK        -0.2404 
    126 C126        2.6423  -18.9980  -51.5390 C.3       23 UNK        -0.0205 
    127 H127        1.2271  -13.7467  -52.4213 H         1 UNK         0.0600 
    128 H128        2.5637  -14.6435  -51.6944 H         1 UNK         0.0600 
    129 H129        2.8840  -13.1570  -52.5909 H         1 UNK         0.0600 
    130 H130        2.5673  -14.3826  -49.4810 H         1 UNK         0.3000 
    131 H131        2.5295  -11.7679  -48.2294 H         1 UNK         0.0600 
    132 H132        4.2137  -13.1891  -47.3936 H         1 UNK         0.0800 
    133 H133        3.0364  -13.1076  -46.1307 H         1 UNK         0.0800 
    134 H134        4.5897  -15.0399  -48.9985 H         1 UNK         0.0800 
    135 H135        5.4408  -15.6049  -47.5867 H         1 UNK         0.0800 
    136 H136        2.9292  -16.6581  -50.1709 H         1 UNK         0.1150 
    137 H137        4.3773  -20.6840  -50.3008 H         1 UNK         0.1150 
    138 H138        5.9195  -17.9414  -47.3835 H         1 UNK         0.1150 
    139 H139        7.0693  -20.5421  -48.8671 H         1 UNK         0.0800 
    140 H140        6.5465  -20.2275  -47.2303 H         1 UNK         0.0800 
    141 H141        3.2729  -21.3122  -47.6495 H         1 UNK         0.0800 
    142 H142        4.3350  -21.1861  -46.2736 H         1 UNK         0.0800 
    143 H143        4.2180  -23.6982  -45.9760 H         1 UNK         0.0600 
    144 H144        2.1008  -21.8437  -45.4045 H         1 UNK         0.3000 
    145 H145        0.2574  -23.9627  -43.2353 H         1 UNK         0.0600 
    146 H146        0.7131  -22.1719  -41.5927 H         1 UNK         0.0600 
    147 H147        2.1438  -23.1715  -41.7912 H         1 UNK         0.0600 
    148 H148        2.0700  -21.5867  -42.5541 H         1 UNK         0.0600 
    149 H149        0.0918  -21.1725  -43.9379 H         1 UNK         0.3000 
    150 H150       -2.0514  -21.6478  -46.7725 H         1 UNK         0.0600 
    151 H151       -3.6031  -21.7252  -44.8532 H         1 UNK         0.0600 
    152 H152       -3.4491  -20.0649  -45.4219 H         1 UNK         0.0600 
    153 H153       -2.6154  -20.5771  -43.9584 H         1 UNK         0.0600 
    154 H154       -1.1473  -19.2591  -45.5867 H         1 UNK         0.3000 
    155 H155        1.9633  -18.9628  -47.3657 H         1 UNK         0.0600 
    156 H156        0.1069  -18.1321  -48.8054 H         1 UNK         0.0600 
    157 H157        0.8246  -16.8174  -47.9028 H         1 UNK         0.0600 
    158 H158       -0.7251  -17.4807  -47.4041 H         1 UNK         0.0600 
    159 H159        0.7138  -17.3471  -45.3637 H         1 UNK         0.3000 
    160 H160        2.2928  -18.8177  -42.5156 H         1 UNK         0.0600 
    161 H161        2.6188  -16.1385  -43.9734 H         1 UNK         0.0600 
    162 H162        3.9207  -17.2080  -43.4727 H         1 UNK         0.0600 
    163 H163        2.9241  -16.4162  -42.2597 H         1 UNK         0.0600 
    164 H164        0.4072  -16.6630  -42.9431 H         1 UNK         0.3000 
    165 H165       -2.5405  -18.6336  -42.5180 H         1 UNK         0.0600 
    166 H166       -2.9367  -17.1592  -40.5656 H         1 UNK         0.0600 
    167 H167       -1.7525  -18.3903  -40.1567 H         1 UNK         0.0600 
    168 H168       -1.2229  -16.7460  -40.4926 H         1 UNK         0.0600 
    169 H169       -2.1377  -15.8167  -42.5967 H         1 UNK         0.3000 
    170 H170       -1.4743  -15.3324  -45.9626 H         1 UNK         0.0600 
    171 H171       -3.9017  -15.8880  -46.2846 H         1 UNK         0.0600 
    172 H172       -4.3024  -14.9505  -44.8501 H         1 UNK         0.0600 
    173 H173       -3.6202  -14.1566  -46.2695 H         1 UNK         0.0600 
    174 H174       -2.3738  -13.3444  -44.3343 H         1 UNK         0.3000 
    175 H175       -1.0578  -12.4210  -42.2962 H         1 UNK         0.0600 
    176 H176        1.8679  -12.6126  -43.2169 H         1 UNK         0.0600 
    177 H177        1.2374  -11.4411  -42.0594 H         1 UNK         0.0600 
    178 H178        1.2432  -13.1526  -41.6616 H         1 UNK         0.0600 
    179 H179       -0.1959  -11.9443  -45.0711 H         1 UNK         0.3000 
    180 H180       -2.1884   -9.1046  -45.3142 H         1 UNK         0.0600 
    181 H181        0.8698   -8.8703  -45.3893 H         1 UNK         0.0600 
    182 H182       -0.2122   -7.8292  -44.4722 H         1 UNK         0.0600 
    183 H183       -0.2685   -7.8138  -46.2271 H         1 UNK         0.0600 
    184 H184       -0.2398  -10.2478  -47.0949 H         1 UNK         0.3000 
    185 H185       -1.9706  -13.1189  -48.0420 H         1 UNK         0.0600 
    186 H186       -3.3642  -11.4958  -49.3430 H         1 UNK         0.0600 
    187 H187       -1.9253  -10.5562  -49.7239 H         1 UNK         0.0600 
    188 H188       -2.1004  -12.2000  -50.3387 H         1 UNK         0.0600 
    189 H189        0.1778  -11.8757  -49.3656 H         1 UNK         0.3000 
    190 H190        1.1665  -22.8120  -47.6267 H         1 UNK         0.3000 
    191 H191        1.3053  -24.7702  -49.7228 H         1 UNK         0.0600 
    192 H192       -1.1043  -23.2786  -48.5235 H         1 UNK         0.0600 
    193 H193       -0.0406  -22.6153  -49.7604 H         1 UNK         0.0600 
    194 H194       -1.0228  -24.0228  -50.1171 H         1 UNK         0.0600 
    195 H195       -0.5896  -26.3615  -49.9691 H         1 UNK         0.3000 
    196 H196       -0.9508  -28.0981  -47.6020 H         1 UNK         0.0600 
    197 H197       -0.4352  -29.1354  -49.8006 H         1 UNK         0.0600 
    198 H198       -1.8613  -28.3844  -50.5154 H         1 UNK         0.0600 
    199 H199       -2.0381  -29.6000  -49.2546 H         1 UNK         0.0600 
    200 H200       -1.9231  -25.8622  -46.8230 H         1 UNK         0.3000 
    201 H201       -3.5611  -24.6575  -46.0028 H         1 UNK         0.0600 
    202 H202       -5.8913  -25.4294  -45.8492 H         1 UNK         0.0600 
    203 H203       -4.7921  -26.7273  -45.4120 H         1 UNK         0.0600 
    204 H204       -5.5870  -26.7338  -46.9843 H         1 UNK         0.0600 
    205 H205       -4.6698  -25.9074  -49.1377 H         1 UNK         0.3000 
    206 H206       -5.5048  -25.0042  -51.0104 H         1 UNK         0.0600 
    207 H207       -3.1507  -24.4235  -51.2647 H         1 UNK         0.0600 
    208 H208       -3.3502  -22.9332  -50.3544 H         1 UNK         0.0600 
    209 H209       -4.0964  -23.1116  -51.9365 H         1 UNK         0.0600 
    210 H210       -7.2180  -24.4692  -48.9390 H         1 UNK         0.3000 
    211 H211       -8.9916  -23.3057  -48.2654 H         1 UNK         0.0600 
    212 H212       -9.6475  -23.4305  -50.6700 H         1 UNK         0.0600 
    213 H213      -10.2485  -21.9608  -49.9205 H         1 UNK         0.0600 
    214 H214       -8.8510  -21.8913  -50.9840 H         1 UNK         0.0600 
    215 H215       -6.6466  -22.4738  -47.2178 H         1 UNK         0.3000 
    216 H216       -5.6099  -20.9585  -46.0095 H         1 UNK         0.0600 
    217 H217       -6.7171  -18.9349  -45.1651 H         1 UNK         0.0600 
    218 H218       -7.9992  -19.0738  -46.3572 H         1 UNK         0.0600 
    219 H219       -7.8342  -20.2885  -45.0898 H         1 UNK         0.0600 
    220 H220       -4.7683  -21.3207  -48.4197 H         1 UNK         0.3000 
    221 H221       -3.4547  -20.6948  -50.0491 H         1 UNK         0.0600 
    222 H222       -3.1856  -17.9613  -48.7062 H         1 UNK         0.0600 
    223 H223       -2.2499  -19.3980  -48.3045 H         1 UNK         0.0600 
    224 H224       -2.0914  -18.6635  -49.8896 H         1 UNK         0.0600 
    225 H225       -6.4889  -19.4847  -49.9246 H         1 UNK         0.3000 
    226 H226       -6.5450  -17.4543  -51.8980 H         1 UNK         0.0600 
    227 H227       -8.3915  -17.9047  -50.2661 H         1 UNK         0.0600 
    228 H228       -8.9777  -17.8784  -51.9231 H         1 UNK         0.0600 
    229 H229       -8.7569  -19.4153  -51.1000 H         1 UNK         0.0600 
    230 H230       -6.4379  -20.9768  -52.2183 H         1 UNK         0.3000 
    231 H231       -7.0174  -20.9675  -55.1017 H         1 UNK         0.0600 
    232 H232       -6.6561  -23.3851  -54.9178 H         1 UNK         0.0600 
    233 H233       -7.7359  -22.8623  -53.6335 H         1 UNK         0.0600 
    234 H234       -6.0492  -23.2242  -53.2779 H         1 UNK         0.0600 
    235 H235       -5.2002  -19.1612  -54.8918 H         1 UNK         0.3000 
    236 H236       -3.2420  -18.3372  -55.5406 H         1 UNK         0.0600 
    237 H237       -4.0808  -19.3512  -57.6686 H         1 UNK         0.0600 
    238 H238       -2.3276  -19.2985  -57.6309 H         1 UNK         0.0600 
    239 H239       -3.1628  -20.8193  -57.3363 H         1 UNK         0.0600 
    240 H240       -2.9508  -19.7663  -53.1133 H         1 UNK         0.3000 
    241 H241       -1.5094  -20.6085  -51.6966 H         1 UNK         0.0600 
    242 H242       -1.4873  -23.8808  -53.7593 H         1 UNK         0.3800 
    243 H243       -2.5203  -22.4970  -54.0094 H         1 UNK         0.3800 
    244 H244        0.9331  -20.1236  -53.4343 H         1 UNK         0.0800 
    245 H245       -0.0014  -18.7532  -52.9115 H         1 UNK         0.0800 
    246 H246        3.1564  -19.6636  -52.2341 H         1 UNK         0.0800 
    247 H247        2.4444  -18.0755  -52.0872 H         1 UNK         0.0800 
@<TRIPOS>BOND
     1    1    2 1    
     2    1  127 1    
     3    1  128 1    
     4    1  129 1    
     5    2    3 2    
     6    2    4 am   BACKBONE|DICT|INTERRES
     7    4    5 1    
     8    4  130 1    
     9    5    6 1    
    10    5   65 1    
    11    5  131 1    
    12    6    7 1    
    13    6  132 1    
    14    6  133 1    
    15    7    8 1    
    16    8    9 1    
    17    8  134 1    
    18    8  135 1    
    19    9   10 ar   
    20    9   14 ar   
    21   10   11 ar   
    22   10  136 1    
    23   11   12 ar   
    24   11  126 1    
    25   12   13 ar   
    26   12  137 1    
    27   13   14 ar   
    28   13   15 1    
    29   14  138 1    
    30   15   16 1    
    31   15  139 1    
    32   15  140 1    
    33   16   17 1    
    34   17   18 1    
    35   17  141 1    
    36   17  142 1    
    37   18   19 1    
    38   18   67 1    
    39   18  143 1    
    40   19   20 am   BACKBONE|DICT|INTERRES
    41   19  144 1    
    42   20   21 2    
    43   20   22 1    
    44   22   23 1    
    45   22   24 1    
    46   22  145 1    
    47   23  146 1    
    48   23  147 1    
    49   23  148 1    
    50   24   25 am   BACKBONE|DICT|INTERRES
    51   24  149 1    
    52   25   26 2    
    53   25   27 1    
    54   27   28 1    
    55   27   29 1    
    56   27  150 1    
    57   28  151 1    
    58   28  152 1    
    59   28  153 1    
    60   29   30 am   BACKBONE|DICT|INTERRES
    61   29  154 1    
    62   30   31 2    
    63   30   32 1    
    64   32   33 1    
    65   32   34 1    
    66   32  155 1    
    67   33  156 1    
    68   33  157 1    
    69   33  158 1    
    70   34   35 am   BACKBONE|DICT|INTERRES
    71   34  159 1    
    72   35   36 2    
    73   35   37 1    
    74   37   38 1    
    75   37   39 1    
    76   37  160 1    
    77   38  161 1    
    78   38  162 1    
    79   38  163 1    
    80   39   40 am   BACKBONE|DICT|INTERRES
    81   39  164 1    
    82   40   41 2    
    83   40   42 1    
    84   42   43 1    
    85   42   44 1    
    86   42  165 1    
    87   43  166 1    
    88   43  167 1    
    89   43  168 1    
    90   44   45 am   BACKBONE|DICT|INTERRES
    91   44  169 1    
    92   45   46 2    
    93   45   47 1    
    94   47   48 1    
    95   47   49 1    
    96   47  170 1    
    97   48  171 1    
    98   48  172 1    
    99   48  173 1    
   100   49   50 am   BACKBONE|DICT|INTERRES
   101   49  174 1    
   102   50   51 2    
   103   50   52 1    
   104   52   53 1    
   105   52   54 1    
   106   52  175 1    
   107   53  176 1    
   108   53  177 1    
   109   53  178 1    
   110   54   55 am   BACKBONE|DICT|INTERRES
   111   54  179 1    
   112   55   56 2    
   113   55   57 1    
   114   57   58 1    
   115   57   59 1    
   116   57  180 1    
   117   58  181 1    
   118   58  182 1    
   119   58  183 1    
   120   59   60 am   BACKBONE|DICT|INTERRES
   121   59  184 1    
   122   60   61 2    
   123   60   62 1    
   124   62   63 1    
   125   62   64 1    
   126   62  185 1    
   127   63  186 1    
   128   63  187 1    
   129   63  188 1    
   130   64   65 am   BACKBONE|DICT|INTERRES
   131   64  189 1    
   132   65   66 2    
   133   67   68 2    
   134   67   69 am   BACKBONE|DICT|INTERRES
   135   69   70 1    
   136   69  190 1    
   137   70   71 1    
   138   70   72 1    
   139   70  191 1    
   140   71  192 1    
   141   71  193 1    
   142   71  194 1    
   143   72   73 2    
   144   72   74 am   BACKBONE|DICT|INTERRES
   145   74   75 1    
   146   74  195 1    
   147   75   76 1    
   148   75   77 1    
   149   75  196 1    
   150   76  197 1    
   151   76  198 1    
   152   76  199 1    
   153   77   78 2    
   154   77   79 am   BACKBONE|DICT|INTERRES
   155   79   80 1    
   156   79  200 1    
   157   80   81 1    
   158   80   82 1    
   159   80  201 1    
   160   81  202 1    
   161   81  203 1    
   162   81  204 1    
   163   82   83 2    
   164   82   84 am   BACKBONE|DICT|INTERRES
   165   84   85 1    
   166   84  205 1    
   167   85   86 1    
   168   85   87 1    
   169   85  206 1    
   170   86  207 1    
   171   86  208 1    
   172   86  209 1    
   173   87   88 2    
   174   87   89 am   BACKBONE|DICT|INTERRES
   175   89   90 1    
   176   89  210 1    
   177   90   91 1    
   178   90   92 1    
   179   90  211 1    
   180   91  212 1    
   181   91  213 1    
   182   91  214 1    
   183   92   93 2    
   184   92   94 am   BACKBONE|DICT|INTERRES
   185   94   95 1    
   186   94  215 1    
   187   95   96 1    
   188   95   97 1    
   189   95  216 1    
   190   96  217 1    
   191   96  218 1    
   192   96  219 1    
   193   97   98 2    
   194   97   99 am   BACKBONE|DICT|INTERRES
   195   99  100 1    
   196   99  220 1    
   197  100  101 1    
   198  100  102 1    
   199  100  221 1    
   200  101  222 1    
   201  101  223 1    
   202  101  224 1    
   203  102  103 2    
   204  102  104 am   BACKBONE|DICT|INTERRES
   205  104  105 1    
   206  104  225 1    
   207  105  106 1    
   208  105  107 1    
   209  105  226 1    
   210  106  227 1    
   211  106  228 1    
   212  106  229 1    
   213  107  108 2    
   214  107  109 am   BACKBONE|DICT|INTERRES
   215  109  110 1    
   216  109  230 1    
   217  110  111 1    
   218  110  112 1    
   219  110  231 1    
   220  111  232 1    
   221  111  233 1    
   222  111  234 1    
   223  112  113 2    
   224  112  114 am   BACKBONE|DICT|INTERRES
   225  114  115 1    
   226  114  235 1    
   227  115  116 1    
   228  115  117 1    
   229  115  236 1    
   230  116  237 1    
   231  116  238 1    
   232  116  239 1    
   233  117  118 2    
   234  117  119 am   BACKBONE|DICT|INTERRES
   235  119  120 1    
   236  119  240 1    
   237  120  121 1    
   238  120  124 1    
   239  120  241 1    
   240  121  122 am   BACKBONE|DICT|INTERRES
   241  121  123 2    
   242  122  242 1    
   243  122  243 1    
   244  124  125 1    
   245  124  244 1    
   246  124  245 1    
   247  125  126 1    
   248  126  246 1    
   249  126  247 1    
@<TRIPOS>SUBSTRUCTURE
     1 UNK         1 GROUP             0       ****    0 ROOT    
