@<TRIPOS>MOLECULE
3R540
247   249    1
SMALL
USER_CHARGES


@<TRIPOS>ATOM
      1 CA          4.6110  -13.2293  -49.3565 C.3       0 UNK        -0.1800 
      2 C           3.9554  -12.8647  -48.0334 C.2       0 UNK         0.5000 
      3 O           4.5923  -12.2316  -47.1916 O.2       0 UNK        -0.5000 
      4 N           2.6812  -13.2414  -47.8586 N.am      1 UNK        -0.5000 
      5 CA          1.8731  -13.0744  -46.6386 C.3       1 UNK         0.1400 
      6 C6          0.4629  -13.6930  -46.7984 C.3       23 UNK        -0.0398 
      7 S7          0.5026  -15.4790  -47.1646 S.3       23 UNK        -0.2404 
      8 C8         -0.3781  -15.5589  -48.7554 C.3       23 UNK        -0.0205 
      9 C9         -0.8102  -16.9857  -49.0482 C.ar      23 UNK        -0.0193 
     10 C10        -2.1363  -17.3781  -48.8383 C.ar      23 UNK        -0.1150 
     11 C11        -2.5213  -18.7066  -49.0378 C.ar      23 UNK        -0.0193 
     12 C12        -1.5726  -19.6392  -49.4578 C.ar      23 UNK        -0.1150 
     13 C13        -0.2472  -19.2591  -49.6755 C.ar      23 UNK        -0.0193 
     14 C14         0.1267  -17.9265  -49.4852 C.ar      23 UNK        -0.1150 
     15 C15         0.7885  -20.3090  -50.0427 C.3       23 UNK        -0.0205 
     16 S16         1.9471  -20.6759  -48.6763 S.3       23 UNK        -0.2404 
     17 C17         0.9146  -20.6430  -47.1635 C.3       23 UNK        -0.0398 
     18 CA          0.3974  -22.0273  -46.7099 C.3       11 UNK         0.1400 
     19 N           0.1643  -22.0463  -45.2632 N.am      11 UNK        -0.5000 
     20 C          -0.0829  -23.1344  -44.5213 C.2       10 UNK         0.5000 
     21 O          -0.1935  -24.2698  -44.9852 O.2       10 UNK        -0.5000 
     22 CA         -0.2693  -22.8985  -43.0148 C.3       10 UNK         0.1400 
     23 CB          1.0885  -22.6958  -42.3243 C.3       10 UNK        -0.1800 
     24 N          -1.1131  -21.7281  -42.7761 N.am      10 UNK        -0.5000 
     25 C          -2.4465  -21.7707  -42.6541 C.2       9 UNK         0.5000 
     26 O          -3.1019  -22.8130  -42.6609 O.2       9 UNK        -0.5000 
     27 CA         -3.1778  -20.4208  -42.5111 C.3       9 UNK         0.1400 
     28 CB         -3.3037  -20.0310  -41.0305 C.3       9 UNK        -0.1800 
     29 N          -2.5367  -19.3244  -43.2399 N.am      9 UNK        -0.5000 
     30 C          -2.4204  -19.2606  -44.5733 C.2       8 UNK         0.5000 
     31 O          -2.8378  -20.1275  -45.3374 O.2       8 UNK        -0.5000 
     32 CA         -1.6802  -18.0425  -45.1509 C.3       8 UNK         0.1400 
     33 CB         -2.6629  -16.8815  -45.3653 C.3       8 UNK        -0.1800 
     34 N          -0.5516  -17.5699  -44.3454 N.am      8 UNK        -0.5000 
     35 C           0.4832  -18.2920  -43.9004 C.2       7 UNK         0.5000 
     36 O           0.5557  -19.5172  -44.0101 O.2       7 UNK        -0.5000 
     37 CA          1.6362  -17.5370  -43.2088 C.3       7 UNK         0.1400 
     38 CB          2.6499  -17.0339  -44.2507 C.3       7 UNK        -0.1800 
     39 N           1.2499  -16.4674  -42.2724 N.am      7 UNK        -0.5000 
     40 C           0.5693  -15.3317  -42.4962 C.2       6 UNK         0.5000 
     41 O           0.1236  -14.9893  -43.5894 O.2       6 UNK        -0.5000 
     42 CA          0.3479  -14.4169  -41.2790 C.3       6 UNK         0.1400 
     43 CB         -0.7651  -14.9802  -40.3815 C.3       6 UNK        -0.1800 
     44 N           1.5725  -14.2570  -40.4910 N.am      6 UNK        -0.5000 
     45 C           2.6128  -13.4535  -40.7609 C.2       5 UNK         0.5000 
     46 O           3.6250  -13.4716  -40.0585 O.2       5 UNK        -0.5000 
     47 CA          2.5284  -12.4328  -41.9218 C.3       5 UNK         0.1400 
     48 CB          1.9499  -11.0986  -41.4247 C.3       5 UNK        -0.1800 
     49 N           3.8388  -12.1785  -42.5168 N.am      5 UNK        -0.5000 
     50 C           4.4954  -13.0535  -43.2857 C.2       4 UNK         0.5000 
     51 O           4.0398  -14.1508  -43.6056 O.2       4 UNK        -0.5000 
     52 CA          5.8640  -12.5972  -43.8160 C.3       4 UNK         0.1400 
     53 CB          6.6084  -13.7112  -44.5747 C.3       4 UNK        -0.1800 
     54 N           5.6775  -11.4666  -44.7185 N.am      4 UNK        -0.5000 
     55 C           5.7731  -10.1758  -44.3814 C.2       3 UNK         0.5000 
     56 O           6.0304   -9.7837  -43.2427 O.2       3 UNK        -0.5000 
     57 CA          5.5108   -9.1571  -45.4997 C.3       3 UNK         0.1400 
     58 CB          6.6454   -9.1777  -46.5374 C.3       3 UNK        -0.1800 
     59 N           4.2432   -9.4477  -46.1670 N.am      3 UNK        -0.5000 
     60 C           3.1197   -8.7322  -46.0216 C.2       2 UNK         0.5000 
     61 O           3.0360   -7.7222  -45.3215 O.2       2 UNK        -0.5000 
     62 CA          1.8734   -9.2132  -46.7928 C.3       2 UNK         0.1400 
     63 CB          1.7312   -8.4432  -48.1147 C.3       2 UNK        -0.1800 
     64 N           1.8861  -10.6478  -47.0808 N.am      2 UNK        -0.5000 
     65 C           1.7382  -11.6108  -46.1605 C.2       1 UNK         0.5000 
     66 O           1.5047  -11.3809  -44.9747 O.2       1 UNK        -0.5000 
     67 C          -0.8273  -22.4999  -47.5265 C.2       11 UNK         0.5000 
     68 O          -0.6524  -22.9876  -48.6419 O.2       11 UNK        -0.5000 
     69 N          -2.0373  -22.4287  -46.9490 N.am      12 UNK        -0.5000 
     70 CA         -3.2755  -22.9941  -47.4931 C.3       12 UNK         0.1400 
     71 CB         -4.4248  -22.7882  -46.4958 C.3       12 UNK        -0.1800 
     72 C          -3.1724  -24.4848  -47.8725 C.2       12 UNK         0.5000 
     73 O          -3.7940  -24.8946  -48.8523 O.2       12 UNK        -0.5000 
     74 N          -2.3667  -25.2578  -47.1282 N.am      13 UNK        -0.5000 
     75 CA         -2.0746  -26.6623  -47.4181 C.3       13 UNK         0.1400 
     76 CB         -1.3763  -27.3018  -46.2095 C.3       13 UNK        -0.1800 
     77 C          -1.2285  -26.8390  -48.6932 C.2       13 UNK         0.5000 
     78 O          -1.5067  -27.7412  -49.4835 O.2       13 UNK        -0.5000 
     79 N          -0.2451  -25.9499  -48.8986 N.am      14 UNK        -0.5000 
     80 CA          0.5819  -25.8881  -50.1086 C.3       14 UNK         0.1400 
     81 CB          1.8077  -24.9962  -49.8559 C.3       14 UNK        -0.1800 
     82 C          -0.2183  -25.3972  -51.3303 C.2       14 UNK         0.5000 
     83 O           0.0342  -25.8466  -52.4478 O.2       14 UNK        -0.5000 
     84 N          -1.2159  -24.5393  -51.0795 N.am      15 UNK        -0.5000 
     85 CA         -2.2322  -24.0926  -52.0332 C.3       15 UNK         0.1400 
     86 CB         -2.7736  -22.7281  -51.5724 C.3       15 UNK        -0.1800 
     87 C          -3.3693  -25.1189  -52.2563 C.2       15 UNK         0.5000 
     88 O          -4.3964  -24.7540  -52.8281 O.2       15 UNK        -0.5000 
     89 N          -3.1796  -26.3713  -51.8106 N.am      16 UNK        -0.5000 
     90 CA         -4.0582  -27.5320  -51.9918 C.3       16 UNK         0.1400 
     91 CB         -4.1235  -27.9349  -53.4798 C.3       16 UNK        -0.1800 
     92 C          -5.4468  -27.3425  -51.3501 C.2       16 UNK         0.5000 
     93 O          -6.4685  -27.5740  -51.9976 O.2       16 UNK        -0.5000 
     94 N          -5.4400  -26.9117  -50.0813 N.am      17 UNK        -0.5000 
     95 CA         -6.5952  -26.5274  -49.2635 C.3       17 UNK         0.1400 
     96 CB         -7.5821  -27.6985  -49.0699 C.3       17 UNK        -0.1800 
     97 C          -7.2525  -25.2369  -49.7912 C.2       17 UNK         0.5000 
     98 O          -8.4783  -25.1537  -49.8870 O.2       17 UNK        -0.5000 
     99 N          -6.3971  -24.2559  -50.1166 N.am      18 UNK        -0.5000 
    100 CA        -6.7183  -22.9228  -50.6340 C.3       18 UNK         0.1400 
    101 CB        -7.3945  -22.0720  -49.5386 C.3       18 UNK        -0.1800 
    102 C         -7.5158  -22.9538  -51.9556 C.2       18 UNK         0.5000 
    103 O         -8.4814  -22.2049  -52.1227 O.2       18 UNK        -0.5000 
    104 N         -7.0937  -23.8178  -52.8868 N.am      19 UNK        -0.5000 
    105 CA        -7.7080  -24.0193  -54.1982 C.3       19 UNK         0.1400 
    106 CB        -7.3781  -25.4406  -54.6857 C.3       19 UNK        -0.1800 
    107 C         -7.2566  -22.9324  -55.1930 C.2       19 UNK         0.5000 
    108 O         -6.5314  -23.2234  -56.1450 O.2       19 UNK        -0.5000 
    109 N         -7.6531  -21.6818  -54.9175 N.am      20 UNK        -0.5000 
    110 CA        -7.4031  -20.4377  -55.6653 C.3       20 UNK         0.1400 
    111 CB        -7.9724  -20.5244  -57.0943 C.3       20 UNK        -0.1800 
    112 C         -5.9365  -19.9536  -55.6835 C.2       20 UNK         0.5000 
    113 O         -5.7023  -18.7592  -55.8764 O.2       20 UNK        -0.5000 
    114 N         -4.9772  -20.8559  -55.4406 N.am      21 UNK        -0.5000 
    115 CA        -3.5314  -20.6122  -55.4079 C.3       21 UNK         0.1400 
    116 CB        -2.8067  -21.9639  -55.3106 C.3       21 UNK        -0.1800 
    117 C         -3.0570  -19.6284  -54.3148 C.2       21 UNK         0.5000 
    118 O         -1.9242  -19.1510  -54.3899 O.2       21 UNK        -0.5000 
    119 N         -3.9333  -19.3068  -53.3538 N.am      22 UNK        -0.5000 
    120 CA        -3.7805  -18.1811  -52.4166 C.3       22 UNK         0.1400 
    121 C         -3.8109  -16.7779  -53.0961 C.2       22 UNK         0.5000 
    122 N         -4.3393  -16.6302  -54.3070 N.am      22 UNK        -0.7600 
    123 O         -3.3480  -15.8031  -52.5110 O.2       22 UNK        -0.5000 
    124 C124       -4.8385  -18.2274  -51.2841 C.3       23 UNK        -0.0398 
    125 S125       -4.7611  -19.7534  -50.2899 S.3       23 UNK        -0.2404 
    126 C126       -3.9509  -19.1516  -48.7750 C.3       23 UNK        -0.0205 
    127 H127        4.9297  -12.3267  -49.8776 H         1 UNK         0.0600 
    128 H128        3.9318  -13.7787  -50.0088 H         1 UNK         0.0600 
    129 H129        5.4892  -13.8499  -49.1789 H         1 UNK         0.0600 
    130 H130        2.2278  -13.7624  -48.5949 H         1 UNK         0.3000 
    131 H131        2.3898  -13.6136  -45.8417 H         1 UNK         0.0600 
    132 H132       -0.1131  -13.5708  -45.8792 H         1 UNK         0.0800 
    133 H133       -0.0960  -13.1679  -47.5748 H         1 UNK         0.0800 
    134 H134       -1.2500  -14.9035  -48.7289 H         1 UNK         0.0800 
    135 H135        0.2673  -15.1915  -49.5542 H         1 UNK         0.0800 
    136 H136       -2.8621  -16.6541  -48.4963 H         1 UNK         0.1150 
    137 H137       -1.8681  -20.6693  -49.5921 H         1 UNK         0.1150 
    138 H138        1.1573  -17.6330  -49.6276 H         1 UNK         0.1150 
    139 H139        0.3031  -21.2348  -50.3544 H         1 UNK         0.0800 
    140 H140        1.3590  -19.9653  -50.9064 H         1 UNK         0.0800 
    141 H141        0.1045  -19.9190  -47.2249 H         1 UNK         0.0800 
    142 H142        1.5766  -20.2425  -46.3948 H         1 UNK         0.0800 
    143 H143        1.1893  -22.7562  -46.8951 H         1 UNK         0.0600 
    144 H144        0.2468  -21.1495  -44.7897 H         1 UNK         0.3000 
    145 H145       -0.7347  -23.7891  -42.5869 H         1 UNK         0.0600 
    146 H146        0.9669  -22.5770  -41.2476 H         1 UNK         0.0600 
    147 H147        1.7397  -23.5560  -42.4850 H         1 UNK         0.0600 
    148 H148        1.6091  -21.8143  -42.7008 H         1 UNK         0.0600 
    149 H149       -0.6580  -20.8249  -42.8211 H         1 UNK         0.3000 
    150 H150       -4.1832  -20.5484  -42.9178 H         1 UNK         0.0600 
    151 H151       -3.7999  -20.8176  -40.4604 H         1 UNK         0.0600 
    152 H152       -3.8944  -19.1227  -40.9101 H         1 UNK         0.0600 
    153 H153       -2.3276  -19.8608  -40.5744 H         1 UNK         0.0600 
    154 H154       -2.1510  -18.5715  -42.6896 H         1 UNK         0.3000 
    155 H155       -1.2809  -18.3332  -46.1236 H         1 UNK         0.0600 
    156 H156       -3.0581  -16.5098  -44.4192 H         1 UNK         0.0600 
    157 H157       -2.1838  -16.0471  -45.8771 H         1 UNK         0.0600 
    158 H158       -3.5100  -17.1933  -45.9776 H         1 UNK         0.0600 
    159 H159       -0.4825  -16.5624  -44.2150 H         1 UNK         0.3000 
    160 H160        2.1505  -18.2820  -42.5996 H         1 UNK         0.0600 
    161 H161        2.2739  -16.1756  -44.8072 H         1 UNK         0.0600 
    162 H162        2.8934  -17.8121  -44.9754 H         1 UNK         0.0600 
    163 H163        3.5831  -16.7396  -43.7721 H         1 UNK         0.0600 
    164 H164        1.5508  -16.6281  -41.3220 H         1 UNK         0.3000 
    165 H165        0.0076  -13.4437  -41.6366 H         1 UNK         0.0600 
    166 H166       -0.9799  -14.3055  -39.5525 H         1 UNK         0.0600 
    167 H167       -1.6919  -15.1076  -40.9428 H         1 UNK         0.0600 
    168 H168       -0.5001  -15.9513  -39.9616 H         1 UNK         0.0600 
    169 H169        1.6524  -14.8660  -39.6905 H         1 UNK         0.3000 
    170 H170        1.8894  -12.8134  -42.7180 H         1 UNK         0.0600 
    171 H171        2.5780  -10.6496  -40.6542 H         1 UNK         0.0600 
    172 H172        1.8562  -10.3825  -42.2418 H         1 UNK         0.0600 
    173 H173        0.9555  -11.2351  -40.9986 H         1 UNK         0.0600 
    174 H174        4.2815  -11.2978  -42.2950 H         1 UNK         0.3000 
    175 H175        6.4762  -12.3068  -42.9597 H         1 UNK         0.0600 
    176 H176        7.5862  -13.3694  -44.9140 H         1 UNK         0.0600 
    177 H177        6.0501  -14.0466  -45.4499 H         1 UNK         0.0600 
    178 H178        6.7709  -14.5790  -43.9342 H         1 UNK         0.0600 
    179 H179        5.3874  -11.7092  -45.6641 H         1 UNK         0.3000 
    180 H180        5.4912   -8.1634  -45.0473 H         1 UNK         0.0600 
    181 H181        6.7124  -10.1388  -47.0491 H         1 UNK         0.0600 
    182 H182        7.6101   -8.9874  -46.0654 H         1 UNK         0.0600 
    183 H183        6.4965   -8.4078  -47.2946 H         1 UNK         0.0600 
    184 H184        4.2101  -10.2991  -46.7168 H         1 UNK         0.3000 
    185 H185        0.9994   -8.9958  -46.1750 H         1 UNK         0.0600 
    186 H186        0.8155   -8.7208  -48.6370 H         1 UNK         0.0600 
    187 H187        1.6894   -7.3676  -47.9377 H         1 UNK         0.0600 
    188 H188        2.5716   -8.6333  -48.7836 H         1 UNK         0.0600 
    189 H189        2.0742  -10.9206  -48.0344 H         1 UNK         0.3000 
    190 H190       -2.1256  -21.9278  -46.0721 H         1 UNK         0.3000 
    191 H191       -3.5168  -22.4371  -48.3980 H         1 UNK         0.0600 
    192 H192       -4.6477  -21.7304  -46.3613 H         1 UNK         0.0600 
    193 H193       -5.3416  -23.2635  -46.8479 H         1 UNK         0.0600 
    194 H194       -4.1890  -23.2094  -45.5176 H         1 UNK         0.0600 
    195 H195       -1.8635  -24.8394  -46.3546 H         1 UNK         0.3000 
    196 H196       -3.0236  -27.1800  -47.5732 H         1 UNK         0.0600 
    197 H197       -1.1905  -28.3625  -46.3829 H         1 UNK         0.0600 
    198 H198       -1.9891  -27.2211  -45.3115 H         1 UNK         0.0600 
    199 H199       -0.4151  -26.8300  -46.0023 H         1 UNK         0.0600 
    200 H200       -0.1321  -25.1925  -48.2394 H         1 UNK         0.3000 
    201 H201        0.9376  -26.8971  -50.3278 H         1 UNK         0.0600 
    202 H202        2.3839  -25.3493  -49.0007 H         1 UNK         0.0600 
    203 H203        1.5288  -23.9595  -49.6676 H         1 UNK         0.0600 
    204 H204        2.4732  -25.0002  -50.7199 H         1 UNK         0.0600 
    205 H205       -1.2943  -24.1770  -50.1348 H         1 UNK         0.3000 
    206 H206       -1.7527  -23.9487  -53.0030 H         1 UNK         0.0600 
    207 H207       -1.9784  -21.9838  -51.5410 H         1 UNK         0.0600 
    208 H208       -3.5432  -22.3437  -52.2411 H         1 UNK         0.0600 
    209 H209       -3.2166  -22.7907  -50.5817 H         1 UNK         0.0600 
    210 H210       -2.3242  -26.5614  -51.3062 H         1 UNK         0.3000 
    211 H211       -3.5876  -28.3559  -51.4533 H         1 UNK         0.0600 
    212 H212       -4.6025  -27.1681  -54.0883 H         1 UNK         0.0600 
    213 H213       -4.6905  -28.8573  -53.6106 H         1 UNK         0.0600 
    214 H214       -3.1262  -28.1078  -53.8842 H         1 UNK         0.0600 
    215 H215       -4.5438  -26.6580  -49.6818 H         1 UNK         0.3000 
    216 H216       -6.1960  -26.2796  -48.2788 H         1 UNK         0.0600 
    217 H217       -8.3446  -27.4431  -48.3334 H         1 UNK         0.0600 
    218 H218       -7.0698  -28.5908  -48.7104 H         1 UNK         0.0600 
    219 H219       -8.1001  -27.9567  -49.9936 H         1 UNK         0.0600 
    220 H220       -5.4109  -24.4478  -49.9753 H         1 UNK         0.3000 
    221 H221       -5.7634  -22.4567  -50.8745 H         1 UNK         0.0600 
    222 H222       -8.3639  -22.4782  -49.2491 H         1 UNK         0.0600 
    223 H223       -6.7722  -22.0152  -48.6456 H         1 UNK         0.0600 
    224 H224       -7.5586  -21.0498  -49.8812 H         1 UNK         0.0600 
    225 H225       -6.2328  -24.3340  -52.7187 H         1 UNK         0.3000 
    226 H226       -8.7933  -23.9475  -54.1013 H         1 UNK         0.0600 
    227 H227       -7.7618  -26.1913  -53.9950 H         1 UNK         0.0600 
    228 H228       -7.8274  -25.6359  -55.6600 H         1 UNK         0.0600 
    229 H229       -6.3026  -25.5929  -54.7810 H         1 UNK         0.0600 
    230 H230       -8.1816  -21.5656  -54.0581 H         1 UNK         0.3000 
    231 H231       -7.9658  -19.6660  -55.1379 H         1 UNK         0.0600 
    232 H232       -7.4374  -21.2532  -57.7037 H         1 UNK         0.0600 
    233 H233       -7.8975  -19.5617  -57.6015 H         1 UNK         0.0600 
    234 H234       -9.0259  -20.8036  -57.0833 H         1 UNK         0.0600 
    235 H235       -5.2722  -21.8225  -55.3684 H         1 UNK         0.3000 
    236 H236       -3.2587  -20.1572  -56.3622 H         1 UNK         0.0600 
    237 H237       -2.9468  -22.5455  -56.2219 H         1 UNK         0.0600 
    238 H238       -1.7326  -21.8350  -55.1711 H         1 UNK         0.0600 
    239 H239       -3.1816  -22.5621  -54.4825 H         1 UNK         0.0600 
    240 H240       -4.8330  -19.7609  -53.3601 H         1 UNK         0.3000 
    241 H241       -2.7944  -18.2755  -51.9580 H         1 UNK         0.0600 
    242 H242       -4.7456  -17.4152  -54.8069 H         1 UNK         0.3800 
    243 H243       -4.3492  -15.7163  -54.7310 H         1 UNK         0.3800 
    244 H244       -4.7275  -17.3696  -50.6181 H         1 UNK         0.0800 
    245 H245       -5.8430  -18.1506  -51.7033 H         1 UNK         0.0800 
    246 H246       -3.9399  -19.9519  -48.0344 H         1 UNK         0.0800 
    247 H247       -4.5422  -18.3436  -48.3418 H         1 UNK         0.0800 
@<TRIPOS>BOND
     1    1    2 1    
     2    1  127 1    
     3    1  128 1    
     4    1  129 1    
     5    2    3 2    
     6    2    4 am   BACKBONE|DICT|INTERRES
     7    4    5 1    
     8    4  130 1    
     9    5    6 1    
    10    5   65 1    
    11    5  131 1    
    12    6    7 1    
    13    6  132 1    
    14    6  133 1    
    15    7    8 1    
    16    8    9 1    
    17    8  134 1    
    18    8  135 1    
    19    9   10 ar   
    20    9   14 ar   
    21   10   11 ar   
    22   10  136 1    
    23   11   12 ar   
    24   11  126 1    
    25   12   13 ar   
    26   12  137 1    
    27   13   14 ar   
    28   13   15 1    
    29   14  138 1    
    30   15   16 1    
    31   15  139 1    
    32   15  140 1    
    33   16   17 1    
    34   17   18 1    
    35   17  141 1    
    36   17  142 1    
    37   18   19 1    
    38   18   67 1    
    39   18  143 1    
    40   19   20 am   BACKBONE|DICT|INTERRES
    41   19  144 1    
    42   20   21 2    
    43   20   22 1    
    44   22   23 1    
    45   22   24 1    
    46   22  145 1    
    47   23  146 1    
    48   23  147 1    
    49   23  148 1    
    50   24   25 am   BACKBONE|DICT|INTERRES
    51   24  149 1    
    52   25   26 2    
    53   25   27 1    
    54   27   28 1    
    55   27   29 1    
    56   27  150 1    
    57   28  151 1    
    58   28  152 1    
    59   28  153 1    
    60   29   30 am   BACKBONE|DICT|INTERRES
    61   29  154 1    
    62   30   31 2    
    63   30   32 1    
    64   32   33 1    
    65   32   34 1    
    66   32  155 1    
    67   33  156 1    
    68   33  157 1    
    69   33  158 1    
    70   34   35 am   BACKBONE|DICT|INTERRES
    71   34  159 1    
    72   35   36 2    
    73   35   37 1    
    74   37   38 1    
    75   37   39 1    
    76   37  160 1    
    77   38  161 1    
    78   38  162 1    
    79   38  163 1    
    80   39   40 am   BACKBONE|DICT|INTERRES
    81   39  164 1    
    82   40   41 2    
    83   40   42 1    
    84   42   43 1    
    85   42   44 1    
    86   42  165 1    
    87   43  166 1    
    88   43  167 1    
    89   43  168 1    
    90   44   45 am   BACKBONE|DICT|INTERRES
    91   44  169 1    
    92   45   46 2    
    93   45   47 1    
    94   47   48 1    
    95   47   49 1    
    96   47  170 1    
    97   48  171 1    
    98   48  172 1    
    99   48  173 1    
   100   49   50 am   BACKBONE|DICT|INTERRES
   101   49  174 1    
   102   50   51 2    
   103   50   52 1    
   104   52   53 1    
   105   52   54 1    
   106   52  175 1    
   107   53  176 1    
   108   53  177 1    
   109   53  178 1    
   110   54   55 am   BACKBONE|DICT|INTERRES
   111   54  179 1    
   112   55   56 2    
   113   55   57 1    
   114   57   58 1    
   115   57   59 1    
   116   57  180 1    
   117   58  181 1    
   118   58  182 1    
   119   58  183 1    
   120   59   60 am   BACKBONE|DICT|INTERRES
   121   59  184 1    
   122   60   61 2    
   123   60   62 1    
   124   62   63 1    
   125   62   64 1    
   126   62  185 1    
   127   63  186 1    
   128   63  187 1    
   129   63  188 1    
   130   64   65 am   BACKBONE|DICT|INTERRES
   131   64  189 1    
   132   65   66 2    
   133   67   68 2    
   134   67   69 am   BACKBONE|DICT|INTERRES
   135   69   70 1    
   136   69  190 1    
   137   70   71 1    
   138   70   72 1    
   139   70  191 1    
   140   71  192 1    
   141   71  193 1    
   142   71  194 1    
   143   72   73 2    
   144   72   74 am   BACKBONE|DICT|INTERRES
   145   74   75 1    
   146   74  195 1    
   147   75   76 1    
   148   75   77 1    
   149   75  196 1    
   150   76  197 1    
   151   76  198 1    
   152   76  199 1    
   153   77   78 2    
   154   77   79 am   BACKBONE|DICT|INTERRES
   155   79   80 1    
   156   79  200 1    
   157   80   81 1    
   158   80   82 1    
   159   80  201 1    
   160   81  202 1    
   161   81  203 1    
   162   81  204 1    
   163   82   83 2    
   164   82   84 am   BACKBONE|DICT|INTERRES
   165   84   85 1    
   166   84  205 1    
   167   85   86 1    
   168   85   87 1    
   169   85  206 1    
   170   86  207 1    
   171   86  208 1    
   172   86  209 1    
   173   87   88 2    
   174   87   89 am   BACKBONE|DICT|INTERRES
   175   89   90 1    
   176   89  210 1    
   177   90   91 1    
   178   90   92 1    
   179   90  211 1    
   180   91  212 1    
   181   91  213 1    
   182   91  214 1    
   183   92   93 2    
   184   92   94 am   BACKBONE|DICT|INTERRES
   185   94   95 1    
   186   94  215 1    
   187   95   96 1    
   188   95   97 1    
   189   95  216 1    
   190   96  217 1    
   191   96  218 1    
   192   96  219 1    
   193   97   98 2    
   194   97   99 am   BACKBONE|DICT|INTERRES
   195   99  100 1    
   196   99  220 1    
   197  100  101 1    
   198  100  102 1    
   199  100  221 1    
   200  101  222 1    
   201  101  223 1    
   202  101  224 1    
   203  102  103 2    
   204  102  104 am   BACKBONE|DICT|INTERRES
   205  104  105 1    
   206  104  225 1    
   207  105  106 1    
   208  105  107 1    
   209  105  226 1    
   210  106  227 1    
   211  106  228 1    
   212  106  229 1    
   213  107  108 2    
   214  107  109 am   BACKBONE|DICT|INTERRES
   215  109  110 1    
   216  109  230 1    
   217  110  111 1    
   218  110  112 1    
   219  110  231 1    
   220  111  232 1    
   221  111  233 1    
   222  111  234 1    
   223  112  113 2    
   224  112  114 am   BACKBONE|DICT|INTERRES
   225  114  115 1    
   226  114  235 1    
   227  115  116 1    
   228  115  117 1    
   229  115  236 1    
   230  116  237 1    
   231  116  238 1    
   232  116  239 1    
   233  117  118 2    
   234  117  119 am   BACKBONE|DICT|INTERRES
   235  119  120 1    
   236  119  240 1    
   237  120  121 1    
   238  120  124 1    
   239  120  241 1    
   240  121  122 am   BACKBONE|DICT|INTERRES
   241  121  123 2    
   242  122  242 1    
   243  122  243 1    
   244  124  125 1    
   245  124  244 1    
   246  124  245 1    
   247  125  126 1    
   248  126  246 1    
   249  126  247 1    
@<TRIPOS>SUBSTRUCTURE
     1 UNK         1 GROUP             0       ****    0 ROOT    
