@<TRIPOS>MOLECULE
3R540
247   249    1
SMALL
USER_CHARGES


@<TRIPOS>ATOM
      1 CA          4.4558   -9.5822  -46.9670 C.3       0 UNK        -0.1800 
      2 C           3.3032  -10.5587  -46.7909 C.2       0 UNK         0.5000 
      3 O           2.5346  -10.4334  -45.8381 O.2       0 UNK        -0.5000 
      4 N           3.1629  -11.5183  -47.7147 N.am      1 UNK        -0.5000 
      5 CA          2.1666  -12.6025  -47.6968 C.3       1 UNK         0.1400 
      6 C6          2.4364  -13.6463  -48.8051 C.3       23 UNK        -0.0398 
      7 S7          4.0788  -14.4295  -48.6319 S.3       23 UNK        -0.2404 
      8 C8          3.6325  -16.0904  -48.0271 C.3       23 UNK        -0.0205 
      9 C9          3.4851  -17.1227  -49.1424 C.ar      23 UNK        -0.0193 
     10 C10         2.6679  -16.8815  -50.2521 C.ar      23 UNK        -0.1150 
     11 C11         2.5135  -17.8454  -51.2514 C.ar      23 UNK        -0.0193 
     12 C12         3.1935  -19.0602  -51.1427 C.ar      23 UNK        -0.1150 
     13 C13         4.0060  -19.3267  -50.0353 C.ar      23 UNK        -0.0193 
     14 C14         4.1466  -18.3513  -49.0426 C.ar      23 UNK        -0.1150 
     15 C15         4.7508  -20.6538  -49.9020 C.3       23 UNK        -0.0205 
     16 S16         3.7615  -22.1131  -50.3788 S.3       23 UNK        -0.2404 
     17 C17         2.3884  -22.0380  -49.1799 C.3       23 UNK        -0.0398 
     18 CA          2.3862  -23.2120  -48.1703 C.3       11 UNK         0.1400 
     19 N           1.7624  -22.8153  -46.9040 N.am      11 UNK        -0.5000 
     20 C           1.8843  -23.4776  -45.7447 C.2       10 UNK         0.5000 
     21 O           2.6118  -24.4619  -45.6065 O.2       10 UNK        -0.5000 
     22 CA          1.0661  -22.9776  -44.5344 C.3       10 UNK         0.1400 
     23 CB          2.0009  -22.4199  -43.4495 C.3       10 UNK        -0.1800 
     24 N           0.0559  -21.9655  -44.8552 N.am      10 UNK        -0.5000 
     25 C          -1.0527  -22.1783  -45.5774 C.2       9 UNK         0.5000 
     26 O          -1.3592  -23.2712  -46.0538 O.2       9 UNK        -0.5000 
     27 CA         -1.9263  -20.9449  -45.8791 C.3       9 UNK         0.1400 
     28 CB         -2.8372  -20.6041  -44.6916 C.3       9 UNK        -0.1800 
     29 N          -1.1464  -19.7632  -46.2524 N.am      9 UNK        -0.5000 
     30 C          -0.3089  -19.7011  -47.2983 C.2       8 UNK         0.5000 
     31 O          -0.1002  -20.6419  -48.0597 O.2       8 UNK        -0.5000 
     32 CA          0.4921  -18.4022  -47.4759 C.3       8 UNK         0.1400 
     33 CB         -0.3774  -17.2725  -48.0477 C.3       8 UNK        -0.1800 
     34 N           1.1059  -17.9818  -46.2176 N.am      8 UNK        -0.5000 
     35 C           2.0963  -18.6481  -45.6053 C.2       7 UNK         0.5000 
     36 O           2.6675  -19.6269  -46.0848 O.2       7 UNK        -0.5000 
     37 CA          2.4871  -18.1616  -44.1997 C.3       7 UNK         0.1400 
     38 CB          3.5783  -17.0823  -44.2764 C.3       7 UNK        -0.1800 
     39 N           1.3330  -17.6543  -43.4544 N.am      7 UNK        -0.5000 
     40 C           0.3608  -18.4356  -42.9585 C.2       6 UNK         0.5000 
     41 O           0.3561  -19.6613  -43.0595 O.2       6 UNK        -0.5000 
     42 CA         -0.8270  -17.7342  -42.2724 C.3       6 UNK         0.1400 
     43 CB         -0.5158  -17.4707  -40.7919 C.3       6 UNK        -0.1800 
     44 N          -1.1949  -16.4760  -42.9201 N.am      6 UNK        -0.5000 
     45 C          -1.6575  -16.3687  -44.1737 C.2       5 UNK         0.5000 
     46 O          -1.8996  -17.3373  -44.8924 O.2       5 UNK        -0.5000 
     47 CA         -1.8252  -14.9433  -44.7353 C.3       5 UNK         0.1400 
     48 CB         -3.2772  -14.4682  -44.5847 C.3       5 UNK        -0.1800 
     49 N          -0.9311  -13.9635  -44.1121 N.am      5 UNK        -0.5000 
     50 C           0.4064  -13.9946  -44.1687 C.2       4 UNK         0.5000 
     51 O           1.0372  -14.8779  -44.7524 O.2       4 UNK        -0.5000 
     52 CA          1.1461  -12.8592  -43.4337 C.3       4 UNK         0.1400 
     53 CB          2.6773  -13.0019  -43.5075 C.3       4 UNK        -0.1800 
     54 N           0.7639  -11.5456  -43.9495 N.am      4 UNK        -0.5000 
     55 C          -0.3522  -10.8735  -43.6356 C.2       3 UNK         0.5000 
     56 O          -1.2046  -11.2976  -42.8538 O.2       3 UNK        -0.5000 
     57 CA         -0.5683   -9.5287  -44.3464 C.3       3 UNK         0.1400 
     58 CB          0.3701   -8.4511  -43.7802 C.3       3 UNK        -0.1800 
     59 N          -0.3319   -9.6761  -45.7807 N.am      3 UNK        -0.5000 
     60 C          -1.2872   -9.9045  -46.6929 C.2       2 UNK         0.5000 
     61 O          -2.4920   -9.9105  -46.4380 O.2       2 UNK        -0.5000 
     62 CA         -0.8193  -10.1899  -48.1351 C.3       2 UNK         0.1400 
     63 CB         -0.7386   -8.8865  -48.9442 C.3       2 UNK        -0.1800 
     64 N           0.4781  -10.8660  -48.1858 N.am      2 UNK        -0.5000 
     65 C           0.6999  -12.1178  -47.7594 C.2       1 UNK         0.5000 
     66 O          -0.1993  -12.8775  -47.4007 O.2       1 UNK        -0.5000 
     67 C           1.7373  -24.4831  -48.7711 C.2       11 UNK         0.5000 
     68 O           2.3683  -25.1559  -49.5878 O.2       11 UNK        -0.5000 
     69 N           0.5082  -24.8069  -48.3469 N.am      12 UNK        -0.5000 
     70 CA         -0.2128  -26.0230  -48.7087 C.3       12 UNK         0.1400 
     71 CB         -1.1419  -25.7404  -49.9086 C.3       12 UNK        -0.1800 
     72 C          -0.9452  -26.5603  -47.4651 C.2       12 UNK         0.5000 
     73 O          -0.4638  -26.3855  -46.3444 O.2       12 UNK        -0.5000 
     74 N          -2.1005  -27.2019  -47.6765 N.am      13 UNK        -0.5000 
     75 CA         -2.9607  -27.7736  -46.6354 C.3       13 UNK         0.1400 
     76 CB         -3.7156  -28.9700  -47.2417 C.3       13 UNK        -0.1800 
     77 C          -3.9420  -26.7502  -46.0194 C.2       13 UNK         0.5000 
     78 O          -4.8706  -27.1562  -45.3200 O.2       13 UNK        -0.5000 
     79 N          -3.7518  -25.4547  -46.3171 N.am      14 UNK        -0.5000 
     80 CA         -4.5694  -24.3039  -45.9090 C.3       14 UNK         0.1400 
     81 CB         -4.5795  -24.1400  -44.3752 C.3       14 UNK        -0.1800 
     82 C          -5.9898  -24.2832  -46.5141 C.2       14 UNK         0.5000 
     83 O          -6.8247  -23.4935  -46.0699 O.2       14 UNK        -0.5000 
     84 N          -6.2289  -25.1067  -47.5457 N.am      15 UNK        -0.5000 
     85 CA         -7.4845  -25.2299  -48.2876 C.3       15 UNK         0.1400 
     86 CB         -7.3469  -26.3703  -49.3089 C.3       15 UNK        -0.1800 
     87 C          -7.8535  -23.9050  -48.9764 C.2       15 UNK         0.5000 
     88 O          -7.1863  -23.5175  -49.9390 O.2       15 UNK        -0.5000 
     89 N          -8.8474  -23.2034  -48.4125 N.am      16 UNK        -0.5000 
     90 CA         -9.2751  -21.8442  -48.7681 C.3       16 UNK         0.1400 
     91 CB         -9.9876  -21.8427  -50.1360 C.3       16 UNK        -0.1800 
     92 C          -8.1222  -20.8187  -48.6673 C.2       16 UNK         0.5000 
     93 O          -7.9577  -19.9789  -49.5529 O.2       16 UNK        -0.5000 
     94 N          -7.3237  -20.9488  -47.5942 N.am      17 UNK        -0.5000 
     95 CA         -6.0795  -20.2199  -47.3150 C.3       17 UNK         0.1400 
     96 CB         -6.3348  -18.7102  -47.1243 C.3       17 UNK        -0.1800 
     97 C          -4.9709  -20.5296  -48.3438 C.2       17 UNK         0.5000 
     98 O          -4.1848  -19.6487  -48.6909 O.2       17 UNK        -0.5000 
     99 N          -4.9388  -21.7942  -48.7928 N.am      18 UNK        -0.5000 
    100 CA        -4.0629  -22.3685  -49.8152 C.3       18 UNK         0.1400 
    101 CB        -2.5866  -22.3377  -49.3847 C.3       18 UNK        -0.1800 
    102 C         -4.2956  -21.7119  -51.1839 C.2       18 UNK         0.5000 
    103 O         -3.3887  -21.0916  -51.7458 O.2       18 UNK        -0.5000 
    104 N         -5.5174  -21.8722  -51.7077 N.am      19 UNK        -0.5000 
    105 CA        -5.9427  -21.3657  -53.0184 C.3       19 UNK         0.1400 
    106 CB        -7.4378  -21.6531  -53.2109 C.3       19 UNK        -0.1800 
    107 C         -5.1203  -21.9200  -54.2007 C.2       19 UNK         0.5000 
    108 O         -4.9966  -21.2479  -55.2247 O.2       19 UNK        -0.5000 
    109 N         -4.5485  -23.1193  -54.0233 N.am      20 UNK        -0.5000 
    110 CA        -3.6180  -23.7526  -54.9568 C.3       20 UNK         0.1400 
    111 CB        -3.4741  -25.2357  -54.5813 C.3       20 UNK        -0.1800 
    112 C         -2.2331  -23.0734  -54.9958 C.2       20 UNK         0.5000 
    113 O         -1.5580  -23.1575  -56.0225 O.2       20 UNK        -0.5000 
    114 N         -1.8292  -22.4267  -53.8921 N.am      21 UNK        -0.5000 
    115 CA        -0.5757  -21.6816  -53.7877 C.3       21 UNK         0.1400 
    116 CB        -0.0388  -21.7467  -52.3460 C.3       21 UNK        -0.1800 
    117 C         -0.7807  -20.2295  -54.2437 C.2       21 UNK         0.5000 
    118 O         -0.0940  -19.7803  -55.1621 O.2       21 UNK        -0.5000 
    119 N         -1.7320  -19.5359  -53.6073 N.am      22 UNK        -0.5000 
    120 CA        -2.0730  -18.1253  -53.8622 C.3       22 UNK         0.1400 
    121 C         -3.3684  -17.6326  -53.1539 C.2       22 UNK         0.5000 
    122 N         -3.9864  -18.3833  -52.2517 N.am      22 UNK        -0.7600 
    123 O         -3.8430  -16.5383  -53.4469 O.2       22 UNK        -0.5000 
    124 C124       -0.8907  -17.1390  -53.6225 C.3       23 UNK        -0.0398 
    125 S125       -0.1088  -17.3037  -51.9778 S.3       23 UNK        -0.2404 
    126 C126        1.6277  -17.5661  -52.4561 C.3       23 UNK        -0.0205 
    127 H127        5.1162   -9.6245  -46.1010 H         1 UNK         0.0600 
    128 H128        4.0745   -8.5652  -47.0570 H         1 UNK         0.0600 
    129 H129        5.0451   -9.8063  -47.8565 H         1 UNK         0.0600 
    130 H130        3.8318  -11.5678  -48.4704 H         1 UNK         0.3000 
    131 H131        2.2689  -13.1121  -46.7373 H         1 UNK         0.0600 
    132 H132        2.3790  -13.1824  -49.7912 H         1 UNK         0.0800 
    133 H133        1.6650  -14.4173  -48.7884 H         1 UNK         0.0800 
    134 H134        4.4087  -16.4050  -47.3281 H         1 UNK         0.0800 
    135 H135        2.7106  -16.0421  -47.4476 H         1 UNK         0.0800 
    136 H136        2.1401  -15.9457  -50.3480 H         1 UNK         0.1150 
    137 H137        3.0862  -19.8033  -51.9199 H         1 UNK         0.1150 
    138 H138        4.7688  -18.5539  -48.1820 H         1 UNK         0.1150 
    139 H139        5.6420  -20.6151  -50.5293 H         1 UNK         0.0800 
    140 H140        5.0990  -20.7957  -48.8775 H         1 UNK         0.0800 
    141 H141        1.4461  -21.9813  -49.7276 H         1 UNK         0.0800 
    142 H142        2.4658  -21.0935  -48.6399 H         1 UNK         0.0800 
    143 H143        3.4243  -23.4619  -47.9407 H         1 UNK         0.0600 
    144 H144        1.1465  -22.0118  -46.9472 H         1 UNK         0.3000 
    145 H145        0.5470  -23.8458  -44.1230 H         1 UNK         0.0600 
    146 H146        1.4463  -22.1526  -42.5500 H         1 UNK         0.0600 
    147 H147        2.7518  -23.1554  -43.1584 H         1 UNK         0.0600 
    148 H148        2.5283  -21.5308  -43.7967 H         1 UNK         0.0600 
    149 H149        0.2114  -21.0412  -44.4637 H         1 UNK         0.3000 
    150 H150       -2.5630  -21.1934  -46.7277 H         1 UNK         0.0600 
    151 H151       -3.4578  -21.4557  -44.4166 H         1 UNK         0.0600 
    152 H152       -3.5062  -19.7777  -44.9329 H         1 UNK         0.0600 
    153 H153       -2.2605  -20.3213  -43.8111 H         1 UNK         0.0600 
    154 H154       -1.2902  -18.9269  -45.6918 H         1 UNK         0.3000 
    155 H155        1.2883  -18.6075  -48.1933 H         1 UNK         0.0600 
    156 H156        0.2101  -16.3721  -48.2249 H         1 UNK         0.0600 
    157 H157       -1.2009  -17.0110  -47.3849 H         1 UNK         0.0600 
    158 H158       -0.8132  -17.5695  -49.0022 H         1 UNK         0.0600 
    159 H159        0.6970  -17.1864  -45.7471 H         1 UNK         0.3000 
    160 H160        2.8973  -19.0140  -43.6540 H         1 UNK         0.0600 
    161 H161        3.2550  -16.2132  -44.8488 H         1 UNK         0.0600 
    162 H162        4.4745  -17.4730  -44.7599 H         1 UNK         0.0600 
    163 H163        3.8678  -16.7409  -43.2825 H         1 UNK         0.0600 
    164 H164        1.2346  -16.6490  -43.4051 H         1 UNK         0.3000 
    165 H165       -1.6870  -18.4047  -42.3271 H         1 UNK         0.0600 
    166 H166       -1.3773  -17.0448  -40.2774 H         1 UNK         0.0600 
    167 H167       -0.2569  -18.3972  -40.2774 H         1 UNK         0.0600 
    168 H168        0.3222  -16.7830  -40.6715 H         1 UNK         0.0600 
    169 H169       -1.0335  -15.6283  -42.3971 H         1 UNK         0.3000 
    170 H170       -1.5845  -14.9803  -45.7998 H         1 UNK         0.0600 
    171 H171       -3.9676  -15.1649  -45.0621 H         1 UNK         0.0600 
    172 H172       -3.5663  -14.3833  -43.5365 H         1 UNK         0.0600 
    173 H173       -3.4226  -13.4947  -45.0538 H         1 UNK         0.0600 
    174 H174       -1.3637  -13.1852  -43.6263 H         1 UNK         0.3000 
    175 H175        0.8628  -12.9199  -42.3809 H         1 UNK         0.0600 
    176 H176        3.0423  -12.9525  -44.5331 H         1 UNK         0.0600 
    177 H177        3.1729  -12.2137  -42.9407 H         1 UNK         0.0600 
    178 H178        3.0028  -13.9553  -43.0894 H         1 UNK         0.0600 
    179 H179        1.4081  -11.1292  -44.6189 H         1 UNK         0.3000 
    180 H180       -1.5962   -9.2086  -44.1628 H         1 UNK         0.0600 
    181 H181        1.4203   -8.7027  -43.9334 H         1 UNK         0.0600 
    182 H182        0.2155   -8.3242  -42.7080 H         1 UNK         0.0600 
    183 H183        0.1869   -7.4855  -44.2517 H         1 UNK         0.0600 
    184 H184        0.6387   -9.7409  -46.0660 H         1 UNK         0.3000 
    185 H185       -1.5618  -10.8393  -48.6037 H         1 UNK         0.0600 
    186 H186       -1.6986   -8.3685  -48.9459 H         1 UNK         0.0600 
    187 H187        0.0034   -8.2014  -48.5320 H         1 UNK         0.0600 
    188 H188       -0.4748   -9.0829  -49.9836 H         1 UNK         0.0600 
    189 H189        1.2714  -10.3115  -48.4728 H         1 UNK         0.3000 
    190 H190        0.0835  -24.2514  -47.6129 H         1 UNK         0.3000 
    191 H191        0.5000  -26.7976  -48.9982 H         1 UNK         0.0600 
    192 H192       -1.9928  -25.1225  -49.6244 H         1 UNK         0.0600 
    193 H193       -0.6093  -25.2260  -50.7091 H         1 UNK         0.0600 
    194 H194       -1.5315  -26.6661  -50.3331 H         1 UNK         0.0600 
    195 H195       -2.4268  -27.3033  -48.6268 H         1 UNK         0.3000 
    196 H196       -2.3366  -28.1474  -45.8211 H         1 UNK         0.0600 
    197 H197       -3.0240  -29.7027  -47.6580 H         1 UNK         0.0600 
    198 H198       -4.3933  -28.6576  -48.0371 H         1 UNK         0.0600 
    199 H199       -4.3107  -29.4859  -46.4870 H         1 UNK         0.0600 
    200 H200       -2.9259  -25.2228  -46.8509 H         1 UNK         0.3000 
    201 H201       -4.0711  -23.4267  -46.3225 H         1 UNK         0.0600 
    202 H202       -5.0776  -23.2158  -44.0805 H         1 UNK         0.0600 
    203 H203       -3.5646  -24.1015  -43.9789 H         1 UNK         0.0600 
    204 H204       -5.1035  -24.9576  -43.8803 H         1 UNK         0.0600 
    205 H205       -5.4757  -25.7055  -47.8474 H         1 UNK         0.3000 
    206 H206       -8.2728  -25.4978  -47.5811 H         1 UNK         0.0600 
    207 H207       -7.1454  -27.3206  -48.8139 H         1 UNK         0.0600 
    208 H208       -6.5393  -26.1843  -50.0183 H         1 UNK         0.0600 
    209 H209       -8.2662  -26.4919  -49.8832 H         1 UNK         0.0600 
    210 H210       -9.2969  -23.5949  -47.5961 H         1 UNK         0.3000 
    211 H211      -10.0080  -21.5417  -48.0187 H         1 UNK         0.0600 
    212 H212      -10.8593  -22.4968  -50.1221 H         1 UNK         0.0600 
    213 H213      -10.3376  -20.8442  -50.4001 H         1 UNK         0.0600 
    214 H214       -9.3315  -22.1855  -50.9345 H         1 UNK         0.0600 
    215 H215       -7.5269  -21.7047  -46.9480 H         1 UNK         0.3000 
    216 H216       -5.7149  -20.6073  -46.3624 H         1 UNK         0.0600 
    217 H217       -5.4364  -18.2069  -46.7646 H         1 UNK         0.0600 
    218 H218       -6.6270  -18.2255  -48.0561 H         1 UNK         0.0600 
    219 H219       -7.1211  -18.5323  -46.3908 H         1 UNK         0.0600 
    220 H220       -5.7069  -22.3887  -48.5169 H         1 UNK         0.3000 
    221 H221       -4.3485  -23.4165  -49.9185 H         1 UNK         0.0600 
    222 H222       -1.9489  -22.8080  -50.1330 H         1 UNK         0.0600 
    223 H223       -2.2302  -21.3166  -49.2618 H         1 UNK         0.0600 
    224 H224       -2.4344  -22.8710  -48.4485 H         1 UNK         0.0600 
    225 H225       -6.2093  -22.3897  -51.1706 H         1 UNK         0.3000 
    226 H226       -5.8099  -20.2831  -53.0174 H         1 UNK         0.0600 
    227 H227       -8.0318  -21.0921  -52.4901 H         1 UNK         0.0600 
    228 H228       -7.7734  -21.3535  -54.2046 H         1 UNK         0.0600 
    229 H229       -7.6650  -22.7129  -53.0892 H         1 UNK         0.0600 
    230 H230       -4.7280  -23.6079  -53.1590 H         1 UNK         0.3000 
    231 H231       -4.0447  -23.6930  -55.9603 H         1 UNK         0.0600 
    232 H232       -2.8085  -25.7513  -55.2749 H         1 UNK         0.0600 
    233 H233       -4.4363  -25.7471  -54.6160 H         1 UNK         0.0600 
    234 H234       -3.0626  -25.3596  -53.5786 H         1 UNK         0.0600 
    235 H235       -2.4719  -22.3298  -53.1165 H         1 UNK         0.3000 
    236 H236        0.1759  -22.1377  -54.4358 H         1 UNK         0.0600 
    237 H237        0.1161  -22.7778  -52.0278 H         1 UNK         0.0600 
    238 H238        0.9216  -21.2357  -52.2683 H         1 UNK         0.0600 
    239 H239       -0.7121  -21.2739  -51.6309 H         1 UNK         0.0600 
    240 H240       -2.2646  -20.0011  -52.8812 H         1 UNK         0.3000 
    241 H241       -2.3190  -18.0736  -54.9243 H         1 UNK         0.0600 
    242 H242       -4.8128  -18.0147  -51.8105 H         1 UNK         0.3800 
    243 H243       -3.6486  -19.2982  -51.9724 H         1 UNK         0.3800 
    244 H244       -1.2130  -16.1038  -53.7457 H         1 UNK         0.0800 
    245 H245       -0.1363  -17.2834  -54.3957 H         1 UNK         0.0800 
    246 H246        1.6795  -18.3915  -53.1681 H         1 UNK         0.0800 
    247 H247        1.9980  -16.6810  -52.9751 H         1 UNK         0.0800 
@<TRIPOS>BOND
     1    1    2 1    
     2    1  127 1    
     3    1  128 1    
     4    1  129 1    
     5    2    3 2    
     6    2    4 am   BACKBONE|DICT|INTERRES
     7    4    5 1    
     8    4  130 1    
     9    5    6 1    
    10    5   65 1    
    11    5  131 1    
    12    6    7 1    
    13    6  132 1    
    14    6  133 1    
    15    7    8 1    
    16    8    9 1    
    17    8  134 1    
    18    8  135 1    
    19    9   10 ar   
    20    9   14 ar   
    21   10   11 ar   
    22   10  136 1    
    23   11   12 ar   
    24   11  126 1    
    25   12   13 ar   
    26   12  137 1    
    27   13   14 ar   
    28   13   15 1    
    29   14  138 1    
    30   15   16 1    
    31   15  139 1    
    32   15  140 1    
    33   16   17 1    
    34   17   18 1    
    35   17  141 1    
    36   17  142 1    
    37   18   19 1    
    38   18   67 1    
    39   18  143 1    
    40   19   20 am   BACKBONE|DICT|INTERRES
    41   19  144 1    
    42   20   21 2    
    43   20   22 1    
    44   22   23 1    
    45   22   24 1    
    46   22  145 1    
    47   23  146 1    
    48   23  147 1    
    49   23  148 1    
    50   24   25 am   BACKBONE|DICT|INTERRES
    51   24  149 1    
    52   25   26 2    
    53   25   27 1    
    54   27   28 1    
    55   27   29 1    
    56   27  150 1    
    57   28  151 1    
    58   28  152 1    
    59   28  153 1    
    60   29   30 am   BACKBONE|DICT|INTERRES
    61   29  154 1    
    62   30   31 2    
    63   30   32 1    
    64   32   33 1    
    65   32   34 1    
    66   32  155 1    
    67   33  156 1    
    68   33  157 1    
    69   33  158 1    
    70   34   35 am   BACKBONE|DICT|INTERRES
    71   34  159 1    
    72   35   36 2    
    73   35   37 1    
    74   37   38 1    
    75   37   39 1    
    76   37  160 1    
    77   38  161 1    
    78   38  162 1    
    79   38  163 1    
    80   39   40 am   BACKBONE|DICT|INTERRES
    81   39  164 1    
    82   40   41 2    
    83   40   42 1    
    84   42   43 1    
    85   42   44 1    
    86   42  165 1    
    87   43  166 1    
    88   43  167 1    
    89   43  168 1    
    90   44   45 am   BACKBONE|DICT|INTERRES
    91   44  169 1    
    92   45   46 2    
    93   45   47 1    
    94   47   48 1    
    95   47   49 1    
    96   47  170 1    
    97   48  171 1    
    98   48  172 1    
    99   48  173 1    
   100   49   50 am   BACKBONE|DICT|INTERRES
   101   49  174 1    
   102   50   51 2    
   103   50   52 1    
   104   52   53 1    
   105   52   54 1    
   106   52  175 1    
   107   53  176 1    
   108   53  177 1    
   109   53  178 1    
   110   54   55 am   BACKBONE|DICT|INTERRES
   111   54  179 1    
   112   55   56 2    
   113   55   57 1    
   114   57   58 1    
   115   57   59 1    
   116   57  180 1    
   117   58  181 1    
   118   58  182 1    
   119   58  183 1    
   120   59   60 am   BACKBONE|DICT|INTERRES
   121   59  184 1    
   122   60   61 2    
   123   60   62 1    
   124   62   63 1    
   125   62   64 1    
   126   62  185 1    
   127   63  186 1    
   128   63  187 1    
   129   63  188 1    
   130   64   65 am   BACKBONE|DICT|INTERRES
   131   64  189 1    
   132   65   66 2    
   133   67   68 2    
   134   67   69 am   BACKBONE|DICT|INTERRES
   135   69   70 1    
   136   69  190 1    
   137   70   71 1    
   138   70   72 1    
   139   70  191 1    
   140   71  192 1    
   141   71  193 1    
   142   71  194 1    
   143   72   73 2    
   144   72   74 am   BACKBONE|DICT|INTERRES
   145   74   75 1    
   146   74  195 1    
   147   75   76 1    
   148   75   77 1    
   149   75  196 1    
   150   76  197 1    
   151   76  198 1    
   152   76  199 1    
   153   77   78 2    
   154   77   79 am   BACKBONE|DICT|INTERRES
   155   79   80 1    
   156   79  200 1    
   157   80   81 1    
   158   80   82 1    
   159   80  201 1    
   160   81  202 1    
   161   81  203 1    
   162   81  204 1    
   163   82   83 2    
   164   82   84 am   BACKBONE|DICT|INTERRES
   165   84   85 1    
   166   84  205 1    
   167   85   86 1    
   168   85   87 1    
   169   85  206 1    
   170   86  207 1    
   171   86  208 1    
   172   86  209 1    
   173   87   88 2    
   174   87   89 am   BACKBONE|DICT|INTERRES
   175   89   90 1    
   176   89  210 1    
   177   90   91 1    
   178   90   92 1    
   179   90  211 1    
   180   91  212 1    
   181   91  213 1    
   182   91  214 1    
   183   92   93 2    
   184   92   94 am   BACKBONE|DICT|INTERRES
   185   94   95 1    
   186   94  215 1    
   187   95   96 1    
   188   95   97 1    
   189   95  216 1    
   190   96  217 1    
   191   96  218 1    
   192   96  219 1    
   193   97   98 2    
   194   97   99 am   BACKBONE|DICT|INTERRES
   195   99  100 1    
   196   99  220 1    
   197  100  101 1    
   198  100  102 1    
   199  100  221 1    
   200  101  222 1    
   201  101  223 1    
   202  101  224 1    
   203  102  103 2    
   204  102  104 am   BACKBONE|DICT|INTERRES
   205  104  105 1    
   206  104  225 1    
   207  105  106 1    
   208  105  107 1    
   209  105  226 1    
   210  106  227 1    
   211  106  228 1    
   212  106  229 1    
   213  107  108 2    
   214  107  109 am   BACKBONE|DICT|INTERRES
   215  109  110 1    
   216  109  230 1    
   217  110  111 1    
   218  110  112 1    
   219  110  231 1    
   220  111  232 1    
   221  111  233 1    
   222  111  234 1    
   223  112  113 2    
   224  112  114 am   BACKBONE|DICT|INTERRES
   225  114  115 1    
   226  114  235 1    
   227  115  116 1    
   228  115  117 1    
   229  115  236 1    
   230  116  237 1    
   231  116  238 1    
   232  116  239 1    
   233  117  118 2    
   234  117  119 am   BACKBONE|DICT|INTERRES
   235  119  120 1    
   236  119  240 1    
   237  120  121 1    
   238  120  124 1    
   239  120  241 1    
   240  121  122 am   BACKBONE|DICT|INTERRES
   241  121  123 2    
   242  122  242 1    
   243  122  243 1    
   244  124  125 1    
   245  124  244 1    
   246  124  245 1    
   247  125  126 1    
   248  126  246 1    
   249  126  247 1    
@<TRIPOS>SUBSTRUCTURE
     1 UNK         1 GROUP             0       ****    0 ROOT    
