@<TRIPOS>MOLECULE
3R540
247   249    1
SMALL
USER_CHARGES


@<TRIPOS>ATOM
      1 CA         -0.2622   -9.9489  -44.8084 C.3       0 UNK        -0.1800 
      2 C           0.1140   -9.0247  -45.9625 C.2       0 UNK         0.5000 
      3 O          -0.0419   -7.8124  -45.8314 O.2       0 UNK        -0.5000 
      4 N           0.6034   -9.5217  -47.1085 N.am      1 UNK        -0.5000 
      5 CA          0.9023  -10.9141  -47.4716 C.3       1 UNK         0.1400 
      6 C6         -0.3616  -11.8061  -47.6530 C.3       23 UNK        -0.0398 
      7 S7         -0.2092  -12.8877  -49.1145 S.3       23 UNK        -0.2404 
      8 C8         -0.0536  -14.5425  -48.3715 C.3       23 UNK        -0.0205 
      9 C9          0.3751  -15.5581  -49.4213 C.ar      23 UNK        -0.0193 
     10 C10        -0.5215  -15.9699  -50.4140 C.ar      23 UNK        -0.1150 
     11 C11        -0.1167  -16.8582  -51.4164 C.ar      23 UNK        -0.0193 
     12 C12         1.1903  -17.3493  -51.4065 C.ar      23 UNK        -0.1150 
     13 C13         2.0827  -16.9802  -50.3967 C.ar      23 UNK        -0.0193 
     14 C14         1.6752  -16.0726  -49.4151 C.ar      23 UNK        -0.1150 
     15 C15         3.4791  -17.5846  -50.3608 C.3       23 UNK        -0.0205 
     16 S16         3.6461  -18.8561  -49.0640 S.3       23 UNK        -0.2404 
     17 C17         2.1556  -19.8780  -49.3419 C.3       23 UNK        -0.0398 
     18 CA          2.2645  -21.3049  -48.7538 C.3       11 UNK         0.1400 
     19 N           2.5539  -21.2858  -47.3142 N.am      11 UNK        -0.5000 
     20 C           3.1953  -22.2523  -46.6470 C.2       10 UNK         0.5000 
     21 O           3.6142  -23.2840  -47.1729 O.2       10 UNK        -0.5000 
     22 CA          3.3871  -22.0379  -45.1342 C.3       10 UNK         0.1400 
     23 CB          4.5322  -21.0480  -44.8707 C.3       10 UNK        -0.1800 
     24 N           2.1768  -21.5799  -44.4461 N.am      10 UNK        -0.5000 
     25 C           1.0533  -22.2999  -44.3085 C.2       9 UNK         0.5000 
     26 O           0.8935  -23.4184  -44.7968 O.2       9 UNK        -0.5000 
     27 CA         -0.0939  -21.6559  -43.5072 C.3       9 UNK         0.1400 
     28 CB          0.1974  -21.6846  -41.9991 C.3       9 UNK        -0.1800 
     29 N          -0.3509  -20.2832  -43.9349 N.am      9 UNK        -0.5000 
     30 C          -0.9107  -19.9614  -45.1076 C.2       8 UNK         0.5000 
     31 O          -1.3800  -20.7913  -45.8843 O.2       8 UNK        -0.5000 
     32 CA         -0.9250  -18.4744  -45.5036 C.3       8 UNK         0.1400 
     33 CB         -2.2158  -17.7950  -45.0261 C.3       8 UNK        -0.1800 
     34 N           0.2349  -17.7337  -45.0126 N.am      8 UNK        -0.5000 
     35 C           1.5002  -17.9782  -45.3780 C.2       7 UNK         0.5000 
     36 O           1.8186  -18.8435  -46.1896 O.2       7 UNK        -0.5000 
     37 CA          2.5950  -17.1706  -44.6649 C.3       7 UNK         0.1400 
     38 CB          2.7439  -15.7740  -45.2841 C.3       7 UNK        -0.1800 
     39 N           2.3299  -17.0656  -43.2293 N.am      7 UNK        -0.5000 
     40 C           2.4193  -18.0976  -42.3772 C.2       6 UNK         0.5000 
     41 O           2.7899  -19.2235  -42.7086 O.2       6 UNK        -0.5000 
     42 CA          1.9706  -17.8477  -40.9264 C.3       6 UNK         0.1400 
     43 CB          3.1231  -17.2960  -40.0774 C.3       6 UNK        -0.1800 
     44 N           0.8255  -16.9407  -40.8483 N.am      6 UNK        -0.5000 
     45 C          -0.4179  -17.2831  -41.2142 C.2       5 UNK         0.5000 
     46 O          -0.7233  -18.4037  -41.6207 O.2       5 UNK        -0.5000 
     47 CA         -1.4910  -16.1794  -41.1617 C.3       5 UNK         0.1400 
     48 CB         -2.1293  -16.1132  -39.7665 C.3       5 UNK        -0.1800 
     49 N          -0.9857  -14.8537  -41.5259 N.am      5 UNK        -0.5000 
     50 C          -0.4347  -14.5403  -42.7062 C.2       4 UNK         0.5000 
     51 O          -0.2855  -15.3502  -43.6196 O.2       4 UNK        -0.5000 
     52 CA          0.0533  -13.0964  -42.9114 C.3       4 UNK         0.1400 
     53 CB         -0.4718  -12.0951  -41.8568 C.3       4 UNK        -0.1800 
     54 N           1.5133  -13.0291  -43.0111 N.am      4 UNK        -0.5000 
     55 C           2.4101  -13.3563  -42.0676 C.2       3 UNK         0.5000 
     56 O           2.1007  -13.8686  -40.9905 O.2       3 UNK        -0.5000 
     57 CA          3.9021  -13.0744  -42.3606 C.3       3 UNK         0.1400 
     58 CB          4.7849  -14.2938  -42.0470 C.3       3 UNK        -0.1800 
     59 N           4.1701  -12.6451  -43.7346 N.am      3 UNK        -0.5000 
     60 C           4.0087  -11.4048  -44.2126 C.2       2 UNK         0.5000 
     61 O           3.6021  -10.4590  -43.5364 O.2       2 UNK        -0.5000 
     62 CA          4.3289  -11.1807  -45.7063 C.3       2 UNK         0.1400 
     63 CB          5.0553  -12.3667  -46.3833 C.3       2 UNK        -0.1800 
     64 N           3.1318  -10.8207  -46.4725 N.am      2 UNK        -0.5000 
     65 C           1.9975  -11.5298  -46.5743 C.2       1 UNK         0.5000 
     66 O           1.7929  -12.5834  -45.9700 O.2       1 UNK        -0.5000 
     67 C           0.9869  -22.1122  -49.0793 C.2       11 UNK         0.5000 
     68 O           0.6915  -22.3198  -50.2564 O.2       11 UNK        -0.5000 
     69 N           0.2514  -22.5336  -48.0391 N.am      12 UNK        -0.5000 
     70 CA         -0.9989  -23.2973  -48.0654 C.3       12 UNK         0.1400 
     71 CB         -0.7953  -24.6823  -48.7107 C.3       12 UNK        -0.1800 
     72 C          -2.1995  -22.5238  -48.6503 C.2       12 UNK         0.5000 
     73 O          -3.2032  -23.1359  -49.0101 O.2       12 UNK        -0.5000 
     74 N          -2.1271  -21.1852  -48.6471 N.am      13 UNK        -0.5000 
     75 CA         -3.2200  -20.2751  -49.0039 C.3       13 UNK         0.1400 
     76 CB         -2.7065  -18.8263  -48.9684 C.3       13 UNK        -0.1800 
     77 C          -4.4510  -20.4153  -48.0825 C.2       13 UNK         0.5000 
     78 O          -5.5613  -20.0820  -48.4938 O.2       13 UNK        -0.5000 
     79 N          -4.2296  -20.9097  -46.8570 N.am      14 UNK        -0.5000 
     80 CA         -5.2594  -21.2205  -45.8682 C.3       14 UNK         0.1400 
     81 CB         -4.5882  -21.2953  -44.4865 C.3       14 UNK        -0.1800 
     82 C          -6.0426  -22.5209  -46.1607 C.2       14 UNK         0.5000 
     83 O          -7.0728  -22.7455  -45.5229 O.2       14 UNK        -0.5000 
     84 N          -5.5486  -23.3691  -47.0757 N.am      15 UNK        -0.5000 
     85 CA         -6.1650  -24.6478  -47.4411 C.3       15 UNK         0.1400 
     86 CB         -5.0935  -25.5485  -48.0788 C.3       15 UNK        -0.1800 
     87 C          -7.3678  -24.4792  -48.3922 C.2       15 UNK         0.5000 
     88 O          -7.6548  -23.3726  -48.8567 O.2       15 UNK        -0.5000 
     89 N          -8.0377  -25.6013  -48.6933 N.am      16 UNK        -0.5000 
     90 CA         -9.1231  -25.7014  -49.6730 C.3       16 UNK         0.1400 
     91 CB         -9.6526  -27.1429  -49.6967 C.3       16 UNK        -0.1800 
     92 C          -8.6594  -25.2700  -51.0773 C.2       16 UNK         0.5000 
     93 O          -7.5871  -25.6916  -51.5199 O.2       16 UNK        -0.5000 
     94 N          -9.4426  -24.3882  -51.7171 N.am      17 UNK        -0.5000 
     95 CA         -9.1519  -23.7083  -52.9907 C.3       17 UNK         0.1400 
     96 CB         -9.1809  -24.7153  -54.1598 C.3       17 UNK        -0.1800 
     97 C          -7.8440  -22.8817  -52.9658 C.2       17 UNK         0.5000 
     98 O          -7.2405  -22.6514  -54.0166 O.2       17 UNK        -0.5000 
     99 N          -7.3991  -22.5015  -51.7571 N.am      18 UNK        -0.5000 
    100 CA        -6.1040  -21.8995  -51.4370 C.3       18 UNK         0.1400 
    101 CB        -6.0364  -20.4523  -51.9714 C.3       18 UNK        -0.1800 
    102 C         -4.9122  -22.7690  -51.8891 C.2       18 UNK         0.5000 
    103 O         -3.8892  -22.2171  -52.2823 O.2       18 UNK        -0.5000 
    104 N         -5.0797  -24.1029  -51.8811 N.am      19 UNK        -0.5000 
    105 CA        -4.1581  -25.1031  -52.4351 C.3       19 UNK         0.1400 
    106 CB        -2.8441  -25.1689  -51.6319 C.3       19 UNK        -0.1800 
    107 C         -3.9303  -24.8965  -53.9466 C.2       19 UNK         0.5000 
    108 O         -2.7876  -24.8440  -54.4069 O.2       19 UNK        -0.5000 
    109 N         -5.0449  -24.7444  -54.6779 N.am      20 UNK        -0.5000 
    110 CA        -5.1327  -24.4527  -56.1121 C.3       20 UNK         0.1400 
    111 CB        -4.6523  -25.6602  -56.9440 C.3       20 UNK        -0.1800 
    112 C         -4.4186  -23.1348  -56.4767 C.2       20 UNK         0.5000 
    113 O         -3.5946  -23.1072  -57.3928 O.2       20 UNK        -0.5000 
    114 N         -4.7468  -22.0752  -55.7225 N.am      21 UNK        -0.5000 
    115 CA        -4.1555  -20.7340  -55.7825 C.3       21 UNK         0.1400 
    116 CB        -4.4992  -20.0373  -57.1162 C.3       21 UNK        -0.1800 
    117 C         -2.6442  -20.7357  -55.4621 C.2       21 UNK         0.5000 
    118 O         -1.8382  -20.2085  -56.2319 O.2       21 UNK        -0.5000 
    119 N         -2.3069  -21.3149  -54.3053 N.am      22 UNK        -0.5000 
    120 CA        -0.9782  -21.3490  -53.6776 C.3       22 UNK         0.1400 
    121 C          0.0583  -22.2092  -54.4569 C.2       22 UNK         0.5000 
    122 N         -0.3370  -23.3535  -55.0023 N.am      22 UNK        -0.7600 
    123 O          1.2292  -21.8539  -54.5676 O.2       22 UNK        -0.5000 
    124 C124       -0.4532  -19.9387  -53.2814 C.3       23 UNK        -0.0398 
    125 S125       -1.6732  -18.9785  -52.3132 S.3       23 UNK        -0.2404 
    126 C126       -1.0807  -17.2694  -52.5210 C.3       23 UNK        -0.0205 
    127 H127       -0.9077  -10.7598  -45.1393 H         1 UNK         0.0600 
    128 H128       -0.8045   -9.3956  -44.0415 H         1 UNK         0.0600 
    129 H129        0.6309  -10.3651  -44.3435 H         1 UNK         0.0600 
    130 H130        0.8260   -8.8555  -47.8352 H         1 UNK         0.3000 
    131 H131        1.3747  -10.8152  -48.4504 H         1 UNK         0.0600 
    132 H132       -1.2375  -11.1798  -47.8274 H         1 UNK         0.0800 
    133 H133       -0.5993  -12.3958  -46.7665 H         1 UNK         0.0800 
    134 H134        0.6683  -14.5112  -47.5537 H         1 UNK         0.0800 
    135 H135       -1.0075  -14.8413  -47.9346 H         1 UNK         0.0800 
    136 H136       -1.5279  -15.5754  -50.4183 H         1 UNK         0.1150 
    137 H137        1.5092  -18.0341  -52.1784 H         1 UNK         0.1150 
    138 H138        2.3715  -15.7733  -48.6453 H         1 UNK         0.1150 
    139 H139        3.7307  -18.0276  -51.3256 H         1 UNK         0.0800 
    140 H140        4.2136  -16.7976  -50.1849 H         1 UNK         0.0800 
    141 H141        1.2990  -19.3520  -48.9153 H         1 UNK         0.0800 
    142 H142        1.9799  -19.9345  -50.4175 H         1 UNK         0.0800 
    143 H143        3.0888  -21.8071  -49.2646 H         1 UNK         0.0600 
    144 H144        2.2784  -20.4374  -46.8186 H         1 UNK         0.3000 
    145 H145        3.6687  -22.9992  -44.6995 H         1 UNK         0.0600 
    146 H146        4.7425  -20.9632  -43.8045 H         1 UNK         0.0600 
    147 H147        4.2962  -20.0516  -45.2455 H         1 UNK         0.0600 
    148 H148        5.4516  -21.3736  -45.3587 H         1 UNK         0.0600 
    149 H149        2.2364  -20.6741  -43.9917 H         1 UNK         0.3000 
    150 H150       -0.9971  -22.2442  -43.6835 H         1 UNK         0.0600 
    151 H151        1.0784  -21.0960  -41.7436 H         1 UNK         0.0600 
    152 H152       -0.6438  -21.2889  -41.4297 H         1 UNK         0.0600 
    153 H153        0.3726  -22.7046  -41.6552 H         1 UNK         0.0600 
    154 H154       -0.0661  -19.5415  -43.3068 H         1 UNK         0.3000 
    155 H155       -0.8895  -18.4281  -46.5924 H         1 UNK         0.0600 
    156 H156       -3.0956  -18.3002  -45.4265 H         1 UNK         0.0600 
    157 H157       -2.2589  -16.7561  -45.3535 H         1 UNK         0.0600 
    158 H158       -2.2959  -17.8080  -43.9391 H         1 UNK         0.0600 
    159 H159        0.0507  -16.9599  -44.3769 H         1 UNK         0.3000 
    160 H160        3.5412  -17.6984  -44.8011 H         1 UNK         0.0600 
    161 H161        1.8385  -15.1784  -45.1721 H         1 UNK         0.0600 
    162 H162        2.9577  -15.8439  -46.3505 H         1 UNK         0.0600 
    163 H163        3.5666  -15.2271  -44.8286 H         1 UNK         0.0600 
    164 H164        1.9371  -16.1967  -42.8988 H         1 UNK         0.3000 
    165 H165        1.6768  -18.8111  -40.5037 H         1 UNK         0.0600 
    166 H166        2.8411  -17.2329  -39.0263 H         1 UNK         0.0600 
    167 H167        4.0016  -17.9393  -40.1413 H         1 UNK         0.0600 
    168 H168        3.4178  -16.3001  -40.4028 H         1 UNK         0.0600 
    169 H169        1.0082  -15.9883  -40.5587 H         1 UNK         0.3000 
    170 H170       -2.2695  -16.4439  -41.8797 H         1 UNK         0.0600 
    171 H171       -2.5337  -17.0838  -39.4760 H         1 UNK         0.0600 
    172 H172       -1.4055  -15.8178  -39.0059 H         1 UNK         0.0600 
    173 H173       -2.9529  -15.3994  -39.7426 H         1 UNK         0.0600 
    174 H174       -1.0456  -14.1353  -40.8191 H         1 UNK         0.3000 
    175 H175       -0.3332  -12.7882  -43.8832 H         1 UNK         0.0600 
    176 H176       -0.1256  -12.3289  -40.8496 H         1 UNK         0.0600 
    177 H177       -0.1419  -11.0817  -42.0827 H         1 UNK         0.0600 
    178 H178       -1.5623  -12.0799  -41.8394 H         1 UNK         0.0600 
    179 H179        1.8632  -12.7159  -43.9103 H         1 UNK         0.3000 
    180 H180        4.2042  -12.2693  -41.6878 H         1 UNK         0.0600 
    181 H181        4.7602  -14.5247  -40.9821 H         1 UNK         0.0600 
    182 H182        5.8274  -14.1044  -42.3035 H         1 UNK         0.0600 
    183 H183        4.4626  -15.1831  -42.5883 H         1 UNK         0.0600 
    184 H184        4.4821  -13.3602  -44.3745 H         1 UNK         0.3000 
    185 H185        4.9971  -10.3193  -45.7468 H         1 UNK         0.0600 
    186 H186        5.9779  -12.6175  -45.8582 H         1 UNK         0.0600 
    187 H187        4.4373  -13.2643  -46.4252 H         1 UNK         0.0600 
    188 H188        5.3321  -12.1154  -47.4072 H         1 UNK         0.0600 
    189 H189        3.1774   -9.9324  -46.9519 H         1 UNK         0.3000 
    190 H190        0.5870  -22.3002  -47.1144 H         1 UNK         0.3000 
    191 H191       -1.2517  -23.4686  -47.0181 H         1 UNK         0.0600 
    192 H192       -1.6775  -25.3088  -48.5767 H         1 UNK         0.0600 
    193 H193        0.0444  -25.2080  -48.2564 H         1 UNK         0.0600 
    194 H194       -0.6048  -24.6071  -49.7812 H         1 UNK         0.0600 
    195 H195       -1.3005  -20.7686  -48.2453 H         1 UNK         0.3000 
    196 H196       -3.5188  -20.5172  -50.0245 H         1 UNK         0.0600 
    197 H197       -3.3623  -18.1753  -49.5475 H         1 UNK         0.0600 
    198 H198       -1.7048  -18.7367  -49.3887 H         1 UNK         0.0600 
    199 H199       -2.6792  -18.4296  -47.9550 H         1 UNK         0.0600 
    200 H200       -3.2703  -21.1073  -46.5909 H         1 UNK         0.3000 
    201 H201       -5.9823  -20.4024  -45.8527 H         1 UNK         0.0600 
    202 H202       -5.3191  -21.5039  -43.7042 H         1 UNK         0.0600 
    203 H203       -4.1023  -20.3536  -44.2311 H         1 UNK         0.0600 
    204 H204       -3.8326  -22.0812  -44.4495 H         1 UNK         0.0600 
    205 H205       -4.7301  -23.1014  -47.6106 H         1 UNK         0.3000 
    206 H206       -6.5208  -25.1325  -46.5295 H         1 UNK         0.0600 
    207 H207       -4.8224  -25.1977  -49.0742 H         1 UNK         0.0600 
    208 H208       -4.1865  -25.5812  -47.4748 H         1 UNK         0.0600 
    209 H209       -5.4477  -26.5744  -48.1833 H         1 UNK         0.0600 
    210 H210       -7.7250  -26.4731  -48.2924 H         1 UNK         0.3000 
    211 H211       -9.9287  -25.0419  -49.3440 H         1 UNK         0.0600 
    212 H212       -8.8778  -27.8512  -49.9935 H         1 UNK         0.0600 
    213 H213      -10.4774  -27.2439  -50.4033 H         1 UNK         0.0600 
    214 H214      -10.0260  -27.4433  -48.7175 H         1 UNK         0.0600 
    215 H215      -10.2953  -24.0927  -51.2613 H         1 UNK         0.3000 
    216 H216       -9.9583  -22.9912  -53.1497 H         1 UNK         0.0600 
    217 H217      -10.1126  -25.2808  -54.1688 H         1 UNK         0.0600 
    218 H218       -8.3576  -25.4280  -54.1039 H         1 UNK         0.0600 
    219 H219       -9.1053  -24.2046  -55.1205 H         1 UNK         0.0600 
    220 H220       -7.9438  -22.7670  -50.9449 H         1 UNK         0.3000 
    221 H221       -6.0427  -21.8596  -50.3505 H         1 UNK         0.0600 
    222 H222       -5.1119  -19.9587  -51.6716 H         1 UNK         0.0600 
    223 H223       -6.0852  -20.4181  -53.0592 H         1 UNK         0.0600 
    224 H224       -6.8591  -19.8539  -51.5805 H         1 UNK         0.0600 
    225 H225       -5.9744  -24.4723  -51.5756 H         1 UNK         0.3000 
    226 H226       -4.6540  -26.0690  -52.3297 H         1 UNK         0.0600 
    227 H227       -3.0389  -25.3961  -50.5857 H         1 UNK         0.0600 
    228 H228       -2.1894  -25.9529  -52.0135 H         1 UNK         0.0600 
    229 H229       -2.2894  -24.2311  -51.6745 H         1 UNK         0.0600 
    230 H230       -5.9268  -24.7359  -54.1851 H         1 UNK         0.3000 
    231 H231       -6.1904  -24.3003  -56.3323 H         1 UNK         0.0600 
    232 H232       -4.8138  -25.4884  -58.0087 H         1 UNK         0.0600 
    233 H233       -5.1973  -26.5651  -56.6754 H         1 UNK         0.0600 
    234 H234       -3.5888  -25.8549  -56.8024 H         1 UNK         0.0600 
    235 H235       -5.4526  -22.2150  -55.0062 H         1 UNK         0.3000 
    236 H236       -4.6299  -20.1573  -54.9877 H         1 UNK         0.0600 
    237 H237       -5.5753  -20.0260  -57.2886 H         1 UNK         0.0600 
    238 H238       -4.1608  -19.0006  -57.1105 H         1 UNK         0.0600 
    239 H239       -4.0277  -20.5283  -57.9678 H         1 UNK         0.0600 
    240 H240       -3.0396  -21.7090  -53.7162 H         1 UNK         0.3000 
    241 H241       -1.1233  -21.8901  -52.7414 H         1 UNK         0.0600 
    242 H242       -1.2846  -23.6990  -54.8729 H         1 UNK         0.3800 
    243 H243        0.3280  -23.9144  -55.5093 H         1 UNK         0.3800 
    244 H244       -0.1761  -19.3761  -54.1738 H         1 UNK         0.0800 
    245 H245        0.4513  -20.0388  -52.6806 H         1 UNK         0.0800 
    246 H246       -1.9476  -16.6072  -52.5246 H         1 UNK         0.0800 
    247 H247       -0.6060  -17.1462  -53.4952 H         1 UNK         0.0800 
@<TRIPOS>BOND
     1    1    2 1    
     2    1  127 1    
     3    1  128 1    
     4    1  129 1    
     5    2    3 2    
     6    2    4 am   BACKBONE|DICT|INTERRES
     7    4    5 1    
     8    4  130 1    
     9    5    6 1    
    10    5   65 1    
    11    5  131 1    
    12    6    7 1    
    13    6  132 1    
    14    6  133 1    
    15    7    8 1    
    16    8    9 1    
    17    8  134 1    
    18    8  135 1    
    19    9   10 ar   
    20    9   14 ar   
    21   10   11 ar   
    22   10  136 1    
    23   11   12 ar   
    24   11  126 1    
    25   12   13 ar   
    26   12  137 1    
    27   13   14 ar   
    28   13   15 1    
    29   14  138 1    
    30   15   16 1    
    31   15  139 1    
    32   15  140 1    
    33   16   17 1    
    34   17   18 1    
    35   17  141 1    
    36   17  142 1    
    37   18   19 1    
    38   18   67 1    
    39   18  143 1    
    40   19   20 am   BACKBONE|DICT|INTERRES
    41   19  144 1    
    42   20   21 2    
    43   20   22 1    
    44   22   23 1    
    45   22   24 1    
    46   22  145 1    
    47   23  146 1    
    48   23  147 1    
    49   23  148 1    
    50   24   25 am   BACKBONE|DICT|INTERRES
    51   24  149 1    
    52   25   26 2    
    53   25   27 1    
    54   27   28 1    
    55   27   29 1    
    56   27  150 1    
    57   28  151 1    
    58   28  152 1    
    59   28  153 1    
    60   29   30 am   BACKBONE|DICT|INTERRES
    61   29  154 1    
    62   30   31 2    
    63   30   32 1    
    64   32   33 1    
    65   32   34 1    
    66   32  155 1    
    67   33  156 1    
    68   33  157 1    
    69   33  158 1    
    70   34   35 am   BACKBONE|DICT|INTERRES
    71   34  159 1    
    72   35   36 2    
    73   35   37 1    
    74   37   38 1    
    75   37   39 1    
    76   37  160 1    
    77   38  161 1    
    78   38  162 1    
    79   38  163 1    
    80   39   40 am   BACKBONE|DICT|INTERRES
    81   39  164 1    
    82   40   41 2    
    83   40   42 1    
    84   42   43 1    
    85   42   44 1    
    86   42  165 1    
    87   43  166 1    
    88   43  167 1    
    89   43  168 1    
    90   44   45 am   BACKBONE|DICT|INTERRES
    91   44  169 1    
    92   45   46 2    
    93   45   47 1    
    94   47   48 1    
    95   47   49 1    
    96   47  170 1    
    97   48  171 1    
    98   48  172 1    
    99   48  173 1    
   100   49   50 am   BACKBONE|DICT|INTERRES
   101   49  174 1    
   102   50   51 2    
   103   50   52 1    
   104   52   53 1    
   105   52   54 1    
   106   52  175 1    
   107   53  176 1    
   108   53  177 1    
   109   53  178 1    
   110   54   55 am   BACKBONE|DICT|INTERRES
   111   54  179 1    
   112   55   56 2    
   113   55   57 1    
   114   57   58 1    
   115   57   59 1    
   116   57  180 1    
   117   58  181 1    
   118   58  182 1    
   119   58  183 1    
   120   59   60 am   BACKBONE|DICT|INTERRES
   121   59  184 1    
   122   60   61 2    
   123   60   62 1    
   124   62   63 1    
   125   62   64 1    
   126   62  185 1    
   127   63  186 1    
   128   63  187 1    
   129   63  188 1    
   130   64   65 am   BACKBONE|DICT|INTERRES
   131   64  189 1    
   132   65   66 2    
   133   67   68 2    
   134   67   69 am   BACKBONE|DICT|INTERRES
   135   69   70 1    
   136   69  190 1    
   137   70   71 1    
   138   70   72 1    
   139   70  191 1    
   140   71  192 1    
   141   71  193 1    
   142   71  194 1    
   143   72   73 2    
   144   72   74 am   BACKBONE|DICT|INTERRES
   145   74   75 1    
   146   74  195 1    
   147   75   76 1    
   148   75   77 1    
   149   75  196 1    
   150   76  197 1    
   151   76  198 1    
   152   76  199 1    
   153   77   78 2    
   154   77   79 am   BACKBONE|DICT|INTERRES
   155   79   80 1    
   156   79  200 1    
   157   80   81 1    
   158   80   82 1    
   159   80  201 1    
   160   81  202 1    
   161   81  203 1    
   162   81  204 1    
   163   82   83 2    
   164   82   84 am   BACKBONE|DICT|INTERRES
   165   84   85 1    
   166   84  205 1    
   167   85   86 1    
   168   85   87 1    
   169   85  206 1    
   170   86  207 1    
   171   86  208 1    
   172   86  209 1    
   173   87   88 2    
   174   87   89 am   BACKBONE|DICT|INTERRES
   175   89   90 1    
   176   89  210 1    
   177   90   91 1    
   178   90   92 1    
   179   90  211 1    
   180   91  212 1    
   181   91  213 1    
   182   91  214 1    
   183   92   93 2    
   184   92   94 am   BACKBONE|DICT|INTERRES
   185   94   95 1    
   186   94  215 1    
   187   95   96 1    
   188   95   97 1    
   189   95  216 1    
   190   96  217 1    
   191   96  218 1    
   192   96  219 1    
   193   97   98 2    
   194   97   99 am   BACKBONE|DICT|INTERRES
   195   99  100 1    
   196   99  220 1    
   197  100  101 1    
   198  100  102 1    
   199  100  221 1    
   200  101  222 1    
   201  101  223 1    
   202  101  224 1    
   203  102  103 2    
   204  102  104 am   BACKBONE|DICT|INTERRES
   205  104  105 1    
   206  104  225 1    
   207  105  106 1    
   208  105  107 1    
   209  105  226 1    
   210  106  227 1    
   211  106  228 1    
   212  106  229 1    
   213  107  108 2    
   214  107  109 am   BACKBONE|DICT|INTERRES
   215  109  110 1    
   216  109  230 1    
   217  110  111 1    
   218  110  112 1    
   219  110  231 1    
   220  111  232 1    
   221  111  233 1    
   222  111  234 1    
   223  112  113 2    
   224  112  114 am   BACKBONE|DICT|INTERRES
   225  114  115 1    
   226  114  235 1    
   227  115  116 1    
   228  115  117 1    
   229  115  236 1    
   230  116  237 1    
   231  116  238 1    
   232  116  239 1    
   233  117  118 2    
   234  117  119 am   BACKBONE|DICT|INTERRES
   235  119  120 1    
   236  119  240 1    
   237  120  121 1    
   238  120  124 1    
   239  120  241 1    
   240  121  122 am   BACKBONE|DICT|INTERRES
   241  121  123 2    
   242  122  242 1    
   243  122  243 1    
   244  124  125 1    
   245  124  244 1    
   246  124  245 1    
   247  125  126 1    
   248  126  246 1    
   249  126  247 1    
@<TRIPOS>SUBSTRUCTURE
     1 UNK         1 GROUP             0       ****    0 ROOT    
