@<TRIPOS>MOLECULE
3R540
247   249    1
SMALL
USER_CHARGES


@<TRIPOS>ATOM
      1 CA         -3.1415  -15.1549  -53.6041 C.3       0 UNK        -0.1800 
      2 C          -2.0919  -14.2574  -52.9687 C.2       0 UNK         0.5000 
      3 O          -1.9565  -13.0985  -53.3633 O.2       0 UNK        -0.5000 
      4 N          -1.3454  -14.7944  -51.9973 N.am      1 UNK        -0.5000 
      5 CA         -0.3351  -14.0709  -51.2230 C.3       1 UNK         0.1400 
      6 C6          0.7860  -15.0310  -50.7428 C.3       23 UNK        -0.0398 
      7 S7          2.4150  -14.2087  -50.7159 S.3       23 UNK        -0.2404 
      8 C8          3.3373  -15.2698  -49.5546 C.3       23 UNK        -0.0205 
      9 C9          3.4745  -16.7263  -49.9954 C.ar      23 UNK        -0.0193 
     10 C10         3.5970  -17.0884  -51.3440 C.ar      23 UNK        -0.1150 
     11 C11         3.7057  -18.4320  -51.7144 C.ar      23 UNK        -0.0193 
     12 C12         3.7245  -19.4191  -50.7266 C.ar      23 UNK        -0.1150 
     13 C13         3.6358  -19.0700  -49.3783 C.ar      23 UNK        -0.0193 
     14 C14         3.5044  -17.7262  -49.0197 C.ar      23 UNK        -0.1150 
     15 C15         3.6799  -20.1403  -48.3047 C.3       23 UNK        -0.0205 
     16 S16         2.0017  -20.5405  -47.7448 S.3       23 UNK        -0.2404 
     17 C17         1.8318  -22.2935  -48.2097 C.3       23 UNK        -0.0398 
     18 CA          0.7834  -23.0488  -47.3589 C.3       11 UNK         0.1400 
     19 N           0.9841  -22.8643  -45.9198 N.am      11 UNK        -0.5000 
     20 C           0.4746  -23.6574  -44.9716 C.2       10 UNK         0.5000 
     21 O          -0.2008  -24.6525  -45.2330 O.2       10 UNK        -0.5000 
     22 CA          0.6881  -23.2537  -43.4984 C.3       10 UNK         0.1400 
     23 CB          1.0806  -24.4552  -42.6159 C.3       10 UNK        -0.1800 
     24 N           1.5995  -22.1211  -43.2977 N.am      10 UNK        -0.5000 
     25 C           2.9247  -22.0634  -43.4976 C.2       9 UNK         0.5000 
     26 O           3.5979  -23.0074  -43.9111 O.2       9 UNK        -0.5000 
     27 CA          3.6199  -20.7161  -43.2060 C.3       9 UNK         0.1400 
     28 CB          4.0504  -20.0408  -44.5160 C.3       9 UNK        -0.1800 
     29 N           2.7851  -19.7771  -42.4535 N.am      9 UNK        -0.5000 
     30 C           2.5100  -19.8667  -41.1456 C.2       8 UNK         0.5000 
     31 O           2.9940  -20.7194  -40.4008 O.2       8 UNK        -0.5000 
     32 CA          1.4857  -18.8590  -40.5890 C.3       8 UNK         0.1400 
     33 CB          2.1655  -17.5288  -40.2314 C.3       8 UNK        -0.1800 
     34 N           0.3707  -18.6123  -41.5091 N.am      8 UNK        -0.5000 
     35 C          -0.5281  -19.5383  -41.8768 C.2       7 UNK         0.5000 
     36 O          -0.5240  -20.6962  -41.4609 O.2       7 UNK        -0.5000 
     37 CA         -1.5842  -19.1211  -42.9128 C.3       7 UNK         0.1400 
     38 CB         -2.7251  -18.3406  -42.2445 C.3       7 UNK        -0.1800 
     39 N          -1.0050  -18.3330  -44.0001 N.am      7 UNK        -0.5000 
     40 C          -0.1964  -18.8291  -44.9468 C.2       6 UNK         0.5000 
     41 O           0.0435  -20.0319  -45.0656 O.2       6 UNK        -0.5000 
     42 CA          0.4747  -17.8210  -45.9022 C.3       6 UNK         0.1400 
     43 CB         -0.3684  -17.5823  -47.1623 C.3       6 UNK        -0.1800 
     44 N           0.7709  -16.5384  -45.2696 N.am      6 UNK        -0.5000 
     45 C           1.6758  -16.3713  -44.2966 C.2       5 UNK         0.5000 
     46 O           2.3529  -17.2845  -43.8268 O.2       5 UNK        -0.5000 
     47 CA          1.8125  -14.9526  -43.7240 C.3       5 UNK         0.1400 
     48 CB          2.6670  -14.0713  -44.6475 C.3       5 UNK        -0.1800 
     49 N           0.5073  -14.3285  -43.5122 N.am      5 UNK        -0.5000 
     50 C          -0.3674  -14.7120  -42.5719 C.2       4 UNK         0.5000 
     51 O          -0.1557  -15.6211  -41.7688 O.2       4 UNK        -0.5000 
     52 CA         -1.7233  -13.9828  -42.5589 C.3       4 UNK         0.1400 
     53 CB         -1.6045  -12.6227  -41.8551 C.3       4 UNK        -0.1800 
     54 N          -2.2707  -13.7909  -43.9034 N.am      4 UNK        -0.5000 
     55 C          -2.6654  -14.7923  -44.7016 C.2       3 UNK         0.5000 
     56 O          -2.6221  -15.9778  -44.3822 O.2       3 UNK        -0.5000 
     57 CA         -3.1508  -14.4172  -46.1108 C.3       3 UNK         0.1400 
     58 CB         -4.6465  -14.0704  -46.0969 C.3       3 UNK        -0.1800 
     59 N          -2.4027  -13.3255  -46.7378 N.am      3 UNK        -0.5000 
     60 C          -1.0859  -13.3371  -46.9798 C.2       2 UNK         0.5000 
     61 O          -0.3179  -14.2158  -46.5826 O.2       2 UNK        -0.5000 
     62 CA         -0.5411  -12.2044  -47.8674 C.3       2 UNK         0.1400 
     63 CB          0.6642  -11.5112  -47.2129 C.3       2 UNK        -0.1800 
     64 N          -0.1377  -12.7524  -49.1606 N.am      2 UNK        -0.5000 
     65 C          -0.9798  -13.2854  -50.0562 C.2       1 UNK         0.5000 
     66 O          -2.2062  -13.1851  -49.9641 O.2       1 UNK        -0.5000 
     67 C          -0.6674  -22.7303  -47.7783 C.2       11 UNK         0.5000 
     68 O          -1.2019  -23.4113  -48.6540 O.2       11 UNK        -0.5000 
     69 N          -1.3118  -21.7631  -47.1042 N.am      12 UNK        -0.5000 
     70 CA         -2.7405  -21.4826  -47.2714 C.3       12 UNK         0.1400 
     71 CB         -3.1073  -20.1420  -46.6224 C.3       12 UNK        -0.1800 
     72 C          -3.6296  -22.6034  -46.7078 C.2       12 UNK         0.5000 
     73 O          -4.6969  -22.8559  -47.2618 O.2       12 UNK        -0.5000 
     74 N          -3.1689  -23.2724  -45.6413 N.am      13 UNK        -0.5000 
     75 CA         -3.8362  -24.4338  -45.0520 C.3       13 UNK         0.1400 
     76 CB         -3.2983  -24.6830  -43.6343 C.3       13 UNK        -0.1800 
     77 C          -3.6897  -25.6859  -45.9357 C.2       13 UNK         0.5000 
     78 O          -4.6516  -26.4408  -46.0741 O.2       13 UNK        -0.5000 
     79 N          -2.5084  -25.8599  -46.5472 N.am      14 UNK        -0.5000 
     80 CA         -2.2131  -26.9197  -47.5131 C.3       14 UNK         0.1400 
     81 CB         -0.7042  -26.9506  -47.7995 C.3       14 UNK        -0.1800 
     82 C          -3.0167  -26.7699  -48.8187 C.2       14 UNK         0.5000 
     83 O          -3.5558  -27.7601  -49.3144 O.2       14 UNK        -0.5000 
     84 N          -3.1106  -25.5342  -49.3335 N.am      15 UNK        -0.5000 
     85 CA         -3.9562  -25.1761  -50.4771 C.3       15 UNK         0.1400 
     86 CB         -3.5702  -23.7728  -50.9687 C.3       15 UNK        -0.1800 
     87 C          -5.4613  -25.2309  -50.1463 C.2       15 UNK         0.5000 
     88 O          -6.2713  -25.4895  -51.0362 O.2       15 UNK        -0.5000 
     89 N          -5.7902  -24.9783  -48.8718 N.am      16 UNK        -0.5000 
     90 CA         -7.1109  -24.9527  -48.2361 C.3       16 UNK         0.1400 
     91 CB         -7.8374  -26.3034  -48.3999 C.3       16 UNK        -0.1800 
     92 C          -7.9940  -23.7559  -48.6458 C.2       16 UNK         0.5000 
     93 O          -9.1467  -23.6889  -48.2153 O.2       16 UNK        -0.5000 
     94 N          -7.4520  -22.8243  -49.4388 N.am      17 UNK        -0.5000 
     95 CA         -8.1194  -21.6427  -49.9717 C.3       17 UNK         0.1400 
     96 CB         -9.2229  -22.0563  -50.9710 C.3       17 UNK        -0.1800 
     97 C          -7.0845  -20.7467  -50.6702 C.2       17 UNK         0.5000 
     98 O          -5.9433  -21.1656  -50.8873 O.2       17 UNK        -0.5000 
     99 N          -7.5344  -19.5405  -51.0432 N.am      18 UNK        -0.5000 
    100 CA        -6.9094  -18.6058  -51.9872 C.3       18 UNK         0.1400 
    101 CB        -6.8961  -19.2209  -53.4037 C.3       18 UNK        -0.1800 
    102 C         -5.5227  -18.0669  -51.5817 C.2       18 UNK         0.5000 
    103 O         -4.7747  -17.6378  -52.4588 O.2       18 UNK        -0.5000 
    104 N         -5.1942  -18.0901  -50.2798 N.am      19 UNK        -0.5000 
    105 CA        -3.9421  -17.5967  -49.6838 C.3       19 UNK         0.1400 
    106 CB        -3.9460  -16.0569  -49.6315 C.3       19 UNK        -0.1800 
    107 C         -2.6824  -18.1686  -50.3718 C.2       19 UNK         0.5000 
    108 O         -1.8070  -17.4150  -50.8038 O.2       19 UNK        -0.5000 
    109 N         -2.6753  -19.5016  -50.5176 N.am      20 UNK        -0.5000 
    110 CA        -1.6708  -20.3386  -51.1889 C.3       20 UNK         0.1400 
    111 CB        -0.2501  -20.0703  -50.6526 C.3       20 UNK        -0.1800 
    112 C         -1.7223  -20.2908  -52.7314 C.2       20 UNK         0.5000 
    113 O         -0.9834  -21.0396  -53.3703 O.2       20 UNK        -0.5000 
    114 N         -2.5997  -19.4511  -53.3052 N.am      21 UNK        -0.5000 
    115 CA        -2.8575  -19.2635  -54.7392 C.3       21 UNK         0.1400 
    116 CB        -3.4336  -20.5500  -55.3668 C.3       21 UNK        -0.1800 
    117 C         -1.6582  -18.6964  -55.5324 C.2       21 UNK         0.5000 
    118 O         -1.6101  -18.8394  -56.7551 O.2       21 UNK        -0.5000 
    119 N         -0.7255  -18.0392  -54.8327 N.am      22 UNK        -0.5000 
    120 CA         0.5020  -17.4413  -55.3888 C.3       22 UNK         0.1400 
    121 C          0.3079  -16.0400  -56.0450 C.2       22 UNK         0.5000 
    122 N         -0.9083  -15.5343  -56.2007 N.am      22 UNK        -0.7600 
    123 O          1.2794  -15.4020  -56.4412 O.2       22 UNK        -0.5000 
    124 C124        1.6448  -17.4369  -54.3405 C.3       23 UNK        -0.0398 
    125 S125        2.1634  -19.1291  -53.8969 S.3       23 UNK        -0.2404 
    126 C126        3.8071  -18.8265  -53.1784 C.3       23 UNK        -0.0205 
    127 H127       -4.0969  -15.0331  -53.0943 H         1 UNK         0.0600 
    128 H128       -3.2828  -14.8997  -54.6539 H         1 UNK         0.0600 
    129 H129       -2.8477  -16.2025  -53.5450 H         1 UNK         0.0600 
    130 H130       -1.5493  -15.7353  -51.6676 H         1 UNK         0.3000 
    131 H131        0.1119  -13.3273  -51.8864 H         1 UNK         0.0600 
    132 H132        0.8746  -15.8815  -51.4184 H         1 UNK         0.0800 
    133 H133        0.5592  -15.4645  -49.7668 H         1 UNK         0.0800 
    134 H134        2.8488  -15.2145  -48.5799 H         1 UNK         0.0800 
    135 H135        4.3370  -14.8545  -49.4233 H         1 UNK         0.0800 
    136 H136        3.5953  -16.3283  -52.1118 H         1 UNK         0.1150 
    137 H137        3.8088  -20.4594  -51.0082 H         1 UNK         0.1150 
    138 H138        3.4235  -17.4617  -47.9744 H         1 UNK         0.1150 
    139 H139        4.1936  -21.0290  -48.6732 H         1 UNK         0.0800 
    140 H140        4.2641  -19.7817  -47.4568 H         1 UNK         0.0800 
    141 H141        2.7984  -22.7810  -48.0778 H         1 UNK         0.0800 
    142 H142        1.6038  -22.3638  -49.2747 H         1 UNK         0.0800 
    143 H143        0.9290  -24.1108  -47.5662 H         1 UNK         0.0600 
    144 H144        1.4618  -22.0189  -45.6390 H         1 UNK         0.3000 
    145 H145       -0.2854  -22.9050  -43.1516 H         1 UNK         0.0600 
    146 H146        1.2019  -24.1557  -41.5749 H         1 UNK         0.0600 
    147 H147        0.3109  -25.2275  -42.6422 H         1 UNK         0.0600 
    148 H148        2.0121  -24.9156  -42.9455 H         1 UNK         0.0600 
    149 H149        1.1501  -21.2762  -42.9703 H         1 UNK         0.3000 
    150 H150        4.5164  -20.9315  -42.6212 H         1 UNK         0.0600 
    151 H151        4.6701  -20.7054  -45.1193 H         1 UNK         0.0600 
    152 H152        4.6321  -19.1395  -44.3221 H         1 UNK         0.0600 
    153 H153        3.1866  -19.7552  -45.1161 H         1 UNK         0.0600 
    154 H154        2.4096  -18.9885  -42.9748 H         1 UNK         0.3000 
    155 H155        1.0715  -19.2830  -39.6719 H         1 UNK         0.0600 
    156 H156        2.5771  -17.0357  -41.1121 H         1 UNK         0.0600 
    157 H157        2.9852  -17.6852  -39.5292 H         1 UNK         0.0600 
    158 H158        1.4621  -16.8410  -39.7618 H         1 UNK         0.0600 
    159 H159        0.2794  -17.6677  -41.8672 H         1 UNK         0.3000 
    160 H160       -2.0070  -20.0342  -43.3363 H         1 UNK         0.0600 
    161 H161       -3.5282  -18.1376  -42.9530 H         1 UNK         0.0600 
    162 H162       -2.3815  -17.3859  -41.8450 H         1 UNK         0.0600 
    163 H163       -3.1570  -18.9076  -41.4190 H         1 UNK         0.0600 
    164 H164       -1.2439  -17.3468  -44.0221 H         1 UNK         0.3000 
    165 H165        1.4293  -18.2471  -46.2105 H         1 UNK         0.0600 
    166 H166        0.1245  -16.8830  -47.8372 H         1 UNK         0.0600 
    167 H167       -0.5096  -18.5105  -47.7156 H         1 UNK         0.0600 
    168 H168       -1.3511  -17.1770  -46.9202 H         1 UNK         0.0600 
    169 H169        0.2795  -15.7230  -45.6284 H         1 UNK         0.3000 
    170 H170        2.3181  -15.0251  -42.7587 H         1 UNK         0.0600 
    171 H171        3.6667  -14.4907  -44.7669 H         1 UNK         0.0600 
    172 H172        2.7818  -13.0664  -44.2412 H         1 UNK         0.0600 
    173 H173        2.2299  -13.9846  -45.6422 H         1 UNK         0.0600 
    174 H174        0.2276  -13.6232  -44.1779 H         1 UNK         0.3000 
    175 H175       -2.4252  -14.5989  -41.9926 H         1 UNK         0.0600 
    176 H176       -2.5770  -12.1378  -41.7686 H         1 UNK         0.0600 
    177 H177       -1.2102  -12.7400  -40.8447 H         1 UNK         0.0600 
    178 H178       -0.9380  -11.9460  -42.3912 H         1 UNK         0.0600 
    179 H179       -2.3319  -12.8441  -44.2479 H         1 UNK         0.3000 
    180 H180       -3.0176  -15.3004  -46.7378 H         1 UNK         0.0600 
    181 H181       -4.8456  -13.1687  -45.5165 H         1 UNK         0.0600 
    182 H182       -5.2313  -14.8801  -45.6581 H         1 UNK         0.0600 
    183 H183       -5.0236  -13.9103  -47.1071 H         1 UNK         0.0600 
    184 H184       -2.9564  -12.5790  -47.1327 H         1 UNK         0.3000 
    185 H185       -1.3227  -11.4588  -48.0273 H         1 UNK         0.0600 
    186 H186        1.5070  -12.1922  -47.0911 H         1 UNK         0.0600 
    187 H187        1.0038  -10.6665  -47.8124 H         1 UNK         0.0600 
    188 H188        0.4059  -11.1264  -46.2256 H         1 UNK         0.0600 
    189 H189        0.8544  -12.8901  -49.2968 H         1 UNK         0.3000 
    190 H190       -0.8064  -21.2327  -46.3997 H         1 UNK         0.3000 
    191 H191       -2.9493  -21.4067  -48.3400 H         1 UNK         0.0600 
    192 H192       -2.5632  -19.3206  -47.0805 H         1 UNK         0.0600 
    193 H193       -2.8943  -20.1392  -45.5541 H         1 UNK         0.0600 
    194 H194       -4.1701  -19.9278  -46.7429 H         1 UNK         0.0600 
    195 H195       -2.2689  -23.0205  -45.2634 H         1 UNK         0.3000 
    196 H196       -4.9019  -24.2091  -44.9685 H         1 UNK         0.0600 
    197 H197       -3.8381  -25.5007  -43.1552 H         1 UNK         0.0600 
    198 H198       -3.4201  -23.8014  -43.0049 H         1 UNK         0.0600 
    199 H199       -2.2423  -24.9505  -43.6365 H         1 UNK         0.0600 
    200 H200       -1.7408  -25.2426  -46.3024 H         1 UNK         0.3000 
    201 H201       -2.4903  -27.8724  -47.0571 H         1 UNK         0.0600 
    202 H202       -0.1303  -27.0838  -46.8821 H         1 UNK         0.0600 
    203 H203       -0.3651  -26.0315  -48.2766 H         1 UNK         0.0600 
    204 H204       -0.4517  -27.7768  -48.4650 H         1 UNK         0.0600 
    205 H205       -2.5676  -24.7842  -48.9153 H         1 UNK         0.3000 
    206 H206       -3.7651  -25.8873  -51.2834 H         1 UNK         0.0600 
    207 H207       -2.5244  -23.7382  -51.2743 H         1 UNK         0.0600 
    208 H208       -4.1715  -23.4775  -51.8297 H         1 UNK         0.0600 
    209 H209       -3.7196  -23.0214  -50.1925 H         1 UNK         0.0600 
    210 H210       -5.0398  -24.6887  -48.2571 H         1 UNK         0.3000 
    211 H211       -6.9134  -24.8193  -47.1716 H         1 UNK         0.0600 
    212 H212       -8.1447  -26.4782  -49.4311 H         1 UNK         0.0600 
    213 H213       -8.7359  -26.3410  -47.7831 H         1 UNK         0.0600 
    214 H214       -7.1994  -27.1321  -48.0922 H         1 UNK         0.0600 
    215 H215       -6.4835  -22.9146  -49.7193 H         1 UNK         0.3000 
    216 H216       -8.5578  -21.0830  -49.1433 H         1 UNK         0.0600 
    217 H217       -9.7118  -21.1868  -51.4115 H         1 UNK         0.0600 
    218 H218      -10.0056  -22.6435  -50.4917 H         1 UNK         0.0600 
    219 H219       -8.8149  -22.6513  -51.7891 H         1 UNK         0.0600 
    220 H220       -8.4727  -19.2876  -50.7654 H         1 UNK         0.3000 
    221 H221       -7.5617  -17.7321  -52.0189 H         1 UNK         0.0600 
    222 H222       -6.2147  -20.0698  -53.4661 H         1 UNK         0.0600 
    223 H223       -7.8884  -19.5661  -53.6937 H         1 UNK         0.0600 
    224 H224       -6.5795  -18.4921  -54.1509 H         1 UNK         0.0600 
    225 H225       -5.8698  -18.4804  -49.6385 H         1 UNK         0.3000 
    226 H226       -3.9200  -17.9573  -48.6550 H         1 UNK         0.0600 
    227 H227       -4.8002  -15.6827  -49.0679 H         1 UNK         0.0600 
    228 H228       -3.0460  -15.6808  -49.1443 H         1 UNK         0.0600 
    229 H229       -3.9848  -15.6170  -50.6279 H         1 UNK         0.0600 
    230 H230       -3.5029  -19.9980  -50.2157 H         1 UNK         0.3000 
    231 H231       -1.9223  -21.3631  -50.9149 H         1 UNK         0.0600 
    232 H232       -0.2366  -20.0868  -49.5645 H         1 UNK         0.0600 
    233 H233        0.1429  -19.1074  -50.9804 H         1 UNK         0.0600 
    234 H234        0.4482  -20.8326  -50.9988 H         1 UNK         0.0600 
    235 H235       -3.1675  -18.8668  -52.7004 H         1 UNK         0.3000 
    236 H236       -3.6350  -18.5010  -54.8004 H         1 UNK         0.0600 
    237 H237       -3.7945  -20.3644  -56.3789 H         1 UNK         0.0600 
    238 H238       -2.6861  -21.3413  -55.4277 H         1 UNK         0.0600 
    239 H239       -4.2762  -20.9286  -54.7885 H         1 UNK         0.0600 
    240 H240       -0.8377  -17.9791  -53.8317 H         1 UNK         0.3000 
    241 H241        0.8324  -18.0781  -56.2117 H         1 UNK         0.0600 
    242 H242       -1.0154  -14.6310  -56.6345 H         1 UNK         0.3800 
    243 H243       -1.7194  -16.0656  -55.9339 H         1 UNK         0.3800 
    244 H244        2.5197  -16.9110  -54.7258 H         1 UNK         0.0800 
    245 H245        1.3386  -16.9066  -53.4393 H         1 UNK         0.0800 
    246 H246        4.3393  -18.0629  -53.7474 H         1 UNK         0.0800 
    247 H247        4.4001  -19.7374  -53.2720 H         1 UNK         0.0800 
@<TRIPOS>BOND
     1    1    2 1    
     2    1  127 1    
     3    1  128 1    
     4    1  129 1    
     5    2    3 2    
     6    2    4 am   BACKBONE|DICT|INTERRES
     7    4    5 1    
     8    4  130 1    
     9    5    6 1    
    10    5   65 1    
    11    5  131 1    
    12    6    7 1    
    13    6  132 1    
    14    6  133 1    
    15    7    8 1    
    16    8    9 1    
    17    8  134 1    
    18    8  135 1    
    19    9   10 ar   
    20    9   14 ar   
    21   10   11 ar   
    22   10  136 1    
    23   11   12 ar   
    24   11  126 1    
    25   12   13 ar   
    26   12  137 1    
    27   13   14 ar   
    28   13   15 1    
    29   14  138 1    
    30   15   16 1    
    31   15  139 1    
    32   15  140 1    
    33   16   17 1    
    34   17   18 1    
    35   17  141 1    
    36   17  142 1    
    37   18   19 1    
    38   18   67 1    
    39   18  143 1    
    40   19   20 am   BACKBONE|DICT|INTERRES
    41   19  144 1    
    42   20   21 2    
    43   20   22 1    
    44   22   23 1    
    45   22   24 1    
    46   22  145 1    
    47   23  146 1    
    48   23  147 1    
    49   23  148 1    
    50   24   25 am   BACKBONE|DICT|INTERRES
    51   24  149 1    
    52   25   26 2    
    53   25   27 1    
    54   27   28 1    
    55   27   29 1    
    56   27  150 1    
    57   28  151 1    
    58   28  152 1    
    59   28  153 1    
    60   29   30 am   BACKBONE|DICT|INTERRES
    61   29  154 1    
    62   30   31 2    
    63   30   32 1    
    64   32   33 1    
    65   32   34 1    
    66   32  155 1    
    67   33  156 1    
    68   33  157 1    
    69   33  158 1    
    70   34   35 am   BACKBONE|DICT|INTERRES
    71   34  159 1    
    72   35   36 2    
    73   35   37 1    
    74   37   38 1    
    75   37   39 1    
    76   37  160 1    
    77   38  161 1    
    78   38  162 1    
    79   38  163 1    
    80   39   40 am   BACKBONE|DICT|INTERRES
    81   39  164 1    
    82   40   41 2    
    83   40   42 1    
    84   42   43 1    
    85   42   44 1    
    86   42  165 1    
    87   43  166 1    
    88   43  167 1    
    89   43  168 1    
    90   44   45 am   BACKBONE|DICT|INTERRES
    91   44  169 1    
    92   45   46 2    
    93   45   47 1    
    94   47   48 1    
    95   47   49 1    
    96   47  170 1    
    97   48  171 1    
    98   48  172 1    
    99   48  173 1    
   100   49   50 am   BACKBONE|DICT|INTERRES
   101   49  174 1    
   102   50   51 2    
   103   50   52 1    
   104   52   53 1    
   105   52   54 1    
   106   52  175 1    
   107   53  176 1    
   108   53  177 1    
   109   53  178 1    
   110   54   55 am   BACKBONE|DICT|INTERRES
   111   54  179 1    
   112   55   56 2    
   113   55   57 1    
   114   57   58 1    
   115   57   59 1    
   116   57  180 1    
   117   58  181 1    
   118   58  182 1    
   119   58  183 1    
   120   59   60 am   BACKBONE|DICT|INTERRES
   121   59  184 1    
   122   60   61 2    
   123   60   62 1    
   124   62   63 1    
   125   62   64 1    
   126   62  185 1    
   127   63  186 1    
   128   63  187 1    
   129   63  188 1    
   130   64   65 am   BACKBONE|DICT|INTERRES
   131   64  189 1    
   132   65   66 2    
   133   67   68 2    
   134   67   69 am   BACKBONE|DICT|INTERRES
   135   69   70 1    
   136   69  190 1    
   137   70   71 1    
   138   70   72 1    
   139   70  191 1    
   140   71  192 1    
   141   71  193 1    
   142   71  194 1    
   143   72   73 2    
   144   72   74 am   BACKBONE|DICT|INTERRES
   145   74   75 1    
   146   74  195 1    
   147   75   76 1    
   148   75   77 1    
   149   75  196 1    
   150   76  197 1    
   151   76  198 1    
   152   76  199 1    
   153   77   78 2    
   154   77   79 am   BACKBONE|DICT|INTERRES
   155   79   80 1    
   156   79  200 1    
   157   80   81 1    
   158   80   82 1    
   159   80  201 1    
   160   81  202 1    
   161   81  203 1    
   162   81  204 1    
   163   82   83 2    
   164   82   84 am   BACKBONE|DICT|INTERRES
   165   84   85 1    
   166   84  205 1    
   167   85   86 1    
   168   85   87 1    
   169   85  206 1    
   170   86  207 1    
   171   86  208 1    
   172   86  209 1    
   173   87   88 2    
   174   87   89 am   BACKBONE|DICT|INTERRES
   175   89   90 1    
   176   89  210 1    
   177   90   91 1    
   178   90   92 1    
   179   90  211 1    
   180   91  212 1    
   181   91  213 1    
   182   91  214 1    
   183   92   93 2    
   184   92   94 am   BACKBONE|DICT|INTERRES
   185   94   95 1    
   186   94  215 1    
   187   95   96 1    
   188   95   97 1    
   189   95  216 1    
   190   96  217 1    
   191   96  218 1    
   192   96  219 1    
   193   97   98 2    
   194   97   99 am   BACKBONE|DICT|INTERRES
   195   99  100 1    
   196   99  220 1    
   197  100  101 1    
   198  100  102 1    
   199  100  221 1    
   200  101  222 1    
   201  101  223 1    
   202  101  224 1    
   203  102  103 2    
   204  102  104 am   BACKBONE|DICT|INTERRES
   205  104  105 1    
   206  104  225 1    
   207  105  106 1    
   208  105  107 1    
   209  105  226 1    
   210  106  227 1    
   211  106  228 1    
   212  106  229 1    
   213  107  108 2    
   214  107  109 am   BACKBONE|DICT|INTERRES
   215  109  110 1    
   216  109  230 1    
   217  110  111 1    
   218  110  112 1    
   219  110  231 1    
   220  111  232 1    
   221  111  233 1    
   222  111  234 1    
   223  112  113 2    
   224  112  114 am   BACKBONE|DICT|INTERRES
   225  114  115 1    
   226  114  235 1    
   227  115  116 1    
   228  115  117 1    
   229  115  236 1    
   230  116  237 1    
   231  116  238 1    
   232  116  239 1    
   233  117  118 2    
   234  117  119 am   BACKBONE|DICT|INTERRES
   235  119  120 1    
   236  119  240 1    
   237  120  121 1    
   238  120  124 1    
   239  120  241 1    
   240  121  122 am   BACKBONE|DICT|INTERRES
   241  121  123 2    
   242  122  242 1    
   243  122  243 1    
   244  124  125 1    
   245  124  244 1    
   246  124  245 1    
   247  125  126 1    
   248  126  246 1    
   249  126  247 1    
@<TRIPOS>SUBSTRUCTURE
     1 UNK         1 GROUP             0       ****    0 ROOT    
