@<TRIPOS>MOLECULE
3R540
247   249    1
SMALL
USER_CHARGES


@<TRIPOS>ATOM
      1 CA          6.7845  -12.7924  -48.5394 C.3       0 UNK        -0.1800 
      2 C           5.3556  -13.0427  -48.0791 C.2       0 UNK         0.5000 
      3 O           4.4872  -12.2090  -48.3285 O.2       0 UNK        -0.5000 
      4 N           5.1337  -14.1717  -47.3905 N.am      1 UNK        -0.5000 
      5 CA          3.8862  -14.7497  -46.8545 C.3       1 UNK         0.1400 
      6 C6          2.9484  -15.3649  -47.9259 C.3       23 UNK        -0.0398 
      7 S7          1.9813  -14.1827  -48.9280 S.3       23 UNK        -0.2404 
      8 C8          2.1999  -14.8710  -50.5964 C.3       23 UNK        -0.0205 
      9 C9          1.3448  -16.1125  -50.7970 C.ar      23 UNK        -0.0193 
     10 C10         0.0075  -15.9789  -51.1771 C.ar      23 UNK        -0.1150 
     11 C11        -0.7899  -17.1075  -51.3793 C.ar      23 UNK        -0.0193 
     12 C12        -0.2368  -18.3775  -51.1928 C.ar      23 UNK        -0.1150 
     13 C13         1.0986  -18.5311  -50.8013 C.ar      23 UNK        -0.0193 
     14 C14         1.8836  -17.3895  -50.6118 C.ar      23 UNK        -0.1150 
     15 C15         1.7345  -19.9098  -50.6269 C.3       23 UNK        -0.0205 
     16 S16         0.5854  -21.2232  -50.0916 S.3       23 UNK        -0.2404 
     17 C17         0.2161  -20.7258  -48.3784 C.3       23 UNK        -0.0398 
     18 CA         -0.1883  -21.9298  -47.4898 C.3       11 UNK         0.1400 
     19 N           0.0985  -21.6772  -46.0729 N.am      11 UNK        -0.5000 
     20 C           0.0092  -22.5903  -45.0949 C.2       10 UNK         0.5000 
     21 O          -0.2803  -23.7691  -45.2886 O.2       10 UNK        -0.5000 
     22 CA          0.2215  -22.0970  -43.6515 C.3       10 UNK         0.1400 
     23 CB          1.7162  -22.0415  -43.3062 C.3       10 UNK        -0.1800 
     24 N          -0.4029  -20.7958  -43.4050 N.am      10 UNK        -0.5000 
     25 C          -1.7230  -20.5697  -43.4704 C.2       9 UNK         0.5000 
     26 O          -2.5528  -21.4534  -43.6773 O.2       9 UNK        -0.5000 
     27 CA         -2.1974  -19.1112  -43.3443 C.3       9 UNK         0.1400 
     28 CB         -2.3360  -18.7047  -41.8701 C.3       9 UNK        -0.1800 
     29 N          -1.3211  -18.1697  -44.0428 N.am      9 UNK        -0.5000 
     30 C          -1.1131  -18.1637  -45.3681 C.2       8 UNK         0.5000 
     31 O          -1.6814  -18.9259  -46.1512 O.2       8 UNK        -0.5000 
     32 CA         -0.0441  -17.1880  -45.8965 C.3       8 UNK         0.1400 
     33 CB         -0.5925  -15.7552  -45.9806 C.3       8 UNK        -0.1800 
     34 N           1.1694  -17.2097  -45.0755 N.am      8 UNK        -0.5000 
     35 C           1.9814  -18.2709  -44.9619 C.2       7 UNK         0.5000 
     36 O           1.8429  -19.3011  -45.6203 O.2       7 UNK        -0.5000 
     37 CA          3.0874  -18.2059  -43.8906 C.3       7 UNK         0.1400 
     38 CB          4.4134  -17.6545  -44.4301 C.3       7 UNK        -0.1800 
     39 N           2.6825  -17.4357  -42.7172 N.am      7 UNK        -0.5000 
     40 C           1.8098  -17.8800  -41.8062 C.2       6 UNK         0.5000 
     41 O           1.2756  -18.9873  -41.8542 O.2       6 UNK        -0.5000 
     42 CA          1.4498  -16.9085  -40.6756 C.3       6 UNK         0.1400 
     43 CB          2.5321  -16.9086  -39.5859 C.3       6 UNK        -0.1800 
     44 N           1.2418  -15.5426  -41.1528 N.am      6 UNK        -0.5000 
     45 C           0.1825  -15.1431  -41.8719 C.2       5 UNK         0.5000 
     46 O          -0.6286  -15.9325  -42.3556 O.2       5 UNK        -0.5000 
     47 CA         -0.0193  -13.6238  -42.0898 C.3       5 UNK         0.1400 
     48 CB         -1.5025  -13.2172  -41.9905 C.3       5 UNK        -0.1800 
     49 N           0.8061  -12.7725  -41.2242 N.am      5 UNK        -0.5000 
     50 C           0.8716  -12.7494  -39.8826 C.2       4 UNK         0.5000 
     51 O           0.0734  -13.3333  -39.1486 O.2       4 UNK        -0.5000 
     52 CA          2.0735  -11.9930  -39.2638 C.3       4 UNK         0.1400 
     53 CB          2.6113  -12.6952  -37.9997 C.3       4 UNK        -0.1800 
     54 N           3.1707  -11.7432  -40.2135 N.am      4 UNK        -0.5000 
     55 C           3.8674  -12.6475  -40.9212 C.2       3 UNK         0.5000 
     56 O           3.7293  -13.8676  -40.8092 O.2       3 UNK        -0.5000 
     57 CA          4.7880  -12.0777  -42.0200 C.3       3 UNK         0.1400 
     58 CB          6.0943  -12.8814  -42.1316 C.3       3 UNK        -0.1800 
     59 N           4.1358  -12.0601  -43.3347 N.am      3 UNK        -0.5000 
     60 C           2.9754  -11.4654  -43.6519 C.2       2 UNK         0.5000 
     61 O           2.3041  -10.8125  -42.8534 O.2       2 UNK        -0.5000 
     62 CA          2.4553  -11.6118  -45.0947 C.3       2 UNK         0.1400 
     63 CB          2.4863  -10.2565  -45.8180 C.3       2 UNK        -0.1800 
     64 N           3.1764  -12.5858  -45.9110 N.am      2 UNK        -0.5000 
     65 C           3.1241  -13.9156  -45.7955 C.2       1 UNK         0.5000 
     66 O           2.5192  -14.4939  -44.8896 O.2       1 UNK        -0.5000 
     67 C          -1.6600  -22.3462  -47.7208 C.2       11 UNK         0.5000 
     68 O          -1.9271  -23.2509  -48.5162 O.2       11 UNK        -0.5000 
     69 N          -2.5878  -21.7068  -46.9949 N.am      12 UNK        -0.5000 
     70 CA         -4.0071  -22.0582  -46.9775 C.3       12 UNK         0.1400 
     71 CB         -4.8171  -20.9258  -46.3301 C.3       12 UNK        -0.1800 
     72 C          -4.2714  -23.4092  -46.2902 C.2       12 UNK         0.5000 
     73 O          -5.0026  -24.2296  -46.8440 O.2       12 UNK        -0.5000 
     74 N          -3.6446  -23.6402  -45.1280 N.am      13 UNK        -0.5000 
     75 CA         -3.7402  -24.8830  -44.3544 C.3       13 UNK         0.1400 
     76 CB         -3.0338  -24.7026  -43.0028 C.3       13 UNK        -0.1800 
     77 C          -3.1804  -26.1103  -45.0993 C.2       13 UNK         0.5000 
     78 O          -3.7516  -27.1966  -44.9996 O.2       13 UNK        -0.5000 
     79 N          -2.1007  -25.9052  -45.8651 N.am      14 UNK        -0.5000 
     80 CA         -1.4958  -26.8936  -46.7605 C.3       14 UNK         0.1400 
     81 CB         -0.0806  -26.4194  -47.1299 C.3       14 UNK        -0.1800 
     82 C          -2.3171  -27.1531  -48.0408 C.2       14 UNK         0.5000 
     83 O          -1.9919  -28.0842  -48.7783 O.2       14 UNK        -0.5000 
     84 N          -3.3381  -26.3198  -48.2961 N.am      15 UNK        -0.5000 
     85 CA         -4.2029  -26.2963  -49.4793 C.3       15 UNK         0.1400 
     86 CB         -5.0336  -27.5915  -49.5919 C.3       15 UNK        -0.1800 
     87 C          -3.4457  -25.9452  -50.7775 C.2       15 UNK         0.5000 
     88 O          -3.8790  -26.3264  -51.8651 O.2       15 UNK        -0.5000 
     89 N          -2.3415  -25.2000  -50.6447 N.am      16 UNK        -0.5000 
     90 CA         -1.5317  -24.7056  -51.7557 C.3       16 UNK         0.1400 
     91 CB         -0.0708  -24.5917  -51.2975 C.3       16 UNK        -0.1800 
     92 C          -2.0702  -23.3680  -52.2953 C.2       16 UNK         0.5000 
     93 O          -1.9651  -23.1176  -53.4954 O.2       16 UNK        -0.5000 
     94 N          -2.6741  -22.5554  -51.4148 N.am      17 UNK        -0.5000 
     95 CA         -3.3988  -21.3331  -51.7807 C.3       17 UNK         0.1400 
     96 CB         -3.4694  -20.4100  -50.5547 C.3       17 UNK        -0.1800 
     97 C          -4.8259  -21.6229  -52.2923 C.2       17 UNK         0.5000 
     98 O          -5.4263  -20.7698  -52.9492 O.2       17 UNK        -0.5000 
     99 N          -5.3484  -22.8089  -51.9504 N.am      18 UNK        -0.5000 
    100 CA        -6.6825  -23.2980  -52.2937 C.3       18 UNK         0.1400 
    101 CB        -7.0256  -24.4687  -51.3552 C.3       18 UNK        -0.1800 
    102 C         -6.8072  -23.7067  -53.7761 C.2       18 UNK         0.5000 
    103 O         -5.8499  -23.5891  -54.5432 O.2       18 UNK        -0.5000 
    104 N         -8.0105  -24.1611  -54.1589 N.am      19 UNK        -0.5000 
    105 CA        -8.4050  -24.5652  -55.5177 C.3       19 UNK         0.1400 
    106 CB        -7.6406  -25.8304  -55.9618 C.3       19 UNK        -0.1800 
    107 C         -8.3046  -23.4087  -56.5370 C.2       19 UNK         0.5000 
    108 O         -7.9951  -23.6331  -57.7081 O.2       19 UNK        -0.5000 
    109 N         -8.5599  -22.1861  -56.0465 N.am      20 UNK        -0.5000 
    110 CA        -8.5014  -20.9000  -56.7463 C.3       20 UNK         0.1400 
    111 CB        -9.5356  -20.8437  -57.8906 C.3       20 UNK        -0.1800 
    112 C         -7.0872  -20.4832  -57.2064 C.2       20 UNK         0.5000 
    113 O         -6.9746  -19.5680  -58.0240 O.2       20 UNK        -0.5000 
    114 N         -6.0292  -21.1014  -56.6552 N.am      21 UNK        -0.5000 
    115 CA        -4.6282  -20.7931  -56.9717 C.3       21 UNK         0.1400 
    116 CB        -3.7063  -21.7927  -56.2596 C.3       21 UNK        -0.1800 
    117 C         -4.2253  -19.3449  -56.6292 C.2       21 UNK         0.5000 
    118 O         -3.4514  -18.7381  -57.3708 O.2       21 UNK        -0.5000 
    119 N         -4.7983  -18.8139  -55.5437 N.am      22 UNK        -0.5000 
    120 CA        -4.7067  -17.4051  -55.1285 C.3       22 UNK         0.1400 
    121 C         -5.9769  -16.5806  -55.5002 C.2       22 UNK         0.5000 
    122 N         -6.8541  -17.0547  -56.3780 N.am      22 UNK        -0.7600 
    123 O         -6.1697  -15.4751  -55.0013 O.2       22 UNK        -0.5000 
    124 C124       -4.3417  -17.2901  -53.6258 C.3       23 UNK        -0.0398 
    125 S125       -2.6385  -17.8597  -53.3130 S.3       23 UNK        -0.2404 
    126 C126       -2.2483  -16.9486  -51.7857 C.3       23 UNK        -0.0205 
    127 H127        7.4553  -13.5996  -48.2444 H         1 UNK         0.0600 
    128 H128        7.1599  -11.8639  -48.1092 H         1 UNK         0.0600 
    129 H129        6.8172  -12.7036  -49.6253 H         1 UNK         0.0600 
    130 H130        5.9422  -14.7524  -47.2162 H         1 UNK         0.3000 
    131 H131        4.2617  -15.6046  -46.3007 H         1 UNK         0.0600 
    132 H132        3.5454  -15.9948  -48.5847 H         1 UNK         0.0800 
    133 H133        2.2401  -16.0439  -47.4514 H         1 UNK         0.0800 
    134 H134        3.2536  -15.0880  -50.7783 H         1 UNK         0.0800 
    135 H135        1.9184  -14.1118  -51.3276 H         1 UNK         0.0800 
    136 H136       -0.4101  -14.9913  -51.3150 H         1 UNK         0.1150 
    137 H137       -0.8505  -19.2468  -51.3736 H         1 UNK         0.1150 
    138 H138        2.9211  -17.4964  -50.3289 H         1 UNK         0.1150 
    139 H139        2.5621  -19.8592  -49.9175 H         1 UNK         0.0800 
    140 H140        2.1677  -20.2049  -51.5832 H         1 UNK         0.0800 
    141 H141       -0.5477  -19.9463  -48.3820 H         1 UNK         0.0800 
    142 H142        1.1163  -20.2590  -47.9777 H         1 UNK         0.0800 
    143 H143        0.4312  -22.7839  -47.7721 H         1 UNK         0.0600 
    144 H144        0.3920  -20.7369  -45.8308 H         1 UNK         0.3000 
    145 H145       -0.2485  -22.8181  -42.9805 H         1 UNK         0.0600 
    146 H146        2.1734  -23.0265  -43.4070 H         1 UNK         0.0600 
    147 H147        1.8738  -21.7135  -42.2786 H         1 UNK         0.0600 
    148 H148        2.2584  -21.3633  -43.9636 H         1 UNK         0.0600 
    149 H149        0.2126  -20.0314  -43.1452 H         1 UNK         0.3000 
    150 H150       -3.1850  -19.0462  -43.8055 H         1 UNK         0.0600 
    151 H151       -1.3751  -18.7136  -41.3559 H         1 UNK         0.0600 
    152 H152       -3.0003  -19.3865  -41.3378 H         1 UNK         0.0600 
    153 H153       -2.7554  -17.7028  -41.7762 H         1 UNK         0.0600 
    154 H154       -0.8599  -17.4706  -43.4666 H         1 UNK         0.3000 
    155 H155        0.2240  -17.5064  -46.9065 H         1 UNK         0.0600 
    156 H156        0.1371  -15.0768  -46.4220 H         1 UNK         0.0600 
    157 H157       -0.8601  -15.3636  -44.9993 H         1 UNK         0.0600 
    158 H158       -1.4866  -15.7178  -46.6041 H         1 UNK         0.0600 
    159 H159        1.3702  -16.3807  -44.5310 H         1 UNK         0.3000 
    160 H160        3.2747  -19.2349  -43.5777 H         1 UNK         0.0600 
    161 H161        4.4461  -16.5680  -44.3757 H         1 UNK         0.0600 
    162 H162        4.5891  -17.9573  -45.4634 H         1 UNK         0.0600 
    163 H163        5.2500  -18.0265  -43.8385 H         1 UNK         0.0600 
    164 H164        3.0543  -16.5013  -42.6202 H         1 UNK         0.3000 
    165 H165        0.5173  -17.2549  -40.2249 H         1 UNK         0.0600 
    166 H166        2.6896  -17.9133  -39.1917 H         1 UNK         0.0600 
    167 H167        3.4894  -16.5503  -39.9668 H         1 UNK         0.0600 
    168 H168        2.2466  -16.2712  -38.7488 H         1 UNK         0.0600 
    169 H169        1.9211  -14.8507  -40.8549 H         1 UNK         0.3000 
    170 H170        0.3111  -13.4258  -43.1103 H         1 UNK         0.0600 
    171 H171       -1.6311  -12.1497  -42.1694 H         1 UNK         0.0600 
    172 H172       -1.9193  -13.4466  -41.0095 H         1 UNK         0.0600 
    173 H173       -2.1047  -13.7433  -42.7323 H         1 UNK         0.0600 
    174 H174        1.4790  -12.1921  -41.7151 H         1 UNK         0.3000 
    175 H175        1.6947  -11.0141  -38.9669 H         1 UNK         0.0600 
    176 H176        2.9430  -13.7121  -38.2114 H         1 UNK         0.0600 
    177 H177        1.8438  -12.7566  -37.2273 H         1 UNK         0.0600 
    178 H178        3.4534  -12.1498  -37.5739 H         1 UNK         0.0600 
    179 H179        3.3127  -10.7689  -40.4442 H         1 UNK         0.3000 
    180 H180        5.0460  -11.0497  -41.7581 H         1 UNK         0.0600 
    181 H181        5.9117  -13.9068  -42.4563 H         1 UNK         0.0600 
    182 H182        6.6069  -12.9282  -41.1699 H         1 UNK         0.0600 
    183 H183        6.7808  -12.4221  -42.8429 H         1 UNK         0.0600 
    184 H184        4.5942  -12.5860  -44.0633 H         1 UNK         0.3000 
    185 H185        1.4154  -11.9376  -45.0273 H         1 UNK         0.0600 
    186 H186        1.9196   -9.5028  -45.2696 H         1 UNK         0.0600 
    187 H187        3.5059   -9.8858  -45.9303 H         1 UNK         0.0600 
    188 H188        2.0461  -10.3312  -46.8127 H         1 UNK         0.0600 
    189 H189        3.6682  -12.2227  -46.7255 H         1 UNK         0.3000 
    190 H190       -2.2949  -20.9420  -46.3969 H         1 UNK         0.3000 
    191 H191       -4.3444  -22.1603  -48.0094 H         1 UNK         0.0600 
    192 H192       -4.6702  -19.9852  -46.8615 H         1 UNK         0.0600 
    193 H193       -5.8843  -21.1495  -46.3514 H         1 UNK         0.0600 
    194 H194       -4.5368  -20.7676  -45.2892 H         1 UNK         0.0600 
    195 H195       -3.0975  -22.8894  -44.7123 H         1 UNK         0.3000 
    196 H196       -4.7986  -25.0694  -44.1614 H         1 UNK         0.0600 
    197 H197       -3.1325  -25.5979  -42.3878 H         1 UNK         0.0600 
    198 H198       -3.4618  -23.8724  -42.4406 H         1 UNK         0.0600 
    199 H199       -1.9690  -24.5079  -43.1302 H         1 UNK         0.0600 
    200 H200       -1.6391  -25.0001  -45.8191 H         1 UNK         0.3000 
    201 H201       -1.4130  -27.8417  -46.2254 H         1 UNK         0.0600 
    202 H202        0.4229  -27.1419  -47.7734 H         1 UNK         0.0600 
    203 H203        0.5373  -26.2927  -46.2409 H         1 UNK         0.0600 
    204 H204       -0.1036  -25.4664  -47.6606 H         1 UNK         0.0600 
    205 H205       -3.5339  -25.5954  -47.6157 H         1 UNK         0.3000 
    206 H206       -4.9029  -25.4767  -49.3150 H         1 UNK         0.0600 
    207 H207       -5.5538  -27.8071  -48.6586 H         1 UNK         0.0600 
    208 H208       -5.7916  -27.5046  -50.3709 H         1 UNK         0.0600 
    209 H209       -4.4129  -28.4531  -49.8381 H         1 UNK         0.0600 
    210 H210       -2.0864  -24.8681  -49.7202 H         1 UNK         0.3000 
    211 H211       -1.5645  -25.4238  -52.5778 H         1 UNK         0.0600 
    212 H212        0.3568  -25.5776  -51.1152 H         1 UNK         0.0600 
    213 H213        0.5454  -24.1023  -52.0528 H         1 UNK         0.0600 
    214 H214        0.0178  -24.0216  -50.3737 H         1 UNK         0.0600 
    215 H215       -2.6502  -22.8058  -50.4331 H         1 UNK         0.3000 
    216 H216       -2.8513  -20.8182  -52.5726 H         1 UNK         0.0600 
    217 H217       -4.1111  -20.8217  -49.7783 H         1 UNK         0.0600 
    218 H218       -3.8845  -19.4402  -50.8279 H         1 UNK         0.0600 
    219 H219       -2.4866  -20.2378  -50.1183 H         1 UNK         0.0600 
    220 H220       -4.7446  -23.4575  -51.4717 H         1 UNK         0.3000 
    221 H221       -7.3936  -22.4895  -52.1126 H         1 UNK         0.0600 
    222 H222       -6.4163  -25.3461  -51.5707 H         1 UNK         0.0600 
    223 H223       -6.8725  -24.1981  -50.3101 H         1 UNK         0.0600 
    224 H224       -8.0696  -24.7666  -51.4545 H         1 UNK         0.0600 
    225 H225       -8.7419  -24.2222  -53.4639 H         1 UNK         0.3000 
    226 H226       -9.4630  -24.8257  -55.4641 H         1 UNK         0.0600 
    227 H227       -7.7306  -26.6253  -55.2216 H         1 UNK         0.0600 
    228 H228       -8.0373  -26.2169  -56.9012 H         1 UNK         0.0600 
    229 H229       -6.5792  -25.6324  -56.1138 H         1 UNK         0.0600 
    230 H230       -8.7945  -22.1285  -55.0657 H         1 UNK         0.3000 
    231 H231       -8.7971  -20.1521  -56.0093 H         1 UNK         0.0600 
    232 H232       -9.2651  -21.5029  -58.7158 H         1 UNK         0.0600 
    233 H233       -9.6180  -19.8344  -58.2955 H         1 UNK         0.0600 
    234 H234      -10.5272  -21.1316  -57.5413 H         1 UNK         0.0600 
    235 H235       -6.1849  -21.8439  -55.9844 H         1 UNK         0.3000 
    236 H236       -4.4997  -20.9230  -58.0482 H         1 UNK         0.0600 
    237 H237       -3.8033  -21.7253  -55.1758 H         1 UNK         0.0600 
    238 H238       -3.9328  -22.8182  -56.5515 H         1 UNK         0.0600 
    239 H239       -2.6602  -21.6070  -56.5058 H         1 UNK         0.0600 
    240 H240       -5.3959  -19.4027  -54.9788 H         1 UNK         0.3000 
    241 H241       -3.9057  -16.9183  -55.6876 H         1 UNK         0.0600 
    242 H242       -6.6958  -17.9276  -56.8673 H         1 UNK         0.3800 
    243 H243       -7.6613  -16.4975  -56.6095 H         1 UNK         0.3800 
    244 H244       -4.4165  -16.2556  -53.2874 H         1 UNK         0.0800 
    245 H245       -5.0336  -17.8680  -53.0110 H         1 UNK         0.0800 
    246 H246       -2.4860  -15.8939  -51.9320 H         1 UNK         0.0800 
    247 H247       -2.8854  -17.3005  -50.9742 H         1 UNK         0.0800 
@<TRIPOS>BOND
     1    1    2 1    
     2    1  127 1    
     3    1  128 1    
     4    1  129 1    
     5    2    3 2    
     6    2    4 am   BACKBONE|DICT|INTERRES
     7    4    5 1    
     8    4  130 1    
     9    5    6 1    
    10    5   65 1    
    11    5  131 1    
    12    6    7 1    
    13    6  132 1    
    14    6  133 1    
    15    7    8 1    
    16    8    9 1    
    17    8  134 1    
    18    8  135 1    
    19    9   10 ar   
    20    9   14 ar   
    21   10   11 ar   
    22   10  136 1    
    23   11   12 ar   
    24   11  126 1    
    25   12   13 ar   
    26   12  137 1    
    27   13   14 ar   
    28   13   15 1    
    29   14  138 1    
    30   15   16 1    
    31   15  139 1    
    32   15  140 1    
    33   16   17 1    
    34   17   18 1    
    35   17  141 1    
    36   17  142 1    
    37   18   19 1    
    38   18   67 1    
    39   18  143 1    
    40   19   20 am   BACKBONE|DICT|INTERRES
    41   19  144 1    
    42   20   21 2    
    43   20   22 1    
    44   22   23 1    
    45   22   24 1    
    46   22  145 1    
    47   23  146 1    
    48   23  147 1    
    49   23  148 1    
    50   24   25 am   BACKBONE|DICT|INTERRES
    51   24  149 1    
    52   25   26 2    
    53   25   27 1    
    54   27   28 1    
    55   27   29 1    
    56   27  150 1    
    57   28  151 1    
    58   28  152 1    
    59   28  153 1    
    60   29   30 am   BACKBONE|DICT|INTERRES
    61   29  154 1    
    62   30   31 2    
    63   30   32 1    
    64   32   33 1    
    65   32   34 1    
    66   32  155 1    
    67   33  156 1    
    68   33  157 1    
    69   33  158 1    
    70   34   35 am   BACKBONE|DICT|INTERRES
    71   34  159 1    
    72   35   36 2    
    73   35   37 1    
    74   37   38 1    
    75   37   39 1    
    76   37  160 1    
    77   38  161 1    
    78   38  162 1    
    79   38  163 1    
    80   39   40 am   BACKBONE|DICT|INTERRES
    81   39  164 1    
    82   40   41 2    
    83   40   42 1    
    84   42   43 1    
    85   42   44 1    
    86   42  165 1    
    87   43  166 1    
    88   43  167 1    
    89   43  168 1    
    90   44   45 am   BACKBONE|DICT|INTERRES
    91   44  169 1    
    92   45   46 2    
    93   45   47 1    
    94   47   48 1    
    95   47   49 1    
    96   47  170 1    
    97   48  171 1    
    98   48  172 1    
    99   48  173 1    
   100   49   50 am   BACKBONE|DICT|INTERRES
   101   49  174 1    
   102   50   51 2    
   103   50   52 1    
   104   52   53 1    
   105   52   54 1    
   106   52  175 1    
   107   53  176 1    
   108   53  177 1    
   109   53  178 1    
   110   54   55 am   BACKBONE|DICT|INTERRES
   111   54  179 1    
   112   55   56 2    
   113   55   57 1    
   114   57   58 1    
   115   57   59 1    
   116   57  180 1    
   117   58  181 1    
   118   58  182 1    
   119   58  183 1    
   120   59   60 am   BACKBONE|DICT|INTERRES
   121   59  184 1    
   122   60   61 2    
   123   60   62 1    
   124   62   63 1    
   125   62   64 1    
   126   62  185 1    
   127   63  186 1    
   128   63  187 1    
   129   63  188 1    
   130   64   65 am   BACKBONE|DICT|INTERRES
   131   64  189 1    
   132   65   66 2    
   133   67   68 2    
   134   67   69 am   BACKBONE|DICT|INTERRES
   135   69   70 1    
   136   69  190 1    
   137   70   71 1    
   138   70   72 1    
   139   70  191 1    
   140   71  192 1    
   141   71  193 1    
   142   71  194 1    
   143   72   73 2    
   144   72   74 am   BACKBONE|DICT|INTERRES
   145   74   75 1    
   146   74  195 1    
   147   75   76 1    
   148   75   77 1    
   149   75  196 1    
   150   76  197 1    
   151   76  198 1    
   152   76  199 1    
   153   77   78 2    
   154   77   79 am   BACKBONE|DICT|INTERRES
   155   79   80 1    
   156   79  200 1    
   157   80   81 1    
   158   80   82 1    
   159   80  201 1    
   160   81  202 1    
   161   81  203 1    
   162   81  204 1    
   163   82   83 2    
   164   82   84 am   BACKBONE|DICT|INTERRES
   165   84   85 1    
   166   84  205 1    
   167   85   86 1    
   168   85   87 1    
   169   85  206 1    
   170   86  207 1    
   171   86  208 1    
   172   86  209 1    
   173   87   88 2    
   174   87   89 am   BACKBONE|DICT|INTERRES
   175   89   90 1    
   176   89  210 1    
   177   90   91 1    
   178   90   92 1    
   179   90  211 1    
   180   91  212 1    
   181   91  213 1    
   182   91  214 1    
   183   92   93 2    
   184   92   94 am   BACKBONE|DICT|INTERRES
   185   94   95 1    
   186   94  215 1    
   187   95   96 1    
   188   95   97 1    
   189   95  216 1    
   190   96  217 1    
   191   96  218 1    
   192   96  219 1    
   193   97   98 2    
   194   97   99 am   BACKBONE|DICT|INTERRES
   195   99  100 1    
   196   99  220 1    
   197  100  101 1    
   198  100  102 1    
   199  100  221 1    
   200  101  222 1    
   201  101  223 1    
   202  101  224 1    
   203  102  103 2    
   204  102  104 am   BACKBONE|DICT|INTERRES
   205  104  105 1    
   206  104  225 1    
   207  105  106 1    
   208  105  107 1    
   209  105  226 1    
   210  106  227 1    
   211  106  228 1    
   212  106  229 1    
   213  107  108 2    
   214  107  109 am   BACKBONE|DICT|INTERRES
   215  109  110 1    
   216  109  230 1    
   217  110  111 1    
   218  110  112 1    
   219  110  231 1    
   220  111  232 1    
   221  111  233 1    
   222  111  234 1    
   223  112  113 2    
   224  112  114 am   BACKBONE|DICT|INTERRES
   225  114  115 1    
   226  114  235 1    
   227  115  116 1    
   228  115  117 1    
   229  115  236 1    
   230  116  237 1    
   231  116  238 1    
   232  116  239 1    
   233  117  118 2    
   234  117  119 am   BACKBONE|DICT|INTERRES
   235  119  120 1    
   236  119  240 1    
   237  120  121 1    
   238  120  124 1    
   239  120  241 1    
   240  121  122 am   BACKBONE|DICT|INTERRES
   241  121  123 2    
   242  122  242 1    
   243  122  243 1    
   244  124  125 1    
   245  124  244 1    
   246  124  245 1    
   247  125  126 1    
   248  126  246 1    
   249  126  247 1    
@<TRIPOS>SUBSTRUCTURE
     1 UNK         1 GROUP             0       ****    0 ROOT    
