@<TRIPOS>MOLECULE
3R540
247   249    1
SMALL
USER_CHARGES


@<TRIPOS>ATOM
      1 CA          5.4881  -19.1586  -48.0900 C.3       0 UNK        -0.1800 
      2 C           4.5594  -17.9959  -47.7702 C.2       0 UNK         0.5000 
      3 O           3.8451  -18.0393  -46.7678 O.2       0 UNK        -0.5000 
      4 N           4.5599  -16.9576  -48.6156 N.am      1 UNK        -0.5000 
      5 CA          3.7827  -15.7289  -48.4380 C.3       1 UNK         0.1400 
      6 C6          3.5608  -14.9993  -49.7873 C.3       23 UNK        -0.0398 
      7 S7          2.2753  -13.7029  -49.6817 S.3       23 UNK        -0.2404 
      8 C8          1.0264  -14.2857  -50.8716 C.3       23 UNK        -0.0205 
      9 C9          0.2372  -15.4742  -50.3443 C.ar      23 UNK        -0.0193 
     10 C10        -0.7773  -15.2798  -49.4036 C.ar      23 UNK        -0.1150 
     11 C11        -1.5218  -16.3617  -48.9240 C.ar      23 UNK        -0.0193 
     12 C12        -1.2479  -17.6479  -49.3946 C.ar      23 UNK        -0.1150 
     13 C13        -0.2393  -17.8528  -50.3417 C.ar      23 UNK        -0.0193 
     14 C14         0.4985  -16.7638  -50.8135 C.ar      23 UNK        -0.1150 
     15 C15         0.0280  -19.2461  -50.8839 C.3       23 UNK        -0.0205 
     16 S16         1.6643  -19.8942  -50.4244 S.3       23 UNK        -0.2404 
     17 C17         1.5041  -20.0832  -48.6201 C.3       23 UNK        -0.0398 
     18 CA          1.0539  -21.5025  -48.1933 C.3       11 UNK         0.1400 
     19 N           1.6886  -21.9083  -46.9373 N.am      11 UNK        -0.5000 
     20 C           1.5979  -23.1237  -46.3802 C.2       10 UNK         0.5000 
     21 O           1.0041  -24.0685  -46.8967 O.2       10 UNK        -0.5000 
     22 CA          2.2384  -23.3009  -44.9890 C.3       10 UNK         0.1400 
     23 CB          3.6628  -23.8583  -45.1256 C.3       10 UNK        -0.1800 
     24 N           2.2780  -22.0727  -44.1890 N.am      10 UNK        -0.5000 
     25 C           1.2146  -21.3348  -43.8407 C.2       9 UNK         0.5000 
     26 O           0.0559  -21.6104  -44.1667 O.2       9 UNK        -0.5000 
     27 CA          1.5298  -20.0532  -43.0496 C.3       9 UNK         0.1400 
     28 CB          2.3371  -19.0653  -43.9090 C.3       9 UNK        -0.1800 
     29 N           0.3161  -19.3833  -42.5915 N.am      9 UNK        -0.5000 
     30 C          -0.3535  -19.6899  -41.4727 C.2       8 UNK         0.5000 
     31 O          -0.0186  -20.6002  -40.7125 O.2       8 UNK        -0.5000 
     32 CA         -1.5852  -18.8314  -41.1182 C.3       8 UNK         0.1400 
     33 CB         -1.3917  -18.1385  -39.7585 C.3       8 UNK        -0.1800 
     34 N          -1.8423  -17.7996  -42.1239 N.am      8 UNK        -0.5000 
     35 C          -2.9054  -17.7590  -42.9377 C.2       7 UNK         0.5000 
     36 O          -3.8326  -18.5671  -42.8865 O.2       7 UNK        -0.5000 
     37 CA         -2.9569  -16.6309  -43.9912 C.3       7 UNK         0.1400 
     38 CB         -3.9748  -15.5559  -43.5822 C.3       7 UNK        -0.1800 
     39 N          -1.6692  -15.9809  -44.2425 N.am      7 UNK        -0.5000 
     40 C          -0.5999  -16.5592  -44.8064 C.2       6 UNK         0.5000 
     41 O          -0.5821  -17.7202  -45.2108 O.2       6 UNK        -0.5000 
     42 CA          0.6827  -15.7098  -44.8769 C.3       6 UNK         0.1400 
     43 CB          0.7271  -14.9455  -46.2050 C.3       6 UNK        -0.1800 
     44 N           0.8418  -14.7676  -43.7620 N.am      6 UNK        -0.5000 
     45 C           0.8567  -15.1004  -42.4597 C.2       5 UNK         0.5000 
     46 O           0.6809  -16.2504  -42.0581 O.2       5 UNK        -0.5000 
     47 CA          1.0858  -13.9848  -41.4228 C.3       5 UNK         0.1400 
     48 CB          2.3520  -14.2599  -40.5952 C.3       5 UNK        -0.1800 
     49 N           1.1845  -12.6560  -42.0277 N.am      5 UNK        -0.5000 
     50 C           0.1404  -11.8473  -42.2586 C.2       4 UNK         0.5000 
     51 O          -1.0212  -12.1424  -41.9758 O.2       4 UNK        -0.5000 
     52 CA          0.4286  -10.4855  -42.9245 C.3       4 UNK         0.1400 
     53 CB          0.4812   -9.3724  -41.8669 C.3       4 UNK        -0.1800 
     54 N           1.6687  -10.4573  -43.7033 N.am      4 UNK        -0.5000 
     55 C           1.8776  -11.1473  -44.8318 C.2       3 UNK         0.5000 
     56 O           1.0247  -11.8708  -45.3460 O.2       3 UNK        -0.5000 
     57 CA          3.2761  -11.0543  -45.4802 C.3       3 UNK         0.1400 
     58 CB          4.2195  -10.0300  -44.8102 C.3       3 UNK        -0.1800 
     59 N           3.9270  -12.3660  -45.5512 N.am      3 UNK        -0.5000 
     60 C           4.1513  -13.2212  -44.5440 C.2       2 UNK         0.5000 
     61 O           3.8366  -12.9809  -43.3772 O.2       2 UNK        -0.5000 
     62 CA          4.8308  -14.5664  -44.8987 C.3       2 UNK         0.1400 
     63 CB          4.7726  -15.5755  -43.7367 C.3       2 UNK        -0.1800 
     64 N           4.2819  -15.2166  -46.0926 N.am      2 UNK        -0.5000 
     65 C           4.4534  -14.8397  -47.3653 C.2       1 UNK         0.5000 
     66 O           5.1239  -13.8594  -47.6944 O.2       1 UNK        -0.5000 
     67 C          -0.4837  -21.6014  -48.1172 C.2       11 UNK         0.5000 
     68 O          -1.1089  -22.1435  -49.0295 O.2       11 UNK        -0.5000 
     69 N          -1.0618  -21.1077  -47.0132 N.am      12 UNK        -0.5000 
     70 CA         -2.4951  -21.1786  -46.7398 C.3       12 UNK         0.1400 
     71 CB         -2.8654  -20.1585  -45.6588 C.3       12 UNK        -0.1800 
     72 C          -2.9436  -22.5931  -46.3409 C.2       12 UNK         0.5000 
     73 O          -4.0408  -22.9990  -46.7215 O.2       12 UNK        -0.5000 
     74 N          -2.0799  -23.3415  -45.6377 N.am      13 UNK        -0.5000 
     75 CA         -2.3028  -24.7513  -45.2943 C.3       13 UNK         0.1400 
     76 CB         -1.2161  -25.2284  -44.3203 C.3       13 UNK        -0.1800 
     77 C          -2.3635  -25.6620  -46.5387 C.2       13 UNK         0.5000 
     78 O          -3.1864  -26.5762  -46.5874 O.2       13 UNK        -0.5000 
     79 N          -1.5299  -25.3563  -47.5425 N.am      14 UNK        -0.5000 
     80 CA         -1.5346  -25.9686  -48.8737 C.3       14 UNK         0.1400 
     81 CB         -0.1478  -25.7671  -49.5065 C.3       14 UNK        -0.1800 
     82 C          -2.6320  -25.4064  -49.8035 C.2       14 UNK         0.5000 
     83 O          -2.7302  -25.8464  -50.9508 O.2       14 UNK        -0.5000 
     84 N          -3.4058  -24.4217  -49.3217 N.am      15 UNK        -0.5000 
     85 CA         -4.4694  -23.6925  -50.0162 C.3       15 UNK         0.1400 
     86 CB         -5.7073  -24.5914  -50.2061 C.3       15 UNK        -0.1800 
     87 C          -3.9922  -23.0265  -51.3218 C.2       15 UNK         0.5000 
     88 O          -4.7207  -23.0318  -52.3153 O.2       15 UNK        -0.5000 
     89 N          -2.7721  -22.4695  -51.2875 N.am      16 UNK        -0.5000 
     90 CA         -2.0562  -21.8431  -52.4016 C.3       16 UNK         0.1400 
     91 CB         -2.7067  -20.4932  -52.7701 C.3       16 UNK        -0.1800 
     92 C          -1.8596  -22.8028  -53.5933 C.2       16 UNK         0.5000 
     93 O          -2.1196  -22.4366  -54.7398 O.2       16 UNK        -0.5000 
     94 N          -1.4020  -24.0221  -53.2682 N.am      17 UNK        -0.5000 
     95 CA         -1.2231  -25.1763  -54.1556 C.3       17 UNK         0.1400 
     96 CB         -0.1769  -24.8901  -55.2542 C.3       17 UNK        -0.1800 
     97 C          -2.5705  -25.6949  -54.6991 C.2       17 UNK         0.5000 
     98 O          -2.6982  -25.9554  -55.8971 O.2       17 UNK        -0.5000 
     99 N          -3.5291  -25.8463  -53.7734 N.am      18 UNK        -0.5000 
    100 CA        -4.9259  -26.2568  -53.9354 C.3       18 UNK         0.1400 
    101 CB        -5.0372  -27.6352  -54.6162 C.3       18 UNK        -0.1800 
    102 C         -5.8145  -25.2131  -54.6423 C.2       18 UNK         0.5000 
    103 O         -5.3741  -24.5113  -55.5542 O.2       18 UNK        -0.5000 
    104 N         -7.0841  -25.1693  -54.2137 N.am      19 UNK        -0.5000 
    105 CA        -8.2310  -24.4245  -54.7554 C.3       19 UNK         0.1400 
    106 CB        -8.5483  -24.8800  -56.1927 C.3       19 UNK        -0.1800 
    107 C         -8.1611  -22.8847  -54.6766 C.2       19 UNK         0.5000 
    108 O         -9.1989  -22.2586  -54.4567 O.2       19 UNK        -0.5000 
    109 N         -6.9759  -22.2948  -54.8705 N.am      20 UNK        -0.5000 
    110 CA        -6.7501  -20.8479  -54.8886 C.3       20 UNK         0.1400 
    111 CB        -5.3582  -20.5559  -55.4668 C.3       20 UNK        -0.1800 
    112 C         -6.9641  -20.1787  -53.5170 C.2       20 UNK         0.5000 
    113 O         -7.5326  -19.0878  -53.4628 O.2       20 UNK        -0.5000 
    114 N         -6.5448  -20.8628  -52.4421 N.am      21 UNK        -0.5000 
    115 CA        -6.8755  -20.6136  -51.0333 C.3       21 UNK         0.1400 
    116 CB        -8.3030  -21.1249  -50.7530 C.3       21 UNK        -0.1800 
    117 C         -6.6539  -19.1638  -50.5472 C.2       21 UNK         0.5000 
    118 O         -7.5011  -18.6240  -49.8339 O.2       21 UNK        -0.5000 
    119 N         -5.5246  -18.5581  -50.9456 N.am      22 UNK        -0.5000 
    120 CA        -5.1589  -17.1543  -50.6589 C.3       22 UNK         0.1400 
    121 C         -6.0032  -16.1007  -51.4540 C.2       22 UNK         0.5000 
    122 N         -6.8234  -16.4864  -52.4248 N.am      22 UNK        -0.7600 
    123 O         -5.8952  -14.9000  -51.2250 O.2       22 UNK        -0.5000 
    124 C124       -5.0817  -16.8767  -49.1241 C.3       23 UNK        -0.0398 
    125 S125       -4.1048  -15.4128  -48.6272 S.3       23 UNK        -0.2404 
    126 C126       -2.6077  -16.1318  -47.8868 C.3       23 UNK        -0.0205 
    127 H127        6.0263  -19.0017  -49.0250 H         1 UNK         0.0600 
    128 H128        4.9202  -20.0847  -48.1771 H         1 UNK         0.0600 
    129 H129        6.2199  -19.2816  -47.2918 H         1 UNK         0.0600 
    130 H130        5.1851  -16.9700  -49.4090 H         1 UNK         0.3000 
    131 H131        2.7975  -16.0157  -48.0655 H         1 UNK         0.0600 
    132 H132        4.4862  -14.5519  -50.1539 H         1 UNK         0.0800 
    133 H133        3.2650  -15.7226  -50.5476 H         1 UNK         0.0800 
    134 H134        0.3373  -13.4666  -51.0822 H         1 UNK         0.0800 
    135 H135        1.5070  -14.5262  -51.8212 H         1 UNK         0.0800 
    136 H136       -0.9861  -14.2831  -49.0404 H         1 UNK         0.1150 
    137 H137       -1.8227  -18.4864  -49.0268 H         1 UNK         0.1150 
    138 H138        1.2728  -16.9240  -51.5506 H         1 UNK         0.1150 
    139 H139       -0.7377  -19.9370  -50.5358 H         1 UNK         0.0800 
    140 H140       -0.0461  -19.2214  -51.9718 H         1 UNK         0.0800 
    141 H141        0.8771  -19.2962  -48.1965 H         1 UNK         0.0800 
    142 H142        2.4990  -19.8902  -48.2258 H         1 UNK         0.0800 
    143 H143        1.3878  -22.2198  -48.9465 H         1 UNK         0.0600 
    144 H144        2.1963  -21.1959  -46.4344 H         1 UNK         0.3000 
    145 H145        1.6403  -24.0278  -44.4386 H         1 UNK         0.0600 
    146 H146        3.6651  -24.7888  -45.6953 H         1 UNK         0.0600 
    147 H147        4.3223  -23.1574  -45.6391 H         1 UNK         0.0600 
    148 H148        4.0973  -24.0765  -44.1499 H         1 UNK         0.0600 
    149 H149        3.1935  -21.7739  -43.8852 H         1 UNK         0.3000 
    150 H150        2.1335  -20.3277  -42.1821 H         1 UNK         0.0600 
    151 H151        2.5061  -18.1286  -43.3776 H         1 UNK         0.0600 
    152 H152        1.8285  -18.8353  -44.8455 H         1 UNK         0.0600 
    153 H153        3.3184  -19.4663  -44.1646 H         1 UNK         0.0600 
    154 H154       -0.0627  -18.6764  -43.2064 H         1 UNK         0.3000 
    155 H155       -2.4336  -19.5134  -41.0366 H         1 UNK         0.0600 
    156 H156       -0.5306  -17.4689  -39.7685 H         1 UNK         0.0600 
    157 H157       -1.2327  -18.8677  -38.9633 H         1 UNK         0.0600 
    158 H158       -2.2694  -17.5513  -39.4879 H         1 UNK         0.0600 
    159 H159       -1.1095  -17.1041  -42.2267 H         1 UNK         0.3000 
    160 H160       -3.2963  -17.0786  -44.9264 H         1 UNK         0.0600 
    161 H161       -4.9601  -15.9926  -43.4133 H         1 UNK         0.0600 
    162 H162       -4.0859  -14.8014  -44.3614 H         1 UNK         0.0600 
    163 H163       -3.6772  -15.0500  -42.6628 H         1 UNK         0.0600 
    164 H164       -1.5781  -15.0271  -43.9239 H         1 UNK         0.3000 
    165 H165        1.5341  -16.3906  -44.8503 H         1 UNK         0.0600 
    166 H166        1.6367  -14.3554  -46.3001 H         1 UNK         0.0600 
    167 H167        0.6975  -15.6374  -47.0463 H         1 UNK         0.0600 
    168 H168       -0.1183  -14.2644  -46.3078 H         1 UNK         0.0600 
    169 H169        0.9728  -13.7955  -44.0107 H         1 UNK         0.3000 
    170 H170        0.2358  -14.0077  -40.7377 H         1 UNK         0.0600 
    171 H171        2.5153  -13.4792  -39.8522 H         1 UNK         0.0600 
    172 H172        2.2689  -15.2054  -40.0578 H         1 UNK         0.0600 
    173 H173        3.2425  -14.3200  -41.2202 H         1 UNK         0.0600 
    174 H174        2.1085  -12.3807  -42.3444 H         1 UNK         0.3000 
    175 H175       -0.4003  -10.2728  -43.6028 H         1 UNK         0.0600 
    176 H176        1.3057   -9.5202  -41.1681 H         1 UNK         0.0600 
    177 H177        0.6035   -8.3929  -42.3297 H         1 UNK         0.0600 
    178 H178       -0.4409   -9.3420  -41.2848 H         1 UNK         0.0600 
    179 H179        2.4265   -9.9053  -43.3286 H         1 UNK         0.3000 
    180 H180        3.1130  -10.7328  -46.5098 H         1 UNK         0.0600 
    181 H181        5.1648   -9.9659  -45.3492 H         1 UNK         0.0600 
    182 H182        4.4501  -10.2941  -43.7774 H         1 UNK         0.0600 
    183 H183        3.7844   -9.0298  -44.8135 H         1 UNK         0.0600 
    184 H184        4.2296  -12.6618  -46.4745 H         1 UNK         0.3000 
    185 H185        5.8820  -14.3428  -45.0904 H         1 UNK         0.0600 
    186 H186        3.7445  -15.8288  -43.4764 H         1 UNK         0.0600 
    187 H187        5.2905  -16.5008  -43.9900 H         1 UNK         0.0600 
    188 H188        5.2496  -15.1746  -42.8415 H         1 UNK         0.0600 
    189 H189        3.7909  -16.0894  -45.9376 H         1 UNK         0.3000 
    190 H190       -0.4839  -20.7340  -46.2720 H         1 UNK         0.3000 
    191 H191       -3.0335  -20.9080  -47.6511 H         1 UNK         0.0600 
    192 H192       -2.3030  -20.3200  -44.7384 H         1 UNK         0.0600 
    193 H193       -3.9263  -20.2123  -45.4110 H         1 UNK         0.0600 
    194 H194       -2.6652  -19.1453  -46.0025 H         1 UNK         0.0600 
    195 H195       -1.2168  -22.9152  -45.3208 H         1 UNK         0.3000 
    196 H196       -3.2661  -24.8170  -44.7842 H         1 UNK         0.0600 
    197 H197       -1.4575  -26.2170  -43.9283 H         1 UNK         0.0600 
    198 H198       -1.1179  -24.5541  -43.4691 H         1 UNK         0.0600 
    199 H199       -0.2451  -25.3040  -44.8076 H         1 UNK         0.0600 
    200 H200       -0.8266  -24.6407  -47.3850 H         1 UNK         0.3000 
    201 H201       -1.7127  -27.0407  -48.7698 H         1 UNK         0.0600 
    202 H202        0.6358  -26.1942  -48.8803 H         1 UNK         0.0600 
    203 H203        0.0784  -24.7093  -49.6475 H         1 UNK         0.0600 
    204 H204       -0.0823  -26.2519  -50.4813 H         1 UNK         0.0600 
    205 H205       -3.2458  -24.1273  -48.3669 H         1 UNK         0.3000 
    206 H206       -4.7584  -22.8745  -49.3559 H         1 UNK         0.0600 
    207 H207       -6.5263  -24.0472  -50.6778 H         1 UNK         0.0600 
    208 H208       -5.4852  -25.4583  -50.8257 H         1 UNK         0.0600 
    209 H209       -6.0735  -24.9558  -49.2463 H         1 UNK         0.0600 
    210 H210       -2.2519  -22.5050  -50.4117 H         1 UNK         0.3000 
    211 H211       -1.0487  -21.6380  -52.0408 H         1 UNK         0.0600 
    212 H212       -3.7447  -20.6138  -53.0680 H         1 UNK         0.0600 
    213 H213       -2.1784  -20.0085  -53.5918 H         1 UNK         0.0600 
    214 H214       -2.6921  -19.8060  -51.9251 H         1 UNK         0.0600 
    215 H215       -1.2678  -24.2161  -52.2859 H         1 UNK         0.3000 
    216 H216       -0.8231  -25.9764  -53.5308 H         1 UNK         0.0600 
    217 H217        0.0534  -25.7966  -55.8150 H         1 UNK         0.0600 
    218 H218        0.7574  -24.5285  -54.8248 H         1 UNK         0.0600 
    219 H219       -0.5277  -24.1470  -55.9706 H         1 UNK         0.0600 
    220 H220       -3.2740  -25.6232  -52.8155 H         1 UNK         0.3000 
    221 H221       -5.3018  -26.3700  -52.9190 H         1 UNK         0.0600 
    222 H222       -4.7372  -27.5994  -55.6637 H         1 UNK         0.0600 
    223 H223       -4.4168  -28.3766  -54.1126 H         1 UNK         0.0600 
    224 H224       -6.0648  -27.9995  -54.5891 H         1 UNK         0.0600 
    225 H225       -7.3220  -25.7657  -53.4336 H         1 UNK         0.3000 
    226 H226       -9.0781  -24.7172  -54.1328 H         1 UNK         0.0600 
    227 H227       -8.6994  -25.9584  -56.2408 H         1 UNK         0.0600 
    228 H228       -9.4609  -24.4079  -56.5589 H         1 UNK         0.0600 
    229 H229       -7.7482  -24.6217  -56.8870 H         1 UNK         0.0600 
    230 H230       -6.1798  -22.8972  -55.0655 H         1 UNK         0.3000 
    231 H231       -7.4839  -20.4066  -55.5664 H         1 UNK         0.0600 
    232 H232       -4.5973  -21.1998  -55.0278 H         1 UNK         0.0600 
    233 H233       -5.3436  -20.7301  -56.5427 H         1 UNK         0.0600 
    234 H234       -5.0620  -19.5191  -55.3016 H         1 UNK         0.0600 
    235 H235       -6.0261  -21.7223  -52.6124 H         1 UNK         0.3000 
    236 H236       -6.1935  -21.2242  -50.4437 H         1 UNK         0.0600 
    237 H237       -9.0499  -20.5425  -51.2938 H         1 UNK         0.0600 
    238 H238       -8.4133  -22.1673  -51.0522 H         1 UNK         0.0600 
    239 H239       -8.5436  -21.0674  -49.6907 H         1 UNK         0.0600 
    240 H240       -4.9043  -19.0593  -51.5638 H         1 UNK         0.3000 
    241 H241       -4.1466  -17.0490  -51.0510 H         1 UNK         0.0600 
    242 H242       -7.3434  -15.7862  -52.9287 H         1 UNK         0.3800 
    243 H243       -6.9641  -17.4665  -52.6545 H         1 UNK         0.3800 
    244 H244       -6.0844  -16.7504  -48.7143 H         1 UNK         0.0800 
    245 H245       -4.6687  -17.7490  -48.6167 H         1 UNK         0.0800 
    246 H246       -2.8445  -17.0533  -47.3543 H         1 UNK         0.0800 
    247 H247       -2.2354  -15.4369  -47.1338 H         1 UNK         0.0800 
@<TRIPOS>BOND
     1    1    2 1    
     2    1  127 1    
     3    1  128 1    
     4    1  129 1    
     5    2    3 2    
     6    2    4 am   BACKBONE|DICT|INTERRES
     7    4    5 1    
     8    4  130 1    
     9    5    6 1    
    10    5   65 1    
    11    5  131 1    
    12    6    7 1    
    13    6  132 1    
    14    6  133 1    
    15    7    8 1    
    16    8    9 1    
    17    8  134 1    
    18    8  135 1    
    19    9   10 ar   
    20    9   14 ar   
    21   10   11 ar   
    22   10  136 1    
    23   11   12 ar   
    24   11  126 1    
    25   12   13 ar   
    26   12  137 1    
    27   13   14 ar   
    28   13   15 1    
    29   14  138 1    
    30   15   16 1    
    31   15  139 1    
    32   15  140 1    
    33   16   17 1    
    34   17   18 1    
    35   17  141 1    
    36   17  142 1    
    37   18   19 1    
    38   18   67 1    
    39   18  143 1    
    40   19   20 am   BACKBONE|DICT|INTERRES
    41   19  144 1    
    42   20   21 2    
    43   20   22 1    
    44   22   23 1    
    45   22   24 1    
    46   22  145 1    
    47   23  146 1    
    48   23  147 1    
    49   23  148 1    
    50   24   25 am   BACKBONE|DICT|INTERRES
    51   24  149 1    
    52   25   26 2    
    53   25   27 1    
    54   27   28 1    
    55   27   29 1    
    56   27  150 1    
    57   28  151 1    
    58   28  152 1    
    59   28  153 1    
    60   29   30 am   BACKBONE|DICT|INTERRES
    61   29  154 1    
    62   30   31 2    
    63   30   32 1    
    64   32   33 1    
    65   32   34 1    
    66   32  155 1    
    67   33  156 1    
    68   33  157 1    
    69   33  158 1    
    70   34   35 am   BACKBONE|DICT|INTERRES
    71   34  159 1    
    72   35   36 2    
    73   35   37 1    
    74   37   38 1    
    75   37   39 1    
    76   37  160 1    
    77   38  161 1    
    78   38  162 1    
    79   38  163 1    
    80   39   40 am   BACKBONE|DICT|INTERRES
    81   39  164 1    
    82   40   41 2    
    83   40   42 1    
    84   42   43 1    
    85   42   44 1    
    86   42  165 1    
    87   43  166 1    
    88   43  167 1    
    89   43  168 1    
    90   44   45 am   BACKBONE|DICT|INTERRES
    91   44  169 1    
    92   45   46 2    
    93   45   47 1    
    94   47   48 1    
    95   47   49 1    
    96   47  170 1    
    97   48  171 1    
    98   48  172 1    
    99   48  173 1    
   100   49   50 am   BACKBONE|DICT|INTERRES
   101   49  174 1    
   102   50   51 2    
   103   50   52 1    
   104   52   53 1    
   105   52   54 1    
   106   52  175 1    
   107   53  176 1    
   108   53  177 1    
   109   53  178 1    
   110   54   55 am   BACKBONE|DICT|INTERRES
   111   54  179 1    
   112   55   56 2    
   113   55   57 1    
   114   57   58 1    
   115   57   59 1    
   116   57  180 1    
   117   58  181 1    
   118   58  182 1    
   119   58  183 1    
   120   59   60 am   BACKBONE|DICT|INTERRES
   121   59  184 1    
   122   60   61 2    
   123   60   62 1    
   124   62   63 1    
   125   62   64 1    
   126   62  185 1    
   127   63  186 1    
   128   63  187 1    
   129   63  188 1    
   130   64   65 am   BACKBONE|DICT|INTERRES
   131   64  189 1    
   132   65   66 2    
   133   67   68 2    
   134   67   69 am   BACKBONE|DICT|INTERRES
   135   69   70 1    
   136   69  190 1    
   137   70   71 1    
   138   70   72 1    
   139   70  191 1    
   140   71  192 1    
   141   71  193 1    
   142   71  194 1    
   143   72   73 2    
   144   72   74 am   BACKBONE|DICT|INTERRES
   145   74   75 1    
   146   74  195 1    
   147   75   76 1    
   148   75   77 1    
   149   75  196 1    
   150   76  197 1    
   151   76  198 1    
   152   76  199 1    
   153   77   78 2    
   154   77   79 am   BACKBONE|DICT|INTERRES
   155   79   80 1    
   156   79  200 1    
   157   80   81 1    
   158   80   82 1    
   159   80  201 1    
   160   81  202 1    
   161   81  203 1    
   162   81  204 1    
   163   82   83 2    
   164   82   84 am   BACKBONE|DICT|INTERRES
   165   84   85 1    
   166   84  205 1    
   167   85   86 1    
   168   85   87 1    
   169   85  206 1    
   170   86  207 1    
   171   86  208 1    
   172   86  209 1    
   173   87   88 2    
   174   87   89 am   BACKBONE|DICT|INTERRES
   175   89   90 1    
   176   89  210 1    
   177   90   91 1    
   178   90   92 1    
   179   90  211 1    
   180   91  212 1    
   181   91  213 1    
   182   91  214 1    
   183   92   93 2    
   184   92   94 am   BACKBONE|DICT|INTERRES
   185   94   95 1    
   186   94  215 1    
   187   95   96 1    
   188   95   97 1    
   189   95  216 1    
   190   96  217 1    
   191   96  218 1    
   192   96  219 1    
   193   97   98 2    
   194   97   99 am   BACKBONE|DICT|INTERRES
   195   99  100 1    
   196   99  220 1    
   197  100  101 1    
   198  100  102 1    
   199  100  221 1    
   200  101  222 1    
   201  101  223 1    
   202  101  224 1    
   203  102  103 2    
   204  102  104 am   BACKBONE|DICT|INTERRES
   205  104  105 1    
   206  104  225 1    
   207  105  106 1    
   208  105  107 1    
   209  105  226 1    
   210  106  227 1    
   211  106  228 1    
   212  106  229 1    
   213  107  108 2    
   214  107  109 am   BACKBONE|DICT|INTERRES
   215  109  110 1    
   216  109  230 1    
   217  110  111 1    
   218  110  112 1    
   219  110  231 1    
   220  111  232 1    
   221  111  233 1    
   222  111  234 1    
   223  112  113 2    
   224  112  114 am   BACKBONE|DICT|INTERRES
   225  114  115 1    
   226  114  235 1    
   227  115  116 1    
   228  115  117 1    
   229  115  236 1    
   230  116  237 1    
   231  116  238 1    
   232  116  239 1    
   233  117  118 2    
   234  117  119 am   BACKBONE|DICT|INTERRES
   235  119  120 1    
   236  119  240 1    
   237  120  121 1    
   238  120  124 1    
   239  120  241 1    
   240  121  122 am   BACKBONE|DICT|INTERRES
   241  121  123 2    
   242  122  242 1    
   243  122  243 1    
   244  124  125 1    
   245  124  244 1    
   246  124  245 1    
   247  125  126 1    
   248  126  246 1    
   249  126  247 1    
@<TRIPOS>SUBSTRUCTURE
     1 UNK         1 GROUP             0       ****    0 ROOT    
