@<TRIPOS>MOLECULE
3R540
247   249    1
SMALL
USER_CHARGES


@<TRIPOS>ATOM
      1 CA          7.8196  -16.9790  -46.5511 C.3       0 UNK        -0.1800 
      2 C           7.0776  -15.6783  -46.8228 C.2       0 UNK         0.5000 
      3 O           7.7006  -14.6847  -47.1954 O.2       0 UNK        -0.5000 
      4 N           5.7510  -15.6826  -46.6288 N.am      1 UNK        -0.5000 
      5 CA          4.8360  -14.5524  -46.8536 C.3       1 UNK         0.1400 
      6 C6          4.8527  -14.0494  -48.3255 C.3       23 UNK        -0.0398 
      7 S7          3.3096  -13.2550  -48.8990 S.3       23 UNK        -0.2404 
      8 C8          2.0612  -14.5772  -48.7871 C.3       23 UNK        -0.0205 
      9 C9          2.3822  -15.7846  -49.6535 C.ar      23 UNK        -0.0193 
     10 C10         2.0816  -15.7662  -51.0177 C.ar      23 UNK        -0.1150 
     11 C11         2.3844  -16.8644  -51.8270 C.ar      23 UNK        -0.0193 
     12 C12         2.9835  -17.9923  -51.2556 C.ar      23 UNK        -0.1150 
     13 C13         3.2742  -18.0309  -49.8893 C.ar      23 UNK        -0.0193 
     14 C14         2.9693  -16.9231  -49.0929 C.ar      23 UNK        -0.1150 
     15 C15         3.9635  -19.2492  -49.2884 C.3       23 UNK        -0.0205 
     16 S16         2.9710  -20.0635  -47.9981 S.3       23 UNK        -0.2404 
     17 C17         1.5409  -20.6818  -48.9477 C.3       23 UNK        -0.0398 
     18 CA          0.7737  -21.7814  -48.1738 C.3       11 UNK         0.1400 
     19 N           0.1633  -21.2771  -46.9377 N.am      11 UNK        -0.5000 
     20 C          -0.3934  -22.0453  -45.9915 C.2       10 UNK         0.5000 
     21 O          -0.4079  -23.2756  -46.0377 O.2       10 UNK        -0.5000 
     22 CA         -1.0990  -21.3215  -44.8286 C.3       10 UNK         0.1400 
     23 CB         -0.0878  -20.8547  -43.7711 C.3       10 UNK        -0.1800 
     24 N          -1.9121  -20.1891  -45.2804 N.am      10 UNK        -0.5000 
     25 C          -3.0198  -20.3100  -46.0269 C.2       9 UNK         0.5000 
     26 O          -3.4849  -21.3923  -46.3762 O.2       9 UNK        -0.5000 
     27 CA         -3.7027  -19.0149  -46.5027 C.3       9 UNK         0.1400 
     28 CB         -4.6367  -18.4590  -45.4188 C.3       9 UNK        -0.1800 
     29 N          -2.7442  -17.9855  -46.8989 N.am      9 UNK        -0.5000 
     30 C          -1.8949  -18.0921  -47.9296 C.2       8 UNK         0.5000 
     31 O          -1.8765  -19.0423  -48.7124 O.2       8 UNK        -0.5000 
     32 CA         -0.8680  -16.9597  -48.0945 C.3       8 UNK         0.1400 
     33 CB         -1.5241  -15.7511  -48.7806 C.3       8 UNK        -0.1800 
     34 N          -0.2755  -16.5597  -46.8157 N.am      8 UNK        -0.5000 
     35 C           0.4051  -17.3837  -46.0052 C.2       7 UNK         0.5000 
     36 O           0.6363  -18.5593  -46.2722 O.2       7 UNK        -0.5000 
     37 CA          0.8436  -16.8311  -44.6403 C.3       7 UNK         0.1400 
     38 CB          2.1783  -16.0817  -44.7406 C.3       7 UNK        -0.1800 
     39 N          -0.1823  -15.9708  -44.0552 N.am      7 UNK        -0.5000 
     40 C          -1.3296  -16.4309  -43.5368 C.2       6 UNK         0.5000 
     41 O          -1.5968  -17.6277  -43.4252 O.2       6 UNK        -0.5000 
     42 CA         -2.3724  -15.3767  -43.1245 C.3       6 UNK         0.1400 
     43 CB         -2.1335  -14.9001  -41.6852 C.3       6 UNK        -0.1800 
     44 N          -2.3828  -14.2270  -44.0316 N.am      6 UNK        -0.5000 
     45 C          -2.8424  -14.2831  -45.2902 C.2       5 UNK         0.5000 
     46 O          -3.3286  -15.2984  -45.7888 O.2       5 UNK        -0.5000 
     47 CA         -2.7013  -13.0144  -46.1542 C.3       5 UNK         0.1400 
     48 CB         -3.9505  -12.1319  -46.0186 C.3       5 UNK        -0.1800 
     49 N          -1.5106  -12.2131  -45.8587 N.am      5 UNK        -0.5000 
     50 C          -0.2457  -12.6455  -45.9506 C.2       4 UNK         0.5000 
     51 O           0.0509  -13.7972  -46.2658 O.2       4 UNK        -0.5000 
     52 CA          0.8845  -11.6529  -45.6085 C.3       4 UNK         0.1400 
     53 CB          0.4043  -10.2033  -45.3746 C.3       4 UNK        -0.1800 
     54 N           1.6885  -12.1088  -44.4703 N.am      4 UNK        -0.5000 
     55 C           1.2491  -12.4194  -43.2393 C.2       3 UNK         0.5000 
     56 O           0.0593  -12.3993  -42.9190 O.2       3 UNK        -0.5000 
     57 CA          2.3025  -12.8326  -42.1892 C.3       3 UNK         0.1400 
     58 CB          1.8380  -14.0426  -41.3596 C.3       3 UNK        -0.1800 
     59 N           3.6047  -13.1354  -42.7903 N.am      3 UNK        -0.5000 
     60 C           4.6420  -12.2890  -42.8433 C.2       2 UNK         0.5000 
     61 O           4.6272  -11.1537  -42.3670 O.2       2 UNK        -0.5000 
     62 CA          5.9055  -12.7879  -43.5719 C.3       2 UNK         0.1400 
     63 CB          6.8738  -13.4474  -42.5781 C.3       2 UNK        -0.1800 
     64 N           5.6330  -13.7264  -44.6655 N.am      2 UNK        -0.5000 
     65 C           4.9704  -13.4286  -45.7938 C.2       1 UNK         0.5000 
     66 O           4.4433  -12.3321  -45.9830 O.2       1 UNK        -0.5000 
     67 C          -0.2671  -22.4760  -49.0766 C.2       11 UNK         0.5000 
     68 O           0.0314  -23.5190  -49.6586 O.2       11 UNK        -0.5000 
     69 N          -1.4847  -21.9210  -49.1363 N.am      12 UNK        -0.5000 
     70 CA         -2.6232  -22.5184  -49.8289 C.3       12 UNK         0.1400 
     71 CB         -3.7373  -21.4780  -49.9582 C.3       12 UNK        -0.1800 
     72 C          -3.1373  -23.7937  -49.1394 C.2       12 UNK         0.5000 
     73 O          -3.5096  -24.7424  -49.8270 O.2       12 UNK        -0.5000 
     74 N          -3.1374  -23.8181  -47.7995 N.am      13 UNK        -0.5000 
     75 CA         -3.5119  -24.9813  -46.9930 C.3       13 UNK         0.1400 
     76 CB         -3.6594  -24.5804  -45.5184 C.3       13 UNK        -0.1800 
     77 C          -2.5224  -26.1466  -47.1536 C.2       13 UNK         0.5000 
     78 O          -2.9548  -27.2956  -47.2343 O.2       13 UNK        -0.5000 
     79 N          -1.2251  -25.8321  -47.2775 N.am      14 UNK        -0.5000 
     80 CA         -0.1681  -26.7876  -47.6223 C.3       14 UNK         0.1400 
     81 CB          1.2021  -26.1127  -47.4613 C.3       14 UNK        -0.1800 
     82 C          -0.3298  -27.3798  -49.0393 C.2       14 UNK         0.5000 
     83 O           0.0488  -28.5297  -49.2630 O.2       14 UNK        -0.5000 
     84 N          -0.9287  -26.6035  -49.9529 N.am      15 UNK        -0.5000 
     85 CA         -1.3231  -27.0220  -51.3004 C.3       15 UNK         0.1400 
     86 CB         -1.2633  -25.7997  -52.2326 C.3       15 UNK        -0.1800 
     87 C          -2.7178  -27.6898  -51.3457 C.2       15 UNK         0.5000 
     88 O          -3.1554  -28.0817  -52.4282 O.2       15 UNK        -0.5000 
     89 N          -3.3854  -27.8110  -50.1870 N.am      16 UNK        -0.5000 
     90 CA         -4.7127  -28.3934  -49.9630 C.3       16 UNK         0.1400 
     91 CB         -4.7140  -29.9015  -50.2911 C.3       16 UNK        -0.1800 
     92 C          -5.8589  -27.6191  -50.6504 C.2       16 UNK         0.5000 
     93 O          -6.8314  -28.2310  -51.0971 O.2       16 UNK        -0.5000 
     94 N          -5.7414  -26.2867  -50.7089 N.am      17 UNK        -0.5000 
     95 CA         -6.7136  -25.3857  -51.3271 C.3       17 UNK         0.1400 
     96 CB         -6.3712  -25.2090  -52.8195 C.3       17 UNK        -0.1800 
     97 C          -6.7606  -24.0532  -50.5597 C.2       17 UNK         0.5000 
     98 O          -6.6897  -22.9915  -51.1765 O.2       17 UNK        -0.5000 
     99 N          -6.8614  -24.1364  -49.2231 N.am      18 UNK        -0.5000 
    100 CA        -6.7112  -23.0513  -48.2380 C.3       18 UNK         0.1400 
    101 CB        -7.1503  -23.5681  -46.8594 C.3       18 UNK        -0.1800 
    102 C         -7.4247  -21.7204  -48.5485 C.2       18 UNK         0.5000 
    103 O         -6.8832  -20.6573  -48.2442 O.2       18 UNK        -0.5000 
    104 N         -8.6143  -21.8006  -49.1560 N.am      19 UNK        -0.5000 
    105 CA        -9.4353  -20.6505  -49.5344 C.3       19 UNK         0.1400 
    106 CB       -10.8555  -21.1469  -49.8486 C.3       19 UNK        -0.1800 
    107 C         -8.8800  -19.8307  -50.7185 C.2       19 UNK         0.5000 
    108 O         -9.3024  -18.6870  -50.8946 O.2       19 UNK        -0.5000 
    109 N         -7.9807  -20.4149  -51.5248 N.am      20 UNK        -0.5000 
    110 CA        -7.4492  -19.7955  -52.7411 C.3       20 UNK         0.1400 
    111 CB        -6.7891  -20.8726  -53.6167 C.3       20 UNK        -0.1800 
    112 C         -6.4580  -18.6487  -52.4701 C.2       20 UNK         0.5000 
    113 O         -6.4609  -17.6753  -53.2245 O.2       20 UNK        -0.5000 
    114 N         -5.6480  -18.7981  -51.4090 N.am      21 UNK        -0.5000 
    115 CA        -4.4884  -17.9827  -51.0176 C.3       21 UNK         0.1400 
    116 CB        -4.8719  -16.5084  -50.7856 C.3       21 UNK        -0.1800 
    117 C         -3.3091  -18.1254  -52.0084 C.2       21 UNK         0.5000 
    118 O         -3.4881  -17.9410  -53.2128 O.2       21 UNK        -0.5000 
    119 N         -2.1236  -18.4509  -51.4720 N.am      22 UNK        -0.5000 
    120 CA        -0.9122  -18.8966  -52.1852 C.3       22 UNK         0.1400 
    121 C         -1.0168  -20.3857  -52.6343 C.2       22 UNK         0.5000 
    122 N          0.0832  -21.1259  -52.6007 N.am      22 UNK        -0.7600 
    123 O         -2.0720  -20.8815  -53.0204 O.2       22 UNK        -0.5000 
    124 C124       -0.4823  -17.9441  -53.3382 C.3       23 UNK        -0.0398 
    125 S125        1.2090  -18.2386  -53.9625 S.3       23 UNK        -0.2404 
    126 C126        2.1245  -16.7989  -53.3265 C.3       23 UNK        -0.0205 
    127 H127        8.5602  -16.8315  -45.7651 H         1 UNK         0.0600 
    128 H128        8.3376  -17.3096  -47.4514 H         1 UNK         0.0600 
    129 H129        7.1436  -17.7748  -46.2372 H         1 UNK         0.0600 
    130 H130        5.3140  -16.5373  -46.3134 H         1 UNK         0.3000 
    131 H131        3.8554  -14.9796  -46.6736 H         1 UNK         0.0600 
    132 H132        5.0522  -14.8810  -49.0025 H         1 UNK         0.0800 
    133 H133        5.6754  -13.3494  -48.4791 H         1 UNK         0.0800 
    134 H134        1.9141  -14.8766  -47.7510 H         1 UNK         0.0800 
    135 H135        1.1146  -14.1470  -49.1092 H         1 UNK         0.0800 
    136 H136        1.6326  -14.8835  -51.4513 H         1 UNK         0.1150 
    137 H137        3.2393  -18.8344  -51.8829 H         1 UNK         0.1150 
    138 H138        3.1970  -16.9496  -48.0372 H         1 UNK         0.1150 
    139 H139        4.2138  -19.9791  -50.0598 H         1 UNK         0.0800 
    140 H140        4.9111  -18.9325  -48.8508 H         1 UNK         0.0800 
    141 H141        1.9076  -21.0698  -49.8997 H         1 UNK         0.0800 
    142 H142        0.8846  -19.8419  -49.1822 H         1 UNK         0.0800 
    143 H143        1.4946  -22.5498  -47.8857 H         1 UNK         0.0600 
    144 H144        0.2043  -20.2702  -46.7896 H         1 UNK         0.3000 
    145 H145       -1.7695  -22.0389  -44.3514 H         1 UNK         0.0600 
    146 H146       -0.5877  -20.3623  -42.9368 H         1 UNK         0.0600 
    147 H147        0.4664  -21.7018  -43.3653 H         1 UNK         0.0600 
    148 H148        0.6408  -20.1577  -44.1834 H         1 UNK         0.0600 
    149 H149       -1.5972  -19.2647  -45.0151 H         1 UNK         0.3000 
    150 H150       -4.3097  -19.2609  -47.3765 H         1 UNK         0.0600 
    151 H151       -5.3803  -19.2019  -45.1273 H         1 UNK         0.0600 
    152 H152       -5.1760  -17.5819  -45.7769 H         1 UNK         0.0600 
    153 H153       -4.0879  -18.1707  -44.5218 H         1 UNK         0.0600 
    154 H154       -2.7369  -17.1332  -46.3471 H         1 UNK         0.3000 
    155 H155       -0.0569  -17.3215  -48.7297 H         1 UNK         0.0600 
    156 H156       -2.4987  -15.5172  -48.3522 H         1 UNK         0.0600 
    157 H157       -1.6720  -15.9482  -49.8425 H         1 UNK         0.0600 
    158 H158       -0.9162  -14.8538  -48.6998 H         1 UNK         0.0600 
    159 H159       -0.3701  -15.5837  -46.5465 H         1 UNK         0.3000 
    160 H160        0.9972  -17.6862  -43.9785 H         1 UNK         0.0600 
    161 H161        2.0641  -15.1160  -45.2306 H         1 UNK         0.0600 
    162 H162        2.9065  -16.6656  -45.3045 H         1 UNK         0.0600 
    163 H163        2.6068  -15.9118  -43.7546 H         1 UNK         0.0600 
    164 H164       -0.0766  -14.9745  -44.1851 H         1 UNK         0.3000 
    165 H165       -3.3551  -15.8521  -43.1617 H         1 UNK         0.0600 
    166 H166       -2.9090  -14.2033  -41.3670 H         1 UNK         0.0600 
    167 H167       -2.1444  -15.7398  -40.9891 H         1 UNK         0.0600 
    168 H168       -1.1717  -14.4002  -41.5809 H         1 UNK         0.0600 
    169 H169       -1.9503  -13.3735  -43.7004 H         1 UNK         0.3000 
    170 H170       -2.6263  -13.3363  -47.1943 H         1 UNK         0.0600 
    171 H171       -4.8542  -12.6946  -46.2569 H         1 UNK         0.0600 
    172 H172       -4.0618  -11.7454  -45.0047 H         1 UNK         0.0600 
    173 H173       -3.9098  -11.2821  -46.7004 H         1 UNK         0.0600 
    174 H174       -1.6699  -11.2615  -45.5619 H         1 UNK         0.3000 
    175 H175        1.5506  -11.6466  -46.4727 H         1 UNK         0.0600 
    176 H176       -0.2520  -10.1196  -44.5077 H         1 UNK         0.0600 
    177 H177        1.2522   -9.5388  -45.2076 H         1 UNK         0.0600 
    178 H178       -0.1331   -9.8194  -46.2427 H         1 UNK         0.0600 
    179 H179        2.6821  -12.1765  -44.6532 H         1 UNK         0.3000 
    180 H180        2.4023  -11.9898  -41.5025 H         1 UNK         0.0600 
    181 H181        1.5523  -14.8866  -41.9857 H         1 UNK         0.0600 
    182 H182        0.9735  -13.7827  -40.7484 H         1 UNK         0.0600 
    183 H183        2.6193  -14.3784  -40.6776 H         1 UNK         0.0600 
    184 H184        3.7113  -14.0462  -43.2107 H         1 UNK         0.3000 
    185 H185        6.4009  -11.9142  -44.0007 H         1 UNK         0.0600 
    186 H186        7.1214  -12.7661  -41.7629 H         1 UNK         0.0600 
    187 H187        6.4455  -14.3474  -42.1351 H         1 UNK         0.0600 
    188 H188        7.8100  -13.7239  -43.0636 H         1 UNK         0.0600 
    189 H189        6.0358  -14.6481  -44.5811 H         1 UNK         0.3000 
    190 H190       -1.6468  -21.0355  -48.6685 H         1 UNK         0.3000 
    191 H191       -2.3020  -22.7930  -50.8358 H         1 UNK         0.0600 
    192 H192       -3.3832  -20.6155  -50.5118 H         1 UNK         0.0600 
    193 H193       -4.5817  -21.8785  -50.5115 H         1 UNK         0.0600 
    194 H194       -4.0981  -21.1342  -48.9897 H         1 UNK         0.0600 
    195 H195       -2.9108  -22.9677  -47.2917 H         1 UNK         0.3000 
    196 H196       -4.4840  -25.3298  -47.3467 H         1 UNK         0.0600 
    197 H197       -3.9907  -25.4275  -44.9166 H         1 UNK         0.0600 
    198 H198       -4.3967  -23.7873  -45.3954 H         1 UNK         0.0600 
    199 H199       -2.7176  -24.2295  -45.0980 H         1 UNK         0.0600 
    200 H200       -0.9442  -24.8671  -47.1307 H         1 UNK         0.3000 
    201 H201       -0.2236  -27.6151  -46.9121 H         1 UNK         0.0600 
    202 H202        1.3387  -25.7342  -46.4481 H         1 UNK         0.0600 
    203 H203        1.3243  -25.2765  -48.1492 H         1 UNK         0.0600 
    204 H204        2.0098  -26.8189  -47.6574 H         1 UNK         0.0600 
    205 H205       -1.1848  -25.6615  -49.6879 H         1 UNK         0.3000 
    206 H206       -0.6039  -27.7566  -51.6679 H         1 UNK         0.0600 
    207 H207       -0.2821  -25.3256  -52.1996 H         1 UNK         0.0600 
    208 H208       -1.4497  -26.0876  -53.2678 H         1 UNK         0.0600 
    209 H209       -2.0058  -25.0483  -51.9657 H         1 UNK         0.0600 
    210 H210       -2.9408  -27.4484  -49.3530 H         1 UNK         0.3000 
    211 H211       -4.9003  -28.2993  -48.8929 H         1 UNK         0.0600 
    212 H212       -4.6016  -30.0851  -51.3599 H         1 UNK         0.0600 
    213 H213       -5.6473  -30.3698  -49.9764 H         1 UNK         0.0600 
    214 H214       -3.9046  -30.4174  -49.7746 H         1 UNK         0.0600 
    215 H215       -4.9031  -25.8404  -50.3379 H         1 UNK         0.3000 
    216 H216       -7.7151  -25.8139  -51.2525 H         1 UNK         0.0600 
    217 H217       -7.0922  -24.5578  -53.3153 H         1 UNK         0.0600 
    218 H218       -6.3838  -26.1646  -53.3437 H         1 UNK         0.0600 
    219 H219       -5.3819  -24.7686  -52.9508 H         1 UNK         0.0600 
    220 H220       -6.9425  -25.0637  -48.8329 H         1 UNK         0.3000 
    221 H221       -5.6497  -22.8209  -48.1777 H         1 UNK         0.0600 
    222 H222       -8.2106  -23.8231  -46.8465 H         1 UNK         0.0600 
    223 H223       -6.5913  -24.4560  -46.5666 H         1 UNK         0.0600 
    224 H224       -6.9833  -22.8142  -46.0887 H         1 UNK         0.0600 
    225 H225       -8.9723  -22.7143  -49.3918 H         1 UNK         0.3000 
    226 H226       -9.4934  -19.9783  -48.6757 H         1 UNK         0.0600 
    227 H227      -11.2944  -21.6577  -48.9913 H         1 UNK         0.0600 
    228 H228      -11.5149  -20.3153  -50.1009 H         1 UNK         0.0600 
    229 H229      -10.8617  -21.8381  -50.6923 H         1 UNK         0.0600 
    230 H230       -7.6554  -21.3557  -51.3151 H         1 UNK         0.3000 
    231 H231       -8.2899  -19.3812  -53.3021 H         1 UNK         0.0600 
    232 H232       -7.4835  -21.6823  -53.8415 H         1 UNK         0.0600 
    233 H233       -5.9140  -21.3063  -53.1307 H         1 UNK         0.0600 
    234 H234       -6.4581  -20.4523  -54.5671 H         1 UNK         0.0600 
    235 H235       -5.7811  -19.6383  -50.8641 H         1 UNK         0.3000 
    236 H236       -4.1733  -18.3818  -50.0531 H         1 UNK         0.0600 
    237 H237       -4.0398  -15.9539  -50.3535 H         1 UNK         0.0600 
    238 H238       -5.1443  -16.0042  -51.7129 H         1 UNK         0.0600 
    239 H239       -5.7118  -16.4231  -50.0961 H         1 UNK         0.0600 
    240 H240       -2.0896  -18.6240  -50.4703 H         1 UNK         0.3000 
    241 H241       -0.1302  -18.8530  -51.4254 H         1 UNK         0.0600 
    242 H242        0.0285  -22.0882  -52.8936 H         1 UNK         0.3800 
    243 H243        0.9782  -20.7275  -52.3692 H         1 UNK         0.3800 
    244 H244       -0.5612  -16.9078  -53.0074 H         1 UNK         0.0800 
    245 H245       -1.1577  -18.0395  -54.1889 H         1 UNK         0.0800 
    246 H246        1.5900  -15.8865  -53.5956 H         1 UNK         0.0800 
    247 H247        3.0869  -16.7490  -53.8372 H         1 UNK         0.0800 
@<TRIPOS>BOND
     1    1    2 1    
     2    1  127 1    
     3    1  128 1    
     4    1  129 1    
     5    2    3 2    
     6    2    4 am   BACKBONE|DICT|INTERRES
     7    4    5 1    
     8    4  130 1    
     9    5    6 1    
    10    5   65 1    
    11    5  131 1    
    12    6    7 1    
    13    6  132 1    
    14    6  133 1    
    15    7    8 1    
    16    8    9 1    
    17    8  134 1    
    18    8  135 1    
    19    9   10 ar   
    20    9   14 ar   
    21   10   11 ar   
    22   10  136 1    
    23   11   12 ar   
    24   11  126 1    
    25   12   13 ar   
    26   12  137 1    
    27   13   14 ar   
    28   13   15 1    
    29   14  138 1    
    30   15   16 1    
    31   15  139 1    
    32   15  140 1    
    33   16   17 1    
    34   17   18 1    
    35   17  141 1    
    36   17  142 1    
    37   18   19 1    
    38   18   67 1    
    39   18  143 1    
    40   19   20 am   BACKBONE|DICT|INTERRES
    41   19  144 1    
    42   20   21 2    
    43   20   22 1    
    44   22   23 1    
    45   22   24 1    
    46   22  145 1    
    47   23  146 1    
    48   23  147 1    
    49   23  148 1    
    50   24   25 am   BACKBONE|DICT|INTERRES
    51   24  149 1    
    52   25   26 2    
    53   25   27 1    
    54   27   28 1    
    55   27   29 1    
    56   27  150 1    
    57   28  151 1    
    58   28  152 1    
    59   28  153 1    
    60   29   30 am   BACKBONE|DICT|INTERRES
    61   29  154 1    
    62   30   31 2    
    63   30   32 1    
    64   32   33 1    
    65   32   34 1    
    66   32  155 1    
    67   33  156 1    
    68   33  157 1    
    69   33  158 1    
    70   34   35 am   BACKBONE|DICT|INTERRES
    71   34  159 1    
    72   35   36 2    
    73   35   37 1    
    74   37   38 1    
    75   37   39 1    
    76   37  160 1    
    77   38  161 1    
    78   38  162 1    
    79   38  163 1    
    80   39   40 am   BACKBONE|DICT|INTERRES
    81   39  164 1    
    82   40   41 2    
    83   40   42 1    
    84   42   43 1    
    85   42   44 1    
    86   42  165 1    
    87   43  166 1    
    88   43  167 1    
    89   43  168 1    
    90   44   45 am   BACKBONE|DICT|INTERRES
    91   44  169 1    
    92   45   46 2    
    93   45   47 1    
    94   47   48 1    
    95   47   49 1    
    96   47  170 1    
    97   48  171 1    
    98   48  172 1    
    99   48  173 1    
   100   49   50 am   BACKBONE|DICT|INTERRES
   101   49  174 1    
   102   50   51 2    
   103   50   52 1    
   104   52   53 1    
   105   52   54 1    
   106   52  175 1    
   107   53  176 1    
   108   53  177 1    
   109   53  178 1    
   110   54   55 am   BACKBONE|DICT|INTERRES
   111   54  179 1    
   112   55   56 2    
   113   55   57 1    
   114   57   58 1    
   115   57   59 1    
   116   57  180 1    
   117   58  181 1    
   118   58  182 1    
   119   58  183 1    
   120   59   60 am   BACKBONE|DICT|INTERRES
   121   59  184 1    
   122   60   61 2    
   123   60   62 1    
   124   62   63 1    
   125   62   64 1    
   126   62  185 1    
   127   63  186 1    
   128   63  187 1    
   129   63  188 1    
   130   64   65 am   BACKBONE|DICT|INTERRES
   131   64  189 1    
   132   65   66 2    
   133   67   68 2    
   134   67   69 am   BACKBONE|DICT|INTERRES
   135   69   70 1    
   136   69  190 1    
   137   70   71 1    
   138   70   72 1    
   139   70  191 1    
   140   71  192 1    
   141   71  193 1    
   142   71  194 1    
   143   72   73 2    
   144   72   74 am   BACKBONE|DICT|INTERRES
   145   74   75 1    
   146   74  195 1    
   147   75   76 1    
   148   75   77 1    
   149   75  196 1    
   150   76  197 1    
   151   76  198 1    
   152   76  199 1    
   153   77   78 2    
   154   77   79 am   BACKBONE|DICT|INTERRES
   155   79   80 1    
   156   79  200 1    
   157   80   81 1    
   158   80   82 1    
   159   80  201 1    
   160   81  202 1    
   161   81  203 1    
   162   81  204 1    
   163   82   83 2    
   164   82   84 am   BACKBONE|DICT|INTERRES
   165   84   85 1    
   166   84  205 1    
   167   85   86 1    
   168   85   87 1    
   169   85  206 1    
   170   86  207 1    
   171   86  208 1    
   172   86  209 1    
   173   87   88 2    
   174   87   89 am   BACKBONE|DICT|INTERRES
   175   89   90 1    
   176   89  210 1    
   177   90   91 1    
   178   90   92 1    
   179   90  211 1    
   180   91  212 1    
   181   91  213 1    
   182   91  214 1    
   183   92   93 2    
   184   92   94 am   BACKBONE|DICT|INTERRES
   185   94   95 1    
   186   94  215 1    
   187   95   96 1    
   188   95   97 1    
   189   95  216 1    
   190   96  217 1    
   191   96  218 1    
   192   96  219 1    
   193   97   98 2    
   194   97   99 am   BACKBONE|DICT|INTERRES
   195   99  100 1    
   196   99  220 1    
   197  100  101 1    
   198  100  102 1    
   199  100  221 1    
   200  101  222 1    
   201  101  223 1    
   202  101  224 1    
   203  102  103 2    
   204  102  104 am   BACKBONE|DICT|INTERRES
   205  104  105 1    
   206  104  225 1    
   207  105  106 1    
   208  105  107 1    
   209  105  226 1    
   210  106  227 1    
   211  106  228 1    
   212  106  229 1    
   213  107  108 2    
   214  107  109 am   BACKBONE|DICT|INTERRES
   215  109  110 1    
   216  109  230 1    
   217  110  111 1    
   218  110  112 1    
   219  110  231 1    
   220  111  232 1    
   221  111  233 1    
   222  111  234 1    
   223  112  113 2    
   224  112  114 am   BACKBONE|DICT|INTERRES
   225  114  115 1    
   226  114  235 1    
   227  115  116 1    
   228  115  117 1    
   229  115  236 1    
   230  116  237 1    
   231  116  238 1    
   232  116  239 1    
   233  117  118 2    
   234  117  119 am   BACKBONE|DICT|INTERRES
   235  119  120 1    
   236  119  240 1    
   237  120  121 1    
   238  120  124 1    
   239  120  241 1    
   240  121  122 am   BACKBONE|DICT|INTERRES
   241  121  123 2    
   242  122  242 1    
   243  122  243 1    
   244  124  125 1    
   245  124  244 1    
   246  124  245 1    
   247  125  126 1    
   248  126  246 1    
   249  126  247 1    
@<TRIPOS>SUBSTRUCTURE
     1 UNK         1 GROUP             0       ****    0 ROOT    
