@<TRIPOS>MOLECULE
3R540
247   249    1
SMALL
USER_CHARGES


@<TRIPOS>ATOM
      1 CA          4.4792  -14.8415  -48.6820 C.3       0 UNK        -0.1800 
      2 C           3.2470  -14.9153  -47.7930 C.2       0 UNK         0.5000 
      3 O           3.3618  -14.8056  -46.5732 O.2       0 UNK        -0.5000 
      4 N           2.0653  -15.0906  -48.3956 N.am      1 UNK        -0.5000 
      5 CA          0.7634  -15.2292  -47.7288 C.3       1 UNK         0.1400 
      6 C6         -0.2347  -16.0294  -48.6075 C.3       23 UNK        -0.0398 
      7 S7          0.2607  -17.7723  -48.8137 S.3       23 UNK        -0.2404 
      8 C8          0.9981  -17.7887  -50.4774 C.3       23 UNK        -0.0205 
      9 C9          1.3908  -19.2009  -50.8912 C.ar      23 UNK        -0.0193 
     10 C10         0.8253  -19.7935  -52.0245 C.ar      23 UNK        -0.1150 
     11 C11         1.1820  -21.0922  -52.4020 C.ar      23 UNK        -0.0193 
     12 C12         2.1025  -21.8040  -51.6267 C.ar      23 UNK        -0.1150 
     13 C13         2.6721  -21.2260  -50.4891 C.ar      23 UNK        -0.0193 
     14 C14         2.3253  -19.9186  -50.1384 C.ar      23 UNK        -0.1150 
     15 C15         3.6698  -22.0111  -49.6487 C.3       23 UNK        -0.0205 
     16 S16         2.8508  -23.1779  -48.5132 S.3       23 UNK        -0.2404 
     17 C17         2.1430  -22.0378  -47.2815 C.3       23 UNK        -0.0398 
     18 CA          1.1576  -22.7182  -46.2929 C.3       11 UNK         0.1400 
     19 N           1.2308  -22.0756  -44.9776 N.am      11 UNK        -0.5000 
     20 C           1.9901  -22.4947  -43.9570 C.2       10 UNK         0.5000 
     21 O           2.5304  -23.6011  -43.9100 O.2       10 UNK        -0.5000 
     22 CA          2.2254  -21.4556  -42.8376 C.3       10 UNK         0.1400 
     23 CB          3.2778  -21.8933  -41.7988 C.3       10 UNK        -0.1800 
     24 N           2.5546  -20.1401  -43.4018 N.am      10 UNK        -0.5000 
     25 C           3.5756  -19.8393  -44.2201 C.2       9 UNK         0.5000 
     26 O           4.5101  -20.5989  -44.4760 O.2       9 UNK        -0.5000 
     27 CA          3.5181  -18.4656  -44.9093 C.3       9 UNK         0.1400 
     28 CB          2.7964  -18.5735  -46.2614 C.3       9 UNK        -0.1800 
     29 N           2.8635  -17.4442  -44.0915 N.am      9 UNK        -0.5000 
     30 C           3.4901  -16.7774  -43.1141 C.2       8 UNK         0.5000 
     31 O           4.6443  -17.0114  -42.7524 O.2       8 UNK        -0.5000 
     32 CA          2.7010  -15.6477  -42.4399 C.3       8 UNK         0.1400 
     33 CB          2.5099  -14.4628  -43.3943 C.3       8 UNK        -0.1800 
     34 N           1.4011  -16.0925  -41.9395 N.am      8 UNK        -0.5000 
     35 C           1.2406  -16.6851  -40.7487 C.2       7 UNK         0.5000 
     36 O           2.1719  -17.0129  -40.0124 O.2       7 UNK        -0.5000 
     37 CA         -0.2033  -16.9257  -40.2889 C.3       7 UNK         0.1400 
     38 CB         -0.9719  -15.6005  -40.1416 C.3       7 UNK        -0.1800 
     39 N          -0.9160  -17.8058  -41.2080 N.am      7 UNK        -0.5000 
     40 C          -0.9046  -19.1441  -41.1376 C.2       6 UNK         0.5000 
     41 O          -0.2423  -19.7833  -40.3205 O.2       6 UNK        -0.5000 
     42 CA         -1.8027  -19.9026  -42.1329 C.3       6 UNK         0.1400 
     43 CB         -3.1485  -20.2455  -41.4747 C.3       6 UNK        -0.1800 
     44 N          -2.0534  -19.1404  -43.3554 N.am      6 UNK        -0.5000 
     45 C          -1.1680  -19.0032  -44.3494 C.2       5 UNK         0.5000 
     46 O          -0.0808  -19.5762  -44.3786 O.2       5 UNK        -0.5000 
     47 CA         -1.5559  -18.0682  -45.5041 C.3       5 UNK         0.1400 
     48 CB         -2.1819  -18.8841  -46.6392 C.3       5 UNK        -0.1800 
     49 N          -2.4811  -17.0023  -45.1143 N.am      5 UNK        -0.5000 
     50 C          -2.1867  -16.0003  -44.2779 C.2       4 UNK         0.5000 
     51 O          -1.0969  -15.8745  -43.7114 O.2       4 UNK        -0.5000 
     52 CA         -3.3257  -15.0173  -43.9853 C.3       4 UNK         0.1400 
     53 CB         -4.0772  -15.4156  -42.7032 C.3       4 UNK        -0.1800 
     54 N          -2.7717  -13.6780  -43.8567 N.am      4 UNK        -0.5000 
     55 C          -3.4371  -12.5333  -44.0372 C.2       3 UNK         0.5000 
     56 O          -4.6455  -12.4782  -44.2692 O.2       3 UNK        -0.5000 
     57 CA         -2.6208  -11.2251  -43.9814 C.3       3 UNK         0.1400 
     58 CB         -2.2171  -10.8717  -42.5360 C.3       3 UNK        -0.1800 
     59 N          -1.4685  -11.2027  -44.8955 N.am      3 UNK        -0.5000 
     60 C          -0.3605  -11.9536  -44.8484 C.2       2 UNK         0.5000 
     61 O          -0.1204  -12.7663  -43.9552 O.2       2 UNK        -0.5000 
     62 CA          0.6467  -11.7785  -45.9978 C.3       2 UNK         0.1400 
     63 CB          1.9197  -11.0735  -45.5056 C.3       2 UNK        -0.1800 
     64 N           1.0105  -13.0729  -46.5706 N.am      2 UNK        -0.5000 
     65 C           0.1981  -13.8556  -47.2917 C.2       1 UNK         0.5000 
     66 O          -0.9406  -13.5188  -47.6212 O.2       1 UNK        -0.5000 
     67 C          -0.2934  -22.7576  -46.8196 C.2       11 UNK         0.5000 
     68 O          -0.5062  -22.8741  -48.0268 O.2       11 UNK        -0.5000 
     69 N          -1.2787  -22.6643  -45.9127 N.am      12 UNK        -0.5000 
     70 CA         -2.7124  -22.5646  -46.2133 C.3       12 UNK         0.1400 
     71 CB         -3.4965  -22.4051  -44.9044 C.3       12 UNK        -0.1800 
     72 C          -3.2964  -23.7130  -47.0561 C.2       12 UNK         0.5000 
     73 O          -4.2464  -23.4797  -47.8046 O.2       12 UNK        -0.5000 
     74 N          -2.7137  -24.9133  -46.9412 N.am      13 UNK        -0.5000 
     75 CA         -3.0893  -26.0903  -47.7246 C.3       13 UNK         0.1400 
     76 CB         -2.4457  -27.3393  -47.1035 C.3       13 UNK        -0.1800 
     77 C          -2.7071  -25.9650  -49.2118 C.2       13 UNK         0.5000 
     78 O          -3.4869  -26.3733  -50.0723 O.2       13 UNK        -0.5000 
     79 N          -1.5279  -25.3908  -49.4884 N.am      14 UNK        -0.5000 
     80 CA         -1.0263  -25.1560  -50.8439 C.3       14 UNK         0.1400 
     81 CB          0.5060  -25.0971  -50.8205 C.3       14 UNK        -0.1800 
     82 C          -1.6016  -23.8630  -51.4411 C.2       14 UNK         0.5000 
     83 O          -1.8892  -23.8206  -52.6363 O.2       14 UNK        -0.5000 
     84 N          -1.7828  -22.8426  -50.5916 N.am      15 UNK        -0.5000 
     85 CA         -2.3854  -21.5574  -50.9396 C.3       15 UNK         0.1400 
     86 CB         -2.0379  -20.5345  -49.8504 C.3       15 UNK        -0.1800 
     87 C          -3.9102  -21.6245  -51.1401 C.2       15 UNK         0.5000 
     88 O          -4.4845  -20.6378  -51.5983 O.2       15 UNK        -0.5000 
     89 N          -4.5375  -22.7519  -50.7757 N.am      16 UNK        -0.5000 
     90 CA         -5.9714  -23.0398  -50.8614 C.3       16 UNK         0.1400 
     91 CB         -6.4171  -23.1351  -52.3344 C.3       16 UNK        -0.1800 
     92 C          -6.8053  -22.0387  -50.0387 C.2       16 UNK         0.5000 
     93 O          -7.6917  -21.3731  -50.5761 O.2       16 UNK        -0.5000 
     94 N          -6.4621  -21.9327  -48.7468 N.am      17 UNK        -0.5000 
     95 CA         -7.0479  -21.0284  -47.7510 C.3       17 UNK         0.1400 
     96 CB         -8.5236  -21.3864  -47.4753 C.3       17 UNK        -0.1800 
     97 C          -6.8336  -19.5411  -48.1051 C.2       17 UNK         0.5000 
     98 O          -7.7585  -18.7336  -48.0033 O.2       17 UNK        -0.5000 
     99 N          -5.5948  -19.2208  -48.5076 N.am      18 UNK        -0.5000 
    100 CA        -5.0872  -17.8858  -48.8474 C.3       18 UNK         0.1400 
    101 CB        -5.1901  -16.9231  -47.6447 C.3       18 UNK        -0.1800 
    102 C         -5.6704  -17.2901  -50.1449 C.2       18 UNK         0.5000 
    103 O         -5.6607  -16.0699  -50.3143 O.2       18 UNK        -0.5000 
    104 N         -6.1111  -18.1553  -51.0677 N.am      19 UNK        -0.5000 
    105 CA        -6.4405  -17.7846  -52.4467 C.3       19 UNK         0.1400 
    106 CB        -7.3178  -18.8858  -53.0610 C.3       19 UNK        -0.1800 
    107 C         -5.1762  -17.5673  -53.3057 C.2       19 UNK         0.5000 
    108 O         -5.2417  -16.8706  -54.3185 O.2       19 UNK        -0.5000 
    109 N         -4.0642  -18.1899  -52.8844 N.am      20 UNK        -0.5000 
    110 CA        -2.7609  -18.2893  -53.5463 C.3       20 UNK         0.1400 
    111 CB        -2.1031  -16.9064  -53.7238 C.3       20 UNK        -0.1800 
    112 C         -2.8255  -19.1165  -54.8466 C.2       20 UNK         0.5000 
    113 O         -2.0514  -18.8823  -55.7761 O.2       20 UNK        -0.5000 
    114 N         -3.7495  -20.0854  -54.8841 N.am      21 UNK        -0.5000 
    115 CA        -4.0154  -20.9626  -56.0213 C.3       21 UNK         0.1400 
    116 CB        -5.4924  -21.3932  -55.9723 C.3       21 UNK        -0.1800 
    117 C         -3.0423  -22.1573  -56.0398 C.2       21 UNK         0.5000 
    118 O         -3.4642  -23.3018  -55.8646 O.2       21 UNK        -0.5000 
    119 N         -1.7513  -21.8588  -56.2296 N.am      22 UNK        -0.5000 
    120 CA        -0.6572  -22.8354  -56.3402 C.3       22 UNK         0.1400 
    121 C         -0.8461  -23.8349  -57.5182 C.2       22 UNK         0.5000 
    122 N         -0.4911  -25.0993  -57.3330 N.am      22 UNK        -0.7600 
    123 O         -1.2646  -23.4629  -58.6127 O.2       22 UNK        -0.5000 
    124 C124        0.7226  -22.1353  -56.4737 C.3       23 UNK        -0.0398 
    125 S125        1.1760  -20.9411  -55.1641 S.3       23 UNK        -0.2404 
    126 C126        0.5726  -21.7306  -53.6412 C.3       23 UNK        -0.0205 
    127 H127        4.9761  -13.8797  -48.5549 H         1 UNK         0.0600 
    128 H128        5.1824  -15.6289  -48.4109 H         1 UNK         0.0600 
    129 H129        4.2267  -14.9590  -49.7361 H         1 UNK         0.0600 
    130 H130        2.0369  -15.1298  -49.4035 H         1 UNK         0.3000 
    131 H131        0.9100  -15.7944  -46.8056 H         1 UNK         0.0600 
    132 H132       -1.2232  -16.0454  -48.1450 H         1 UNK         0.0800 
    133 H133       -0.3658  -15.5575  -49.5826 H         1 UNK         0.0800 
    134 H134        0.2888  -17.3625  -51.1886 H         1 UNK         0.0800 
    135 H135        1.8844  -17.1541  -50.4924 H         1 UNK         0.0800 
    136 H136        0.1176  -19.2420  -52.6246 H         1 UNK         0.1150 
    137 H137        2.3779  -22.8113  -51.9049 H         1 UNK         0.1150 
    138 H138        2.7670  -19.4606  -49.2654 H         1 UNK         0.1150 
    139 H139        4.3334  -22.5720  -50.3082 H         1 UNK         0.0800 
    140 H140        4.3093  -21.3357  -49.0782 H         1 UNK         0.0800 
    141 H141        2.9959  -21.6301  -46.7383 H         1 UNK         0.0800 
    142 H142        1.6717  -21.1877  -47.7763 H         1 UNK         0.0800 
    143 H143        1.4450  -23.7656  -46.1823 H         1 UNK         0.0600 
    144 H144        0.8050  -21.1536  -44.9044 H         1 UNK         0.3000 
    145 H145        1.2742  -21.3414  -42.3165 H         1 UNK         0.0600 
    146 H146        3.4069  -21.1335  -41.0279 H         1 UNK         0.0600 
    147 H147        2.9721  -22.8135  -41.2999 H         1 UNK         0.0600 
    148 H148        4.2508  -22.0772  -42.2550 H         1 UNK         0.0600 
    149 H149        1.8147  -19.4538  -43.3327 H         1 UNK         0.3000 
    150 H150        4.5448  -18.1505  -45.1094 H         1 UNK         0.0600 
    151 H151        3.3261  -19.2552  -46.9262 H         1 UNK         0.0600 
    152 H152        2.7531  -17.6096  -46.7649 H         1 UNK         0.0600 
    153 H153        1.7758  -18.9404  -46.1563 H         1 UNK         0.0600 
    154 H154        1.9148  -17.1955  -44.3271 H         1 UNK         0.3000 
    155 H155        3.3006  -15.2871  -41.6008 H         1 UNK         0.0600 
    156 H156        1.8235  -14.7043  -44.2063 H         1 UNK         0.0600 
    157 H157        3.4571  -14.1582  -43.8412 H         1 UNK         0.0600 
    158 H158        2.1130  -13.5987  -42.8623 H         1 UNK         0.0600 
    159 H159        0.5853  -15.8710  -42.5019 H         1 UNK         0.3000 
    160 H160       -0.1664  -17.3915  -39.3014 H         1 UNK         0.0600 
    161 H161       -1.9728  -15.7702  -39.7448 H         1 UNK         0.0600 
    162 H162       -1.0736  -15.0738  -41.0910 H         1 UNK         0.0600 
    163 H163       -0.4598  -14.9296  -39.4508 H         1 UNK         0.0600 
    164 H164       -1.4239  -17.3589  -41.9573 H         1 UNK         0.3000 
    165 H165       -1.3015  -20.8374  -42.3935 H         1 UNK         0.0600 
    166 H166       -3.7818  -20.8300  -42.1415 H         1 UNK         0.0600 
    167 H167       -3.0006  -20.8372  -40.5703 H         1 UNK         0.0600 
    168 H168       -3.6990  -19.3473  -41.1920 H         1 UNK         0.0600 
    169 H169       -2.9357  -18.6557  -43.4199 H         1 UNK         0.3000 
    170 H170       -0.6374  -17.6065  -45.8706 H         1 UNK         0.0600 
    171 H171       -1.5066  -19.6784  -46.9600 H         1 UNK         0.0600 
    172 H172       -3.1253  -19.3411  -46.3393 H         1 UNK         0.0600 
    173 H173       -2.3714  -18.2572  -47.5077 H         1 UNK         0.0600 
    174 H174       -3.4041  -17.0419  -45.5190 H         1 UNK         0.3000 
    175 H175       -4.0199  -15.0303  -44.8285 H         1 UNK         0.0600 
    176 H176       -3.4289  -15.3764  -41.8280 H         1 UNK         0.0600 
    177 H177       -4.9232  -14.7533  -42.5189 H         1 UNK         0.0600 
    178 H178       -4.4720  -16.4295  -42.7766 H         1 UNK         0.0600 
    179 H179       -1.7619  -13.6333  -43.7208 H         1 UNK         0.3000 
    180 H180       -3.2828  -10.4309  -44.3306 H         1 UNK         0.0600 
    181 H181       -1.5765  -11.6316  -42.0879 H         1 UNK         0.0600 
    182 H182       -3.0988  -10.7786  -41.9009 H         1 UNK         0.0600 
    183 H183       -1.6863   -9.9205  -42.4968 H         1 UNK         0.0600 
    184 H184       -1.5786  -10.5860  -45.6887 H         1 UNK         0.3000 
    185 H185        0.1962  -11.1688  -46.7838 H         1 UNK         0.0600 
    186 H186        1.6858  -10.0952  -45.0839 H         1 UNK         0.0600 
    187 H187        2.4269  -11.6520  -44.7323 H         1 UNK         0.0600 
    188 H188        2.6245  -10.9163  -46.3223 H         1 UNK         0.0600 
    189 H189        1.9232  -13.4439  -46.3273 H         1 UNK         0.3000 
    190 H190       -1.0163  -22.6016  -44.9400 H         1 UNK         0.3000 
    191 H191       -2.8566  -21.6582  -46.7986 H         1 UNK         0.0600 
    192 H192       -3.3437  -23.2537  -44.2367 H         1 UNK         0.0600 
    193 H193       -4.5678  -22.3229  -45.0935 H         1 UNK         0.0600 
    194 H194       -3.1938  -21.5024  -44.3773 H         1 UNK         0.0600 
    195 H195       -1.9432  -25.0152  -46.2976 H         1 UNK         0.3000 
    196 H196       -4.1742  -26.2045  -47.6689 H         1 UNK         0.0600 
    197 H197       -2.7239  -28.2374  -47.6566 H         1 UNK         0.0600 
    198 H198       -2.7723  -27.4798  -46.0729 H         1 UNK         0.0600 
    199 H199       -1.3568  -27.2766  -47.1056 H         1 UNK         0.0600 
    200 H200       -0.9760  -25.0128  -48.7304 H         1 UNK         0.3000 
    201 H201       -1.3222  -25.9883  -51.4863 H         1 UNK         0.0600 
    202 H202        0.9341  -26.0048  -50.3952 H         1 UNK         0.0600 
    203 H203        0.8565  -24.2502  -50.2327 H         1 UNK         0.0600 
    204 H204        0.9078  -24.9851  -51.8281 H         1 UNK         0.0600 
    205 H205       -1.4401  -22.9367  -49.6381 H         1 UNK         0.3000 
    206 H206       -1.9503  -21.2149  -51.8782 H         1 UNK         0.0600 
    207 H207       -2.3303  -19.5268  -50.1470 H         1 UNK         0.0600 
    208 H208       -0.9658  -20.5152  -49.6539 H         1 UNK         0.0600 
    209 H209       -2.5427  -20.7658  -48.9142 H         1 UNK         0.0600 
    210 H210       -3.9742  -23.4767  -50.3541 H         1 UNK         0.3000 
    211 H211       -6.1190  -24.0202  -50.4060 H         1 UNK         0.0600 
    212 H212       -6.3470  -22.1725  -52.8388 H         1 UNK         0.0600 
    213 H213       -7.4535  -23.4664  -52.4072 H         1 UNK         0.0600 
    214 H214       -5.8057  -23.8484  -52.8873 H         1 UNK         0.0600 
    215 H215       -5.6978  -22.5191  -48.4142 H         1 UNK         0.3000 
    216 H216       -6.4954  -21.2000  -46.8260 H         1 UNK         0.0600 
    217 H217       -8.9167  -20.8028  -46.6421 H         1 UNK         0.0600 
    218 H218       -8.6309  -22.4387  -47.2124 H         1 UNK         0.0600 
    219 H219       -9.1596  -21.1895  -48.3387 H         1 UNK         0.0600 
    220 H220       -4.9314  -19.9758  -48.5956 H         1 UNK         0.3000 
    221 H221       -4.0276  -18.0248  -49.0599 H         1 UNK         0.0600 
    222 H222       -6.2163  -16.5943  -47.4782 H         1 UNK         0.0600 
    223 H223       -4.8415  -17.3951  -46.7278 H         1 UNK         0.0600 
    224 H224       -4.5848  -16.0302  -47.8062 H         1 UNK         0.0600 
    225 H225       -6.0824  -19.1466  -50.8636 H         1 UNK         0.3000 
    226 H226       -7.0104  -16.8532  -52.4412 H         1 UNK         0.0600 
    227 H227       -8.2307  -19.0313  -52.4831 H         1 UNK         0.0600 
    228 H228       -7.6126  -18.6298  -54.0795 H         1 UNK         0.0600 
    229 H229       -6.7936  -19.8407  -53.1010 H         1 UNK         0.0600 
    230 H230       -4.1870  -18.8216  -52.0990 H         1 UNK         0.3000 
    231 H231       -2.1333  -18.8609  -52.8633 H         1 UNK         0.0600 
    232 H232       -2.0773  -16.3590  -52.7816 H         1 UNK         0.0600 
    233 H233       -2.6329  -16.2952  -54.4547 H         1 UNK         0.0600 
    234 H234       -1.0733  -17.0068  -54.0684 H         1 UNK         0.0600 
    235 H235       -4.3102  -20.2401  -54.0576 H         1 UNK         0.3000 
    236 H236       -3.8672  -20.4042  -56.9481 H         1 UNK         0.0600 
    237 H237       -5.7476  -22.0070  -56.8369 H         1 UNK         0.0600 
    238 H238       -5.7130  -21.9775  -55.0796 H         1 UNK         0.0600 
    239 H239       -6.1567  -20.5288  -55.9801 H         1 UNK         0.0600 
    240 H240       -1.4972  -20.8835  -56.3329 H         1 UNK         0.3000 
    241 H241       -0.6676  -23.4201  -55.4193 H         1 UNK         0.0600 
    242 H242       -0.5933  -25.7521  -58.0948 H         1 UNK         0.3800 
    243 H243       -0.1402  -25.4283  -56.4467 H         1 UNK         0.3800 
    244 H244        1.5152  -22.8851  -56.5056 H         1 UNK         0.0800 
    245 H245        0.7797  -21.6043  -57.4257 H         1 UNK         0.0800 
    246 H246        0.8050  -22.7962  -53.6663 H         1 UNK         0.0800 
    247 H247       -0.5128  -21.6468  -53.6034 H         1 UNK         0.0800 
@<TRIPOS>BOND
     1    1    2 1    
     2    1  127 1    
     3    1  128 1    
     4    1  129 1    
     5    2    3 2    
     6    2    4 am   BACKBONE|DICT|INTERRES
     7    4    5 1    
     8    4  130 1    
     9    5    6 1    
    10    5   65 1    
    11    5  131 1    
    12    6    7 1    
    13    6  132 1    
    14    6  133 1    
    15    7    8 1    
    16    8    9 1    
    17    8  134 1    
    18    8  135 1    
    19    9   10 ar   
    20    9   14 ar   
    21   10   11 ar   
    22   10  136 1    
    23   11   12 ar   
    24   11  126 1    
    25   12   13 ar   
    26   12  137 1    
    27   13   14 ar   
    28   13   15 1    
    29   14  138 1    
    30   15   16 1    
    31   15  139 1    
    32   15  140 1    
    33   16   17 1    
    34   17   18 1    
    35   17  141 1    
    36   17  142 1    
    37   18   19 1    
    38   18   67 1    
    39   18  143 1    
    40   19   20 am   BACKBONE|DICT|INTERRES
    41   19  144 1    
    42   20   21 2    
    43   20   22 1    
    44   22   23 1    
    45   22   24 1    
    46   22  145 1    
    47   23  146 1    
    48   23  147 1    
    49   23  148 1    
    50   24   25 am   BACKBONE|DICT|INTERRES
    51   24  149 1    
    52   25   26 2    
    53   25   27 1    
    54   27   28 1    
    55   27   29 1    
    56   27  150 1    
    57   28  151 1    
    58   28  152 1    
    59   28  153 1    
    60   29   30 am   BACKBONE|DICT|INTERRES
    61   29  154 1    
    62   30   31 2    
    63   30   32 1    
    64   32   33 1    
    65   32   34 1    
    66   32  155 1    
    67   33  156 1    
    68   33  157 1    
    69   33  158 1    
    70   34   35 am   BACKBONE|DICT|INTERRES
    71   34  159 1    
    72   35   36 2    
    73   35   37 1    
    74   37   38 1    
    75   37   39 1    
    76   37  160 1    
    77   38  161 1    
    78   38  162 1    
    79   38  163 1    
    80   39   40 am   BACKBONE|DICT|INTERRES
    81   39  164 1    
    82   40   41 2    
    83   40   42 1    
    84   42   43 1    
    85   42   44 1    
    86   42  165 1    
    87   43  166 1    
    88   43  167 1    
    89   43  168 1    
    90   44   45 am   BACKBONE|DICT|INTERRES
    91   44  169 1    
    92   45   46 2    
    93   45   47 1    
    94   47   48 1    
    95   47   49 1    
    96   47  170 1    
    97   48  171 1    
    98   48  172 1    
    99   48  173 1    
   100   49   50 am   BACKBONE|DICT|INTERRES
   101   49  174 1    
   102   50   51 2    
   103   50   52 1    
   104   52   53 1    
   105   52   54 1    
   106   52  175 1    
   107   53  176 1    
   108   53  177 1    
   109   53  178 1    
   110   54   55 am   BACKBONE|DICT|INTERRES
   111   54  179 1    
   112   55   56 2    
   113   55   57 1    
   114   57   58 1    
   115   57   59 1    
   116   57  180 1    
   117   58  181 1    
   118   58  182 1    
   119   58  183 1    
   120   59   60 am   BACKBONE|DICT|INTERRES
   121   59  184 1    
   122   60   61 2    
   123   60   62 1    
   124   62   63 1    
   125   62   64 1    
   126   62  185 1    
   127   63  186 1    
   128   63  187 1    
   129   63  188 1    
   130   64   65 am   BACKBONE|DICT|INTERRES
   131   64  189 1    
   132   65   66 2    
   133   67   68 2    
   134   67   69 am   BACKBONE|DICT|INTERRES
   135   69   70 1    
   136   69  190 1    
   137   70   71 1    
   138   70   72 1    
   139   70  191 1    
   140   71  192 1    
   141   71  193 1    
   142   71  194 1    
   143   72   73 2    
   144   72   74 am   BACKBONE|DICT|INTERRES
   145   74   75 1    
   146   74  195 1    
   147   75   76 1    
   148   75   77 1    
   149   75  196 1    
   150   76  197 1    
   151   76  198 1    
   152   76  199 1    
   153   77   78 2    
   154   77   79 am   BACKBONE|DICT|INTERRES
   155   79   80 1    
   156   79  200 1    
   157   80   81 1    
   158   80   82 1    
   159   80  201 1    
   160   81  202 1    
   161   81  203 1    
   162   81  204 1    
   163   82   83 2    
   164   82   84 am   BACKBONE|DICT|INTERRES
   165   84   85 1    
   166   84  205 1    
   167   85   86 1    
   168   85   87 1    
   169   85  206 1    
   170   86  207 1    
   171   86  208 1    
   172   86  209 1    
   173   87   88 2    
   174   87   89 am   BACKBONE|DICT|INTERRES
   175   89   90 1    
   176   89  210 1    
   177   90   91 1    
   178   90   92 1    
   179   90  211 1    
   180   91  212 1    
   181   91  213 1    
   182   91  214 1    
   183   92   93 2    
   184   92   94 am   BACKBONE|DICT|INTERRES
   185   94   95 1    
   186   94  215 1    
   187   95   96 1    
   188   95   97 1    
   189   95  216 1    
   190   96  217 1    
   191   96  218 1    
   192   96  219 1    
   193   97   98 2    
   194   97   99 am   BACKBONE|DICT|INTERRES
   195   99  100 1    
   196   99  220 1    
   197  100  101 1    
   198  100  102 1    
   199  100  221 1    
   200  101  222 1    
   201  101  223 1    
   202  101  224 1    
   203  102  103 2    
   204  102  104 am   BACKBONE|DICT|INTERRES
   205  104  105 1    
   206  104  225 1    
   207  105  106 1    
   208  105  107 1    
   209  105  226 1    
   210  106  227 1    
   211  106  228 1    
   212  106  229 1    
   213  107  108 2    
   214  107  109 am   BACKBONE|DICT|INTERRES
   215  109  110 1    
   216  109  230 1    
   217  110  111 1    
   218  110  112 1    
   219  110  231 1    
   220  111  232 1    
   221  111  233 1    
   222  111  234 1    
   223  112  113 2    
   224  112  114 am   BACKBONE|DICT|INTERRES
   225  114  115 1    
   226  114  235 1    
   227  115  116 1    
   228  115  117 1    
   229  115  236 1    
   230  116  237 1    
   231  116  238 1    
   232  116  239 1    
   233  117  118 2    
   234  117  119 am   BACKBONE|DICT|INTERRES
   235  119  120 1    
   236  119  240 1    
   237  120  121 1    
   238  120  124 1    
   239  120  241 1    
   240  121  122 am   BACKBONE|DICT|INTERRES
   241  121  123 2    
   242  122  242 1    
   243  122  243 1    
   244  124  125 1    
   245  124  244 1    
   246  124  245 1    
   247  125  126 1    
   248  126  246 1    
   249  126  247 1    
@<TRIPOS>SUBSTRUCTURE
     1 UNK         1 GROUP             0       ****    0 ROOT    
