@<TRIPOS>MOLECULE
3R540
247   249    1
SMALL
USER_CHARGES


@<TRIPOS>ATOM
      1 CA         -0.7717  -11.4071  -41.7845 C.3       0 UNK        -0.1800 
      2 C          -0.0797  -11.7518  -43.0955 C.2       0 UNK         0.5000 
      3 O           0.3088  -10.8532  -43.8412 O.2       0 UNK        -0.5000 
      4 N           0.0945  -13.0487  -43.3649 N.am      1 UNK        -0.5000 
      5 CA          0.7273  -13.6060  -44.5649 C.3       1 UNK         0.1400 
      6 C6         -0.1157  -14.7500  -45.1829 C.3       23 UNK        -0.0398 
      7 S7         -1.8223  -14.2401  -45.5915 S.3       23 UNK        -0.2404 
      8 C8         -1.6449  -13.6652  -47.3080 C.3       23 UNK        -0.0205 
      9 C9         -1.8091  -14.7966  -48.3112 C.ar      23 UNK        -0.0193 
     10 C10        -3.0762  -15.1158  -48.8081 C.ar      23 UNK        -0.1150 
     11 C11        -3.2350  -16.1262  -49.7618 C.ar      23 UNK        -0.0193 
     12 C12        -2.1127  -16.8307  -50.2079 C.ar      23 UNK        -0.1150 
     13 C13        -0.8400  -16.5187  -49.7185 C.ar      23 UNK        -0.0193 
     14 C14        -0.6951  -15.5010  -48.7726 C.ar      23 UNK        -0.1150 
     15 C15         0.3898  -17.2536  -50.2256 C.3       23 UNK        -0.0205 
     16 S16         0.9134  -18.5650  -49.0776 S.3       23 UNK        -0.2404 
     17 C17        -0.3046  -19.8672  -49.4461 C.3       23 UNK        -0.0398 
     18 CA         -1.0884  -20.3400  -48.2018 C.3       11 UNK         0.1400 
     19 N          -1.8092  -19.2442  -47.5297 N.am      11 UNK        -0.5000 
     20 C          -2.4841  -19.3672  -46.3779 C.2       10 UNK         0.5000 
     21 O          -2.6000  -20.4374  -45.7729 O.2       10 UNK        -0.5000 
     22 CA         -3.2157  -18.1144  -45.8626 C.3       10 UNK         0.1400 
     23 CB         -4.5303  -17.9126  -46.6325 C.3       10 UNK        -0.1800 
     24 N          -3.5264  -18.2661  -44.4419 N.am      10 UNK        -0.5000 
     25 C          -2.6378  -18.0615  -43.4651 C.2       9 UNK         0.5000 
     26 O          -1.5449  -17.5253  -43.6412 O.2       9 UNK        -0.5000 
     27 CA         -3.0184  -18.5958  -42.0765 C.3       9 UNK         0.1400 
     28 CB         -2.7568  -20.1090  -42.0032 C.3       9 UNK        -0.1800 
     29 N          -2.2104  -17.9392  -41.0539 N.am      9 UNK        -0.5000 
     30 C          -2.6334  -16.9463  -40.2638 C.2       8 UNK         0.5000 
     31 O          -3.7919  -16.5272  -40.2525 O.2       8 UNK        -0.5000 
     32 CA         -1.5985  -16.3135  -39.3125 C.3       8 UNK         0.1400 
     33 CB         -1.7783  -16.8553  -37.8857 C.3       8 UNK        -0.1800 
     34 N          -0.2086  -16.5232  -39.7233 N.am      8 UNK        -0.5000 
     35 C           0.3773  -15.9229  -40.7667 C.2       7 UNK         0.5000 
     36 O          -0.2013  -15.1257  -41.5050 O.2       7 UNK        -0.5000 
     37 CA          1.8691  -16.2209  -41.0141 C.3       7 UNK         0.1400 
     38 CB          2.5760  -16.9565  -39.8537 C.3       7 UNK        -0.1800 
     39 N           2.0962  -16.9218  -42.2798 N.am      7 UNK        -0.5000 
     40 C           1.6404  -18.1315  -42.6420 C.2       6 UNK         0.5000 
     41 O           0.8938  -18.8220  -41.9458 O.2       6 UNK        -0.5000 
     42 CA          2.1606  -18.6883  -43.9851 C.3       6 UNK         0.1400 
     43 CB          1.1185  -18.5663  -45.1053 C.3       6 UNK        -0.1800 
     44 N           3.3951  -18.0259  -44.4150 N.am      6 UNK        -0.5000 
     45 C           4.6268  -18.4037  -44.0447 C.2       5 UNK         0.5000 
     46 O           4.8433  -19.3755  -43.3191 O.2       5 UNK        -0.5000 
     47 CA          5.8155  -17.5438  -44.5296 C.3       5 UNK         0.1400 
     48 CB          7.0423  -18.3950  -44.9179 C.3       5 UNK        -0.1800 
     49 N           5.4778  -16.5848  -45.5884 N.am      5 UNK        -0.5000 
     50 C           5.1037  -16.8386  -46.8531 C.2       4 UNK         0.5000 
     51 O           5.0317  -17.9711  -47.3297 O.2       4 UNK        -0.5000 
     52 CA          4.7145  -15.6289  -47.7290 C.3       4 UNK         0.1400 
     53 CB          3.2738  -15.7745  -48.2422 C.3       4 UNK        -0.1800 
     54 N           4.8156  -14.3637  -47.0008 N.am      4 UNK        -0.5000 
     55 C           5.8634  -13.5293  -47.0401 C.2       3 UNK         0.5000 
     56 O           6.8479  -13.6981  -47.7599 O.2       3 UNK        -0.5000 
     57 CA          5.8150  -12.3110  -46.0941 C.3       3 UNK         0.1400 
     58 CB          5.2951  -11.0727  -46.8398 C.3       3 UNK        -0.1800 
     59 N           4.9883  -12.5313  -44.9033 N.am      3 UNK        -0.5000 
     60 C           5.2557  -13.4212  -43.9369 C.2       2 UNK         0.5000 
     61 O           6.2591  -14.1329  -43.9237 O.2       2 UNK        -0.5000 
     62 CA          4.1910  -13.6016  -42.8407 C.3       2 UNK         0.1400 
     63 CB          4.4898  -12.6997  -41.6351 C.3       2 UNK        -0.1800 
     64 N           2.8260  -13.3448  -43.3075 N.am      2 UNK        -0.5000 
     65 C           2.1677  -14.0580  -44.2337 C.2       1 UNK         0.5000 
     66 O           2.6627  -15.0400  -44.7932 O.2       1 UNK        -0.5000 
     67 C          -1.9954  -21.5320  -48.5851 C.2       11 UNK         0.5000 
     68 O          -1.4964  -22.6452  -48.7422 O.2       11 UNK        -0.5000 
     69 N          -3.3120  -21.2965  -48.6758 N.am      12 UNK        -0.5000 
     70 CA         -4.3620  -22.3002  -48.8573 C.3       12 UNK         0.1400 
     71 CB         -5.7166  -21.5764  -48.8636 C.3       12 UNK        -0.1800 
     72 C          -4.3672  -23.4169  -47.7923 C.2       12 UNK         0.5000 
     73 O          -4.8132  -24.5265  -48.0826 O.2       12 UNK        -0.5000 
     74 N          -3.8602  -23.1169  -46.5878 N.am      13 UNK        -0.5000 
     75 CA         -3.6680  -24.0911  -45.5146 C.3       13 UNK         0.1400 
     76 CB         -3.5455  -23.3384  -44.1806 C.3       13 UNK        -0.1800 
     77 C          -2.4365  -24.9937  -45.7344 C.2       13 UNK         0.5000 
     78 O          -2.3705  -26.0685  -45.1364 O.2       13 UNK        -0.5000 
     79 N          -1.4792  -24.5444  -46.5581 N.am      14 UNK        -0.5000 
     80 CA         -0.2117  -25.2256  -46.8112 C.3       14 UNK         0.1400 
     81 CB          0.9143  -24.1813  -46.8905 C.3       14 UNK        -0.1800 
     82 C          -0.2426  -26.0797  -48.0897 C.2       14 UNK         0.5000 
     83 O           0.4319  -27.1104  -48.1241 O.2       14 UNK        -0.5000 
     84 N          -0.9987  -25.6588  -49.1140 N.am      15 UNK        -0.5000 
     85 CA         -1.0682  -26.3414  -50.4048 C.3       15 UNK         0.1400 
     86 CB          0.0262  -25.7913  -51.3365 C.3       15 UNK        -0.1800 
     87 C          -2.4500  -26.1739  -51.0474 C.2       15 UNK         0.5000 
     88 O          -3.0230  -25.0839  -51.0038 O.2       15 UNK        -0.5000 
     89 N          -2.9263  -27.2426  -51.7005 N.am      16 UNK        -0.5000 
     90 CA         -4.1811  -27.2712  -52.4574 C.3       16 UNK         0.1400 
     91 CB         -4.5395  -28.7267  -52.7910 C.3       16 UNK        -0.1800 
     92 C          -4.1301  -26.4207  -53.7409 C.2       16 UNK         0.5000 
     93 O          -5.1534  -25.8711  -54.1467 O.2       16 UNK        -0.5000 
     94 N          -2.9361  -26.2864  -54.3365 N.am      17 UNK        -0.5000 
     95 CA         -2.6804  -25.4018  -55.4757 C.3       17 UNK         0.1400 
     96 CB         -1.2696  -25.6646  -56.0226 C.3       17 UNK        -0.1800 
     97 C          -2.8527  -23.9194  -55.0994 C.2       17 UNK         0.5000 
     98 O          -3.4436  -23.1554  -55.8620 O.2       17 UNK        -0.5000 
     99 N          -2.3888  -23.5551  -53.8965 N.am      18 UNK        -0.5000 
    100 CA        -2.5678  -22.2264  -53.3176 C.3       18 UNK         0.1400 
    101 CB        -1.6027  -22.0454  -52.1440 C.3       18 UNK        -0.1800 
    102 C         -4.0194  -21.9619  -52.8825 C.2       18 UNK         0.5000 
    103 O         -4.4605  -20.8146  -52.9330 O.2       18 UNK        -0.5000 
    104 N         -4.7538  -23.0160  -52.4994 N.am      19 UNK        -0.5000 
    105 CA        -6.1879  -22.9572  -52.2050 C.3       19 UNK         0.1400 
    106 CB        -6.6334  -24.2421  -51.4916 C.3       19 UNK        -0.1800 
    107 C         -7.0418  -22.6901  -53.4586 C.2       19 UNK         0.5000 
    108 O         -8.0774  -22.0334  -53.3539 O.2       19 UNK        -0.5000 
    109 N         -6.5830  -23.1745  -54.6198 N.am      20 UNK        -0.5000 
    110 CA        -7.1776  -22.8821  -55.9216 C.3       20 UNK         0.1400 
    111 CB        -6.7565  -23.9613  -56.9314 C.3       20 UNK        -0.1800 
    112 C         -6.7993  -21.4754  -56.4229 C.2       20 UNK         0.5000 
    113 O         -7.6691  -20.7531  -56.9113 O.2       20 UNK        -0.5000 
    114 N         -5.5130  -21.1149  -56.3039 N.am      21 UNK        -0.5000 
    115 CA        -4.9572  -19.8539  -56.8030 C.3       21 UNK         0.1400 
    116 CB        -3.4267  -19.9678  -56.8650 C.3       21 UNK        -0.1800 
    117 C         -5.3643  -18.6138  -55.9837 C.2       21 UNK         0.5000 
    118 O         -5.5004  -17.5326  -56.5580 O.2       21 UNK        -0.5000 
    119 N         -5.5321  -18.7813  -54.6688 N.am      22 UNK        -0.5000 
    120 CA        -5.8640  -17.7200  -53.7100 C.3       22 UNK         0.1400 
    121 C         -6.8994  -18.2231  -52.6711 C.2       22 UNK         0.5000 
    122 N         -6.6502  -19.3449  -52.0104 N.am      22 UNK        -0.7600 
    123 O         -7.9392  -17.6010  -52.4710 O.2       22 UNK        -0.5000 
    124 C124       -4.5782  -17.1495  -53.0514 C.3       23 UNK        -0.0398 
    125 S125       -4.8779  -15.7148  -51.9576 S.3       23 UNK        -0.2404 
    126 C126       -4.6194  -16.4464  -50.3078 C.3       23 UNK        -0.0205 
    127 H127       -0.1136  -10.8044  -41.1587 H         1 UNK         0.0600 
    128 H128       -1.0469  -12.3024  -41.2259 H         1 UNK         0.0600 
    129 H129       -1.6791  -10.8354  -41.9786 H         1 UNK         0.0600 
    130 H130       -0.1981  -13.7473  -42.6818 H         1 UNK         0.3000 
    131 H131        0.8251  -12.8296  -45.3257 H         1 UNK         0.0600 
    132 H132       -0.1786  -15.5748  -44.4742 H         1 UNK         0.0800 
    133 H133        0.3616  -15.1528  -46.0761 H         1 UNK         0.0800 
    134 H134       -2.4005  -12.9010  -47.4962 H         1 UNK         0.0800 
    135 H135       -0.6813  -13.1711  -47.4403 H         1 UNK         0.0800 
    136 H136       -3.9392  -14.5658  -48.4595 H         1 UNK         0.1150 
    137 H137       -2.2295  -17.6061  -50.9510 H         1 UNK         0.1150 
    138 H138        0.2901  -15.2509  -48.4068 H         1 UNK         0.1150 
    139 H139        0.2115  -17.6741  -51.2166 H         1 UNK         0.0800 
    140 H140        1.2085  -16.5434  -50.3475 H         1 UNK         0.0800 
    141 H141        0.2424  -20.7004  -49.8921 H         1 UNK         0.0800 
    142 H142       -0.9940  -19.5128  -50.2113 H         1 UNK         0.0800 
    143 H143       -0.3645  -20.7267  -47.4811 H         1 UNK         0.0600 
    144 H144       -1.7417  -18.3370  -47.9702 H         1 UNK         0.3000 
    145 H145       -2.5756  -17.2425  -46.0154 H         1 UNK         0.0600 
    146 H146       -5.0381  -17.0038  -46.3090 H         1 UNK         0.0600 
    147 H147       -4.3496  -17.8169  -47.7025 H         1 UNK         0.0600 
    148 H148       -5.2152  -18.7497  -46.4911 H         1 UNK         0.0600 
    149 H149       -4.3817  -18.7561  -44.2258 H         1 UNK         0.3000 
    150 H150       -4.0818  -18.4139  -41.9076 H         1 UNK         0.0600 
    151 H151       -1.7107  -20.3460  -42.2032 H         1 UNK         0.0600 
    152 H152       -3.3596  -20.6463  -42.7359 H         1 UNK         0.0600 
    153 H153       -3.0093  -20.5066  -41.0202 H         1 UNK         0.0600 
    154 H154       -1.2204  -18.1509  -41.0781 H         1 UNK         0.3000 
    155 H155       -1.7892  -15.2383  -39.2942 H         1 UNK         0.0600 
    156 H156       -1.5854  -17.9277  -37.8358 H         1 UNK         0.0600 
    157 H157       -2.7955  -16.6880  -37.5289 H         1 UNK         0.0600 
    158 H158       -1.1051  -16.3588  -37.1866 H         1 UNK         0.0600 
    159 H159        0.3333  -17.1740  -39.1736 H         1 UNK         0.3000 
    160 H160        2.3471  -15.2463  -41.1110 H         1 UNK         0.0600 
    161 H161        2.1818  -17.9608  -39.6959 H         1 UNK         0.0600 
    162 H162        2.4744  -16.4060  -38.9175 H         1 UNK         0.0600 
    163 H163        3.6438  -17.0527  -40.0514 H         1 UNK         0.0600 
    164 H164        2.6550  -16.4280  -42.9614 H         1 UNK         0.3000 
    165 H165        2.3563  -19.7526  -43.8380 H         1 UNK         0.0600 
    166 H166        0.2071  -19.1052  -44.8463 H         1 UNK         0.0600 
    167 H167        0.8502  -17.5291  -45.2998 H         1 UNK         0.0600 
    168 H168        1.4902  -18.9943  -46.0363 H         1 UNK         0.0600 
    169 H169        3.2927  -17.1935  -44.9818 H         1 UNK         0.3000 
    170 H170        6.1045  -16.9380  -43.6698 H         1 UNK         0.0600 
    171 H171        7.4002  -18.9763  -44.0675 H         1 UNK         0.0600 
    172 H172        6.8126  -19.0993  -45.7177 H         1 UNK         0.0600 
    173 H173        7.8691  -17.7668  -45.2493 H         1 UNK         0.0600 
    174 H174        5.5337  -15.6145  -45.3058 H         1 UNK         0.3000 
    175 H175        5.3833  -15.6201  -48.5920 H         1 UNK         0.0600 
    176 H176        2.9742  -14.9129  -48.8389 H         1 UNK         0.0600 
    177 H177        3.1840  -16.6547  -48.8782 H         1 UNK         0.0600 
    178 H178        2.5601  -15.8851  -47.4249 H         1 UNK         0.0600 
    179 H179        4.0598  -14.1659  -46.3586 H         1 UNK         0.3000 
    180 H180        6.8363  -12.1101  -45.7638 H         1 UNK         0.0600 
    181 H181        4.2668  -11.2081  -47.1775 H         1 UNK         0.0600 
    182 H182        5.9045  -10.8620  -47.7197 H         1 UNK         0.0600 
    183 H183        5.3272  -10.1870  -46.2049 H         1 UNK         0.0600 
    184 H184        4.1407  -11.9876  -44.8327 H         1 UNK         0.3000 
    185 H185        4.2448  -14.6406  -42.5104 H         1 UNK         0.0600 
    186 H186        3.7902  -12.8860  -40.8200 H         1 UNK         0.0600 
    187 H187        5.4932  -12.8835  -41.2485 H         1 UNK         0.0600 
    188 H188        4.4270  -11.6428  -41.8972 H         1 UNK         0.0600 
    189 H189        2.3461  -12.5588  -42.8928 H         1 UNK         0.3000 
    190 H190       -3.6267  -20.3508  -48.5236 H         1 UNK         0.3000 
    191 H191       -4.2015  -22.7736  -49.8261 H         1 UNK         0.0600 
    192 H192       -5.7515  -20.8084  -49.6356 H         1 UNK         0.0600 
    193 H193       -6.5335  -22.2737  -49.0535 H         1 UNK         0.0600 
    194 H194       -5.9165  -21.0932  -47.9062 H         1 UNK         0.0600 
    195 H195       -3.5103  -22.1800  -46.4138 H         1 UNK         0.3000 
    196 H196       -4.5480  -24.7356  -45.4614 H         1 UNK         0.0600 
    197 H197       -3.4570  -24.0340  -43.3452 H         1 UNK         0.0600 
    198 H198       -4.4220  -22.7175  -43.9952 H         1 UNK         0.0600 
    199 H199       -2.6667  -22.6925  -44.1637 H         1 UNK         0.0600 
    200 H200       -1.6332  -23.6873  -47.0768 H         1 UNK         0.3000 
    201 H201        0.0194  -25.8911  -45.9766 H         1 UNK         0.0600 
    202 H202        1.8843  -24.6653  -47.0100 H         1 UNK         0.0600 
    203 H203        0.7839  -23.5033  -47.7341 H         1 UNK         0.0600 
    204 H204        0.9607  -23.5810  -45.9818 H         1 UNK         0.0600 
    205 H205       -1.5257  -24.7952  -49.0383 H         1 UNK         0.3000 
    206 H206       -0.8995  -27.4108  -50.2604 H         1 UNK         0.0600 
    207 H207        1.0200  -25.9791  -50.9298 H         1 UNK         0.0600 
    208 H208       -0.0154  -26.2639  -52.3186 H         1 UNK         0.0600 
    209 H209       -0.0751  -24.7152  -51.4819 H         1 UNK         0.0600 
    210 H210       -2.3903  -28.0988  -51.6943 H         1 UNK         0.3000 
    211 H211       -4.9687  -26.8641  -51.8204 H         1 UNK         0.0600 
    212 H212       -3.7767  -29.1986  -53.4117 H         1 UNK         0.0600 
    213 H213       -5.4843  -28.7810  -53.3338 H         1 UNK         0.0600 
    214 H214       -4.6525  -29.3227  -51.8852 H         1 UNK         0.0600 
    215 H215       -2.1466  -26.7861  -53.9557 H         1 UNK         0.3000 
    216 H216       -3.4034  -25.6344  -56.2605 H         1 UNK         0.0600 
    217 H217       -1.0592  -25.0246  -56.8806 H         1 UNK         0.0600 
    218 H218       -1.1624  -26.6973  -56.3551 H         1 UNK         0.0600 
    219 H219       -0.5015  -25.4717  -55.2726 H         1 UNK         0.0600 
    220 H220       -1.9517  -24.2503  -53.3110 H         1 UNK         0.3000 
    221 H221       -2.3123  -21.4840  -54.0755 H         1 UNK         0.0600 
    222 H222       -1.7742  -22.7871  -51.3654 H         1 UNK         0.0600 
    223 H223       -0.5645  -22.1279  -52.4655 H         1 UNK         0.0600 
    224 H224       -1.7313  -21.0603  -51.6996 H         1 UNK         0.0600 
    225 H225       -4.3018  -23.9172  -52.4128 H         1 UNK         0.3000 
    226 H226       -6.3530  -22.1253  -51.5219 H         1 UNK         0.0600 
    227 H227       -7.6480  -24.1354  -51.1067 H         1 UNK         0.0600 
    228 H228       -6.6328  -25.1008  -52.1610 H         1 UNK         0.0600 
    229 H229       -5.9870  -24.4746  -50.6452 H         1 UNK         0.0600 
    230 H230       -5.7586  -23.7617  -54.6096 H         1 UNK         0.3000 
    231 H231       -8.2649  -22.9230  -55.8264 H         1 UNK         0.0600 
    232 H232       -5.6769  -23.9821  -57.0801 H         1 UNK         0.0600 
    233 H233       -7.2179  -23.7855  -57.9038 H         1 UNK         0.0600 
    234 H234       -7.0652  -24.9524  -56.5984 H         1 UNK         0.0600 
    235 H235       -4.8464  -21.7956  -55.9519 H         1 UNK         0.3000 
    236 H236       -5.3223  -19.7066  -57.8217 H         1 UNK         0.0600 
    237 H237       -3.1172  -20.8028  -57.4939 H         1 UNK         0.0600 
    238 H238       -2.9837  -19.0635  -57.2843 H         1 UNK         0.0600 
    239 H239       -2.9957  -20.1150  -55.8750 H         1 UNK         0.0600 
    240 H240       -5.3844  -19.7005  -54.2667 H         1 UNK         0.3000 
    241 H241       -6.3491  -16.9028  -54.2478 H         1 UNK         0.0600 
    242 H242       -5.8064  -19.8791  -52.2014 H         1 UNK         0.3800 
    243 H243       -7.3336  -19.6849  -51.3544 H         1 UNK         0.3800 
    244 H244       -3.8913  -16.8181  -53.8311 H         1 UNK         0.0800 
    245 H245       -4.0481  -17.9344  -52.5106 H         1 UNK         0.0800 
    246 H246       -4.7739  -17.5260  -50.3327 H         1 UNK         0.0800 
    247 H247       -5.3850  -16.0549  -49.6363 H         1 UNK         0.0800 
@<TRIPOS>BOND
     1    1    2 1    
     2    1  127 1    
     3    1  128 1    
     4    1  129 1    
     5    2    3 2    
     6    2    4 am   BACKBONE|DICT|INTERRES
     7    4    5 1    
     8    4  130 1    
     9    5    6 1    
    10    5   65 1    
    11    5  131 1    
    12    6    7 1    
    13    6  132 1    
    14    6  133 1    
    15    7    8 1    
    16    8    9 1    
    17    8  134 1    
    18    8  135 1    
    19    9   10 ar   
    20    9   14 ar   
    21   10   11 ar   
    22   10  136 1    
    23   11   12 ar   
    24   11  126 1    
    25   12   13 ar   
    26   12  137 1    
    27   13   14 ar   
    28   13   15 1    
    29   14  138 1    
    30   15   16 1    
    31   15  139 1    
    32   15  140 1    
    33   16   17 1    
    34   17   18 1    
    35   17  141 1    
    36   17  142 1    
    37   18   19 1    
    38   18   67 1    
    39   18  143 1    
    40   19   20 am   BACKBONE|DICT|INTERRES
    41   19  144 1    
    42   20   21 2    
    43   20   22 1    
    44   22   23 1    
    45   22   24 1    
    46   22  145 1    
    47   23  146 1    
    48   23  147 1    
    49   23  148 1    
    50   24   25 am   BACKBONE|DICT|INTERRES
    51   24  149 1    
    52   25   26 2    
    53   25   27 1    
    54   27   28 1    
    55   27   29 1    
    56   27  150 1    
    57   28  151 1    
    58   28  152 1    
    59   28  153 1    
    60   29   30 am   BACKBONE|DICT|INTERRES
    61   29  154 1    
    62   30   31 2    
    63   30   32 1    
    64   32   33 1    
    65   32   34 1    
    66   32  155 1    
    67   33  156 1    
    68   33  157 1    
    69   33  158 1    
    70   34   35 am   BACKBONE|DICT|INTERRES
    71   34  159 1    
    72   35   36 2    
    73   35   37 1    
    74   37   38 1    
    75   37   39 1    
    76   37  160 1    
    77   38  161 1    
    78   38  162 1    
    79   38  163 1    
    80   39   40 am   BACKBONE|DICT|INTERRES
    81   39  164 1    
    82   40   41 2    
    83   40   42 1    
    84   42   43 1    
    85   42   44 1    
    86   42  165 1    
    87   43  166 1    
    88   43  167 1    
    89   43  168 1    
    90   44   45 am   BACKBONE|DICT|INTERRES
    91   44  169 1    
    92   45   46 2    
    93   45   47 1    
    94   47   48 1    
    95   47   49 1    
    96   47  170 1    
    97   48  171 1    
    98   48  172 1    
    99   48  173 1    
   100   49   50 am   BACKBONE|DICT|INTERRES
   101   49  174 1    
   102   50   51 2    
   103   50   52 1    
   104   52   53 1    
   105   52   54 1    
   106   52  175 1    
   107   53  176 1    
   108   53  177 1    
   109   53  178 1    
   110   54   55 am   BACKBONE|DICT|INTERRES
   111   54  179 1    
   112   55   56 2    
   113   55   57 1    
   114   57   58 1    
   115   57   59 1    
   116   57  180 1    
   117   58  181 1    
   118   58  182 1    
   119   58  183 1    
   120   59   60 am   BACKBONE|DICT|INTERRES
   121   59  184 1    
   122   60   61 2    
   123   60   62 1    
   124   62   63 1    
   125   62   64 1    
   126   62  185 1    
   127   63  186 1    
   128   63  187 1    
   129   63  188 1    
   130   64   65 am   BACKBONE|DICT|INTERRES
   131   64  189 1    
   132   65   66 2    
   133   67   68 2    
   134   67   69 am   BACKBONE|DICT|INTERRES
   135   69   70 1    
   136   69  190 1    
   137   70   71 1    
   138   70   72 1    
   139   70  191 1    
   140   71  192 1    
   141   71  193 1    
   142   71  194 1    
   143   72   73 2    
   144   72   74 am   BACKBONE|DICT|INTERRES
   145   74   75 1    
   146   74  195 1    
   147   75   76 1    
   148   75   77 1    
   149   75  196 1    
   150   76  197 1    
   151   76  198 1    
   152   76  199 1    
   153   77   78 2    
   154   77   79 am   BACKBONE|DICT|INTERRES
   155   79   80 1    
   156   79  200 1    
   157   80   81 1    
   158   80   82 1    
   159   80  201 1    
   160   81  202 1    
   161   81  203 1    
   162   81  204 1    
   163   82   83 2    
   164   82   84 am   BACKBONE|DICT|INTERRES
   165   84   85 1    
   166   84  205 1    
   167   85   86 1    
   168   85   87 1    
   169   85  206 1    
   170   86  207 1    
   171   86  208 1    
   172   86  209 1    
   173   87   88 2    
   174   87   89 am   BACKBONE|DICT|INTERRES
   175   89   90 1    
   176   89  210 1    
   177   90   91 1    
   178   90   92 1    
   179   90  211 1    
   180   91  212 1    
   181   91  213 1    
   182   91  214 1    
   183   92   93 2    
   184   92   94 am   BACKBONE|DICT|INTERRES
   185   94   95 1    
   186   94  215 1    
   187   95   96 1    
   188   95   97 1    
   189   95  216 1    
   190   96  217 1    
   191   96  218 1    
   192   96  219 1    
   193   97   98 2    
   194   97   99 am   BACKBONE|DICT|INTERRES
   195   99  100 1    
   196   99  220 1    
   197  100  101 1    
   198  100  102 1    
   199  100  221 1    
   200  101  222 1    
   201  101  223 1    
   202  101  224 1    
   203  102  103 2    
   204  102  104 am   BACKBONE|DICT|INTERRES
   205  104  105 1    
   206  104  225 1    
   207  105  106 1    
   208  105  107 1    
   209  105  226 1    
   210  106  227 1    
   211  106  228 1    
   212  106  229 1    
   213  107  108 2    
   214  107  109 am   BACKBONE|DICT|INTERRES
   215  109  110 1    
   216  109  230 1    
   217  110  111 1    
   218  110  112 1    
   219  110  231 1    
   220  111  232 1    
   221  111  233 1    
   222  111  234 1    
   223  112  113 2    
   224  112  114 am   BACKBONE|DICT|INTERRES
   225  114  115 1    
   226  114  235 1    
   227  115  116 1    
   228  115  117 1    
   229  115  236 1    
   230  116  237 1    
   231  116  238 1    
   232  116  239 1    
   233  117  118 2    
   234  117  119 am   BACKBONE|DICT|INTERRES
   235  119  120 1    
   236  119  240 1    
   237  120  121 1    
   238  120  124 1    
   239  120  241 1    
   240  121  122 am   BACKBONE|DICT|INTERRES
   241  121  123 2    
   242  122  242 1    
   243  122  243 1    
   244  124  125 1    
   245  124  244 1    
   246  124  245 1    
   247  125  126 1    
   248  126  246 1    
   249  126  247 1    
@<TRIPOS>SUBSTRUCTURE
     1 UNK         1 GROUP             0       ****    0 ROOT    
