@<TRIPOS>MOLECULE
3R540
247   249    1
SMALL
USER_CHARGES


@<TRIPOS>ATOM
      1 CA          3.9905  -15.0235  -47.7730 C.3       0 UNK        -0.1800 
      2 C           2.7992  -14.2468  -47.2343 C.2       0 UNK         0.5000 
      3 O           2.8779  -13.6887  -46.1419 O.2       0 UNK        -0.5000 
      4 N           1.7059  -14.1799  -48.0061 N.am      1 UNK        -0.5000 
      5 CA          0.4523  -13.4961  -47.6508 C.3       1 UNK         0.1400 
      6 C6         -0.7486  -13.9957  -48.4895 C.3       23 UNK        -0.0398 
      7 S7         -0.5388  -13.8053  -50.2961 S.3       23 UNK        -0.2404 
      8 C8         -0.7926  -15.5089  -50.8862 C.3       23 UNK        -0.0205 
      9 C9          0.5123  -16.2855  -50.9806 C.ar      23 UNK        -0.0193 
     10 C10         1.1256  -16.4642  -52.2244 C.ar      23 UNK        -0.1150 
     11 C11         2.2823  -17.2399  -52.3416 C.ar      23 UNK        -0.0193 
     12 C12         2.8651  -17.7773  -51.1911 C.ar      23 UNK        -0.1150 
     13 C13         2.2666  -17.6037  -49.9419 C.ar      23 UNK        -0.0193 
     14 C14         1.0832  -16.8652  -49.8429 C.ar      23 UNK        -0.1150 
     15 C15         2.8858  -18.2490  -48.7107 C.3       23 UNK        -0.0205 
     16 S16         2.6618  -20.0550  -48.7127 S.3       23 UNK        -0.2404 
     17 C17         0.8441  -20.1581  -48.7233 C.3       23 UNK        -0.0398 
     18 CA          0.3205  -21.4963  -48.1601 C.3       11 UNK         0.1400 
     19 N           0.5502  -21.6322  -46.7180 N.am      11 UNK        -0.5000 
     20 C           0.3178  -22.7482  -46.0121 C.2       10 UNK         0.5000 
     21 O          -0.0767  -23.8032  -46.5096 O.2       10 UNK        -0.5000 
     22 CA          0.4979  -22.6562  -44.4858 C.3       10 UNK         0.1400 
     23 CB          1.9831  -22.7118  -44.0991 C.3       10 UNK        -0.1800 
     24 N          -0.1194  -21.4555  -43.9204 N.am      10 UNK        -0.5000 
     25 C          -1.4323  -21.1865  -43.9620 C.2       9 UNK         0.5000 
     26 O          -2.2700  -21.9458  -44.4463 O.2       9 UNK        -0.5000 
     27 CA         -1.8849  -19.8232  -43.4133 C.3       9 UNK         0.1400 
     28 CB         -2.0599  -19.8719  -41.8880 C.3       9 UNK        -0.1800 
     29 N          -0.9604  -18.7491  -43.7702 N.am      9 UNK        -0.5000 
     30 C          -0.7718  -18.2895  -45.0152 C.2       8 UNK         0.5000 
     31 O          -1.3772  -18.7058  -46.0036 O.2       8 UNK        -0.5000 
     32 CA          0.3190  -17.2161  -45.1807 C.3       8 UNK         0.1400 
     33 CB         -0.1996  -15.8440  -44.7270 C.3       8 UNK        -0.1800 
     34 N           1.5330  -17.5431  -44.4318 N.am      8 UNK        -0.5000 
     35 C           2.3014  -18.6170  -44.6704 C.2       7 UNK         0.5000 
     36 O           2.0692  -19.4335  -45.5586 O.2       7 UNK        -0.5000 
     37 CA          3.4941  -18.8551  -43.7252 C.3       7 UNK         0.1400 
     38 CB          4.7195  -18.0633  -44.2056 C.3       7 UNK        -0.1800 
     39 N           3.2032  -18.5001  -42.3362 N.am      7 UNK        -0.5000 
     40 C           2.2005  -19.0027  -41.6012 C.2       6 UNK         0.5000 
     41 O           1.4714  -19.9182  -41.9834 O.2       6 UNK        -0.5000 
     42 CA          1.9285  -18.3431  -40.2337 C.3       6 UNK         0.1400 
     43 CB          2.4408  -19.2399  -39.0969 C.3       6 UNK        -0.1800 
     44 N           2.4973  -16.9982  -40.0746 N.am      6 UNK        -0.5000 
     45 C           2.2100  -15.9282  -40.8299 C.2       5 UNK         0.5000 
     46 O           1.4590  -15.9610  -41.8079 O.2       5 UNK        -0.5000 
     47 CA          2.9587  -14.6324  -40.4644 C.3       5 UNK         0.1400 
     48 CB          4.3742  -14.6547  -41.0646 C.3       5 UNK        -0.1800 
     49 N           2.2848  -13.4223  -40.9314 N.am      5 UNK        -0.5000 
     50 C           1.0834  -12.9793  -40.5362 C.2       4 UNK         0.5000 
     51 O           0.3956  -13.5481  -39.6866 O.2       4 UNK        -0.5000 
     52 CA          0.5796  -11.6581  -41.1614 C.3       4 UNK         0.1400 
     53 CB          0.2167  -10.6362  -40.0701 C.3       4 UNK        -0.1800 
     54 N           1.5597  -11.0417  -42.0631 N.am      4 UNK        -0.5000 
     55 C           1.6870  -11.3222  -43.3651 C.2       3 UNK         0.5000 
     56 O           0.9516  -12.1052  -43.9703 O.2       3 UNK        -0.5000 
     57 CA          2.8653  -10.6405  -44.0818 C.3       3 UNK         0.1400 
     58 CB          4.1848  -11.3481  -43.7280 C.3       3 UNK        -0.1800 
     59 N           2.6788  -10.7106  -45.5268 N.am      3 UNK        -0.5000 
     60 C           2.3523   -9.6826  -46.3222 C.2       2 UNK         0.5000 
     61 O           2.2606   -8.5181  -45.9313 O.2       2 UNK        -0.5000 
     62 CA          2.0733  -10.0011  -47.8078 C.3       2 UNK         0.1400 
     63 CB          3.3038   -9.6770  -48.6687 C.3       2 UNK        -0.1800 
     64 N           1.6998  -11.3988  -48.0253 N.am      2 UNK        -0.5000 
     65 C           0.5499  -11.9531  -47.6170 C.2       1 UNK         0.5000 
     66 O          -0.3997  -11.2961  -47.1875 O.2       1 UNK        -0.5000 
     67 C          -1.1640  -21.6737  -48.5303 C.2       11 UNK         0.5000 
     68 O          -1.4563  -22.3242  -49.5345 O.2       11 UNK        -0.5000 
     69 N          -2.0735  -21.1130  -47.7189 N.am      12 UNK        -0.5000 
     70 CA         -3.5177  -21.2727  -47.8835 C.3       12 UNK         0.1400 
     71 CB         -4.2685  -20.3188  -46.9439 C.3       12 UNK        -0.1800 
     72 C          -3.9687  -22.7272  -47.6707 C.2       12 UNK         0.5000 
     73 O          -4.7254  -23.2461  -48.4906 O.2       12 UNK        -0.5000 
     74 N          -3.4720  -23.3719  -46.6060 N.am      13 UNK        -0.5000 
     75 CA         -3.7352  -24.7744  -46.2786 C.3       13 UNK         0.1400 
     76 CB         -3.1143  -25.1156  -44.9160 C.3       13 UNK        -0.1800 
     77 C          -3.2397  -25.7434  -47.3665 C.2       13 UNK         0.5000 
     78 O          -3.9873  -26.6372  -47.7660 O.2       13 UNK        -0.5000 
     79 N          -2.0191  -25.5106  -47.8711 N.am      14 UNK        -0.5000 
     80 CA         -1.4173  -26.2495  -48.9860 C.3       14 UNK         0.1400 
     81 CB          0.0364  -25.7892  -49.1705 C.3       14 UNK        -0.1800 
     82 C          -2.1989  -26.1050  -50.3074 C.2       14 UNK         0.5000 
     83 O          -2.2118  -27.0346  -51.1143 O.2       14 UNK        -0.5000 
     84 N          -2.8645  -24.9577  -50.4811 N.am      15 UNK        -0.5000 
     85 CA         -3.7363  -24.6298  -51.6059 C.3       15 UNK         0.1400 
     86 CB         -3.5980  -23.1299  -51.8960 C.3       15 UNK        -0.1800 
     87 C          -5.2084  -25.0331  -51.3806 C.2       15 UNK         0.5000 
     88 O          -6.0744  -24.5535  -52.1149 O.2       15 UNK        -0.5000 
     89 N          -5.4719  -25.8924  -50.3836 N.am      16 UNK        -0.5000 
     90 CA         -6.7766  -26.4485  -50.0098 C.3       16 UNK         0.1400 
     91 CB         -7.3318  -27.3493  -51.1332 C.3       16 UNK        -0.1800 
     92 C          -7.7678  -25.3599  -49.5541 C.2       16 UNK         0.5000 
     93 O          -8.8713  -25.2547  -50.0910 O.2       16 UNK        -0.5000 
     94 N          -7.3247  -24.5584  -48.5756 N.am      17 UNK        -0.5000 
     95 CA         -7.9950  -23.3807  -48.0132 C.3       17 UNK         0.1400 
     96 CB         -9.3418  -23.7489  -47.3553 C.3       17 UNK        -0.1800 
     97 C          -8.0985  -22.2388  -49.0440 C.2       17 UNK         0.5000 
     98 O          -9.1464  -21.6031  -49.1711 O.2       17 UNK        -0.5000 
     99 N          -6.9850  -22.0141  -49.7575 N.am      18 UNK        -0.5000 
    100 CA        -6.7796  -21.0103  -50.8056 C.3       18 UNK         0.1400 
    101 CB        -6.7753  -19.5905  -50.2024 C.3       18 UNK        -0.1800 
    102 C         -7.7452  -21.1628  -52.0005 C.2       18 UNK         0.5000 
    103 O         -8.1996  -20.1636  -52.5618 O.2       18 UNK        -0.5000 
    104 N         -8.0366  -22.4159  -52.3756 N.am      19 UNK        -0.5000 
    105 CA        -8.7733  -22.7585  -53.5911 C.3       19 UNK         0.1400 
    106 CB        -9.3155  -24.1912  -53.4775 C.3       19 UNK        -0.1800 
    107 C         -7.8761  -22.6028  -54.8317 C.2       19 UNK         0.5000 
    108 O         -8.3255  -22.0760  -55.8505 O.2       19 UNK        -0.5000 
    109 N         -6.6144  -23.0320  -54.7027 N.am      20 UNK        -0.5000 
    110 CA        -5.5420  -22.7694  -55.6594 C.3       20 UNK         0.1400 
    111 CB        -4.5598  -23.9524  -55.6310 C.3       20 UNK        -0.1800 
    112 C         -4.8240  -21.4478  -55.3202 C.2       20 UNK         0.5000 
    113 O         -4.9909  -20.9083  -54.2230 O.2       20 UNK        -0.5000 
    114 N         -4.0143  -20.9565  -56.2641 N.am      21 UNK        -0.5000 
    115 CA        -3.1157  -19.8209  -56.0578 C.3       21 UNK         0.1400 
    116 CB        -2.7868  -19.1933  -57.4215 C.3       21 UNK        -0.1800 
    117 C         -1.8246  -20.2704  -55.3480 C.2       21 UNK         0.5000 
    118 O         -1.3718  -21.3972  -55.5652 O.2       21 UNK        -0.5000 
    119 N         -1.2355  -19.3642  -54.5565 N.am      22 UNK        -0.5000 
    120 CA         0.0313  -19.5607  -53.8277 C.3       22 UNK         0.1400 
    121 C         -0.0387  -20.6681  -52.7306 C.2       22 UNK         0.5000 
    122 N         -1.1265  -20.7230  -51.9711 N.am      22 UNK        -0.7600 
    123 O          0.8724  -21.4719  -52.5560 O.2       22 UNK        -0.5000 
    124 C124        1.2463  -19.6440  -54.7988 C.3       23 UNK        -0.0398 
    125 S125        2.8936  -19.3276  -54.0667 S.3       23 UNK        -0.2404 
    126 C126        2.8843  -17.5363  -53.7085 C.3       23 UNK        -0.0205 
    127 H127        4.8844  -14.4004  -47.7511 H         1 UNK         0.0600 
    128 H128        3.8310  -15.3487  -48.8010 H         1 UNK         0.0600 
    129 H129        4.1729  -15.9026  -47.1551 H         1 UNK         0.0600 
    130 H130        1.7099  -14.6205  -48.9161 H         1 UNK         0.3000 
    131 H131        0.2344  -13.7665  -46.6179 H         1 UNK         0.0600 
    132 H132       -1.6639  -13.4782  -48.1968 H         1 UNK         0.0800 
    133 H133       -0.9314  -15.0430  -48.2492 H         1 UNK         0.0800 
    134 H134       -1.5014  -16.0382  -50.2478 H         1 UNK         0.0800 
    135 H135       -1.2654  -15.4596  -51.8683 H         1 UNK         0.0800 
    136 H136        0.6756  -16.0369  -53.1097 H         1 UNK         0.1150 
    137 H137        3.7625  -18.3747  -51.2742 H         1 UNK         0.1150 
    138 H138        0.6008  -16.7531  -48.8827 H         1 UNK         0.1150 
    139 H139        3.9533  -18.0273  -48.6823 H         1 UNK         0.0800 
    140 H140        2.4605  -17.8320  -47.7971 H         1 UNK         0.0800 
    141 H141        0.5277  -20.0170  -49.7582 H         1 UNK         0.0800 
    142 H142        0.4277  -19.3233  -48.1568 H         1 UNK         0.0800 
    143 H143        0.8638  -22.3057  -48.6528 H         1 UNK         0.0600 
    144 H144        0.9319  -20.8175  -46.2436 H         1 UNK         0.3000 
    145 H145        0.0018  -23.5210  -44.0404 H         1 UNK         0.0600 
    146 H146        2.1121  -22.6685  -43.0175 H         1 UNK         0.0600 
    147 H147        2.4396  -23.6395  -44.4460 H         1 UNK         0.0600 
    148 H148        2.5459  -21.8881  -44.5369 H         1 UNK         0.0600 
    149 H149        0.4972  -20.7973  -43.4539 H         1 UNK         0.3000 
    150 H150       -2.8556  -19.5921  -43.8567 H         1 UNK         0.0600 
    151 H151       -2.7799  -20.6408  -41.6049 H         1 UNK         0.0600 
    152 H152       -2.4314  -18.9221  -41.5031 H         1 UNK         0.0600 
    153 H153       -1.1238  -20.0979  -41.3773 H         1 UNK         0.0600 
    154 H154       -0.3812  -18.3821  -43.0295 H         1 UNK         0.3000 
    155 H155        0.5811  -17.1541  -46.2388 H         1 UNK         0.0600 
    156 H156       -1.0263  -15.5116  -45.3556 H         1 UNK         0.0600 
    157 H157       -0.5597  -15.8670  -43.6977 H         1 UNK         0.0600 
    158 H158        0.5849  -15.0888  -44.7785 H         1 UNK         0.0600 
    159 H159        1.7476  -16.9475  -43.6392 H         1 UNK         0.3000 
    160 H160        3.7373  -19.9186  -43.7529 H         1 UNK         0.0600 
    161 H161        4.5441  -16.9871  -44.1692 H         1 UNK         0.0600 
    162 H162        4.9696  -18.3200  -45.2361 H         1 UNK         0.0600 
    163 H163        5.5957  -18.2824  -43.5953 H         1 UNK         0.0600 
    164 H164        3.7506  -17.7534  -41.9365 H         1 UNK         0.3000 
    165 H165        0.8448  -18.2530  -40.1356 H         1 UNK         0.0600 
    166 H166        2.1655  -18.8382  -38.1216 H         1 UNK         0.0600 
    167 H167        2.0134  -20.2414  -39.1653 H         1 UNK         0.0600 
    168 H168        3.5262  -19.3437  -39.1250 H         1 UNK         0.0600 
    169 H169        3.1456  -16.8854  -39.3083 H         1 UNK         0.3000 
    170 H170        3.0354  -14.5732  -39.3768 H         1 UNK         0.0600 
    171 H171        4.3478  -14.7035  -42.1543 H         1 UNK         0.0600 
    172 H172        4.9366  -13.7640  -40.7834 H         1 UNK         0.0600 
    173 H173        4.9412  -15.5168  -40.7110 H         1 UNK         0.0600 
    174 H174        2.7542  -12.9028  -41.6560 H         1 UNK         0.3000 
    175 H175       -0.3294  -11.8926  -41.7191 H         1 UNK         0.0600 
    176 H176       -0.1680   -9.7140  -40.5060 H         1 UNK         0.0600 
    177 H177        1.0797  -10.3824  -39.4535 H         1 UNK         0.0600 
    178 H178       -0.5574  -11.0253  -39.4074 H         1 UNK         0.0600 
    179 H179        2.2070  -10.3939  -41.6360 H         1 UNK         0.3000 
    180 H180        2.9215   -9.6021  -43.7489 H         1 UNK         0.0600 
    181 H181        5.0264  -10.8916  -44.2493 H         1 UNK         0.0600 
    182 H182        4.1606  -12.4051  -43.9972 H         1 UNK         0.0600 
    183 H183        4.3953  -11.2849  -42.6598 H         1 UNK         0.0600 
    184 H184        2.6615  -11.6522  -45.9058 H         1 UNK         0.3000 
    185 H185        1.2469   -9.3669  -48.1349 H         1 UNK         0.0600 
    186 H186        3.5957   -8.6322  -48.5548 H         1 UNK         0.0600 
    187 H187        4.1623  -10.2899  -48.3908 H         1 UNK         0.0600 
    188 H188        3.1001   -9.8427  -49.7268 H         1 UNK         0.0600 
    189 H189        2.4206  -12.0124  -48.3754 H         1 UNK         0.3000 
    190 H190       -1.7606  -20.5459  -46.9385 H         1 UNK         0.3000 
    191 H191       -3.7693  -20.9962  -48.9096 H         1 UNK         0.0600 
    192 H192       -4.0045  -19.2804  -47.1454 H         1 UNK         0.0600 
    193 H193       -5.3474  -20.4121  -47.0743 H         1 UNK         0.0600 
    194 H194       -4.0465  -20.5220  -45.8966 H         1 UNK         0.0600 
    195 H195       -2.8857  -22.8583  -45.9517 H         1 UNK         0.3000 
    196 H196       -4.8172  -24.8957  -46.1960 H         1 UNK         0.0600 
    197 H197       -3.3078  -26.1545  -44.6464 H         1 UNK         0.0600 
    198 H198       -3.5325  -24.4912  -44.1263 H         1 UNK         0.0600 
    199 H199       -2.0336  -24.9711  -44.9175 H         1 UNK         0.0600 
    200 H200       -1.4520  -24.7737  -47.4589 H         1 UNK         0.3000 
    201 H201       -1.4116  -27.3083  -48.7197 H         1 UNK         0.0600 
    202 H202        0.6219  -25.9596  -48.2669 H         1 UNK         0.0600 
    203 H203        0.0926  -24.7266  -49.4100 H         1 UNK         0.0600 
    204 H204        0.5211  -26.3356  -49.9805 H         1 UNK         0.0600 
    205 H205       -2.7779  -24.2434  -49.7690 H         1 UNK         0.3000 
    206 H206       -3.4025  -25.1719  -52.4926 H         1 UNK         0.0600 
    207 H207       -2.5993  -22.9098  -52.2687 H         1 UNK         0.0600 
    208 H208       -4.3003  -22.7989  -52.6565 H         1 UNK         0.0600 
    209 H209       -3.7717  -22.5260  -51.0062 H         1 UNK         0.0600 
    210 H210       -4.6987  -26.1831  -49.7978 H         1 UNK         0.3000 
    211 H211       -6.6000  -27.0842  -49.1409 H         1 UNK         0.0600 
    212 H212       -7.5627  -26.7833  -52.0356 H         1 UNK         0.0600 
    213 H213       -8.2502  -27.8447  -50.8162 H         1 UNK         0.0600 
    214 H214       -6.6185  -28.1288  -51.4008 H         1 UNK         0.0600 
    215 H215       -6.3612  -24.6731  -48.2863 H         1 UNK         0.3000 
    216 H216       -7.3408  -23.0118  -47.2218 H         1 UNK         0.0600 
    217 H217       -9.7530  -22.8972  -46.8124 H         1 UNK         0.0600 
    218 H218       -9.2218  -24.5622  -46.6398 H         1 UNK         0.0600 
    219 H219      -10.0872  -24.0542  -48.0899 H         1 UNK         0.0600 
    220 H220       -6.1790  -22.5934  -49.5388 H         1 UNK         0.3000 
    221 H221       -5.7835  -21.1916  -51.2096 H         1 UNK         0.0600 
    222 H222       -7.7553  -19.3130  -49.8134 H         1 UNK         0.0600 
    223 H223       -6.0553  -19.5098  -49.3885 H         1 UNK         0.0600 
    224 H224       -6.4980  -18.8483  -50.9519 H         1 UNK         0.0600 
    225 H225       -7.5879  -23.1867  -51.8928 H         1 UNK         0.3000 
    226 H226       -9.6229  -22.0803  -53.6946 H         1 UNK         0.0600 
    227 H227       -9.9719  -24.2959  -52.6134 H         1 UNK         0.0600 
    228 H228       -9.8936  -24.4607  -54.3621 H         1 UNK         0.0600 
    229 H229       -8.5119  -24.9209  -53.3749 H         1 UNK         0.0600 
    230 H230       -6.3388  -23.4361  -53.8140 H         1 UNK         0.3000 
    231 H231       -5.9568  -22.6880  -56.6663 H         1 UNK         0.0600 
    232 H232       -4.0844  -24.0634  -54.6573 H         1 UNK         0.0600 
    233 H233       -3.7657  -23.8237  -56.3675 H         1 UNK         0.0600 
    234 H234       -5.0665  -24.8894  -55.8628 H         1 UNK         0.0600 
    235 H235       -3.8871  -21.4747  -57.1212 H         1 UNK         0.3000 
    236 H236       -3.6173  -19.0694  -55.4440 H         1 UNK         0.0600 
    237 H237       -3.6908  -18.8542  -57.9278 H         1 UNK         0.0600 
    238 H238       -2.1352  -18.3263  -57.3062 H         1 UNK         0.0600 
    239 H239       -2.2786  -19.9001  -58.0790 H         1 UNK         0.0600 
    240 H240       -1.6766  -18.4641  -54.4338 H         1 UNK         0.3000 
    241 H241        0.1448  -18.6441  -53.2595 H         1 UNK         0.0600 
    242 H242       -1.8936  -20.0898  -52.1247 H         1 UNK         0.3800 
    243 H243       -1.1972  -21.4341  -51.2509 H         1 UNK         0.3800 
    244 H244        1.1161  -18.9295  -55.6127 H         1 UNK         0.0800 
    245 H245        1.2731  -20.6259  -55.2734 H         1 UNK         0.0800 
    246 H246        2.3573  -17.0029  -54.5010 H         1 UNK         0.0800 
    247 H247        3.9120  -17.1709  -53.7220 H         1 UNK         0.0800 
@<TRIPOS>BOND
     1    1    2 1    
     2    1  127 1    
     3    1  128 1    
     4    1  129 1    
     5    2    3 2    
     6    2    4 am   BACKBONE|DICT|INTERRES
     7    4    5 1    
     8    4  130 1    
     9    5    6 1    
    10    5   65 1    
    11    5  131 1    
    12    6    7 1    
    13    6  132 1    
    14    6  133 1    
    15    7    8 1    
    16    8    9 1    
    17    8  134 1    
    18    8  135 1    
    19    9   10 ar   
    20    9   14 ar   
    21   10   11 ar   
    22   10  136 1    
    23   11   12 ar   
    24   11  126 1    
    25   12   13 ar   
    26   12  137 1    
    27   13   14 ar   
    28   13   15 1    
    29   14  138 1    
    30   15   16 1    
    31   15  139 1    
    32   15  140 1    
    33   16   17 1    
    34   17   18 1    
    35   17  141 1    
    36   17  142 1    
    37   18   19 1    
    38   18   67 1    
    39   18  143 1    
    40   19   20 am   BACKBONE|DICT|INTERRES
    41   19  144 1    
    42   20   21 2    
    43   20   22 1    
    44   22   23 1    
    45   22   24 1    
    46   22  145 1    
    47   23  146 1    
    48   23  147 1    
    49   23  148 1    
    50   24   25 am   BACKBONE|DICT|INTERRES
    51   24  149 1    
    52   25   26 2    
    53   25   27 1    
    54   27   28 1    
    55   27   29 1    
    56   27  150 1    
    57   28  151 1    
    58   28  152 1    
    59   28  153 1    
    60   29   30 am   BACKBONE|DICT|INTERRES
    61   29  154 1    
    62   30   31 2    
    63   30   32 1    
    64   32   33 1    
    65   32   34 1    
    66   32  155 1    
    67   33  156 1    
    68   33  157 1    
    69   33  158 1    
    70   34   35 am   BACKBONE|DICT|INTERRES
    71   34  159 1    
    72   35   36 2    
    73   35   37 1    
    74   37   38 1    
    75   37   39 1    
    76   37  160 1    
    77   38  161 1    
    78   38  162 1    
    79   38  163 1    
    80   39   40 am   BACKBONE|DICT|INTERRES
    81   39  164 1    
    82   40   41 2    
    83   40   42 1    
    84   42   43 1    
    85   42   44 1    
    86   42  165 1    
    87   43  166 1    
    88   43  167 1    
    89   43  168 1    
    90   44   45 am   BACKBONE|DICT|INTERRES
    91   44  169 1    
    92   45   46 2    
    93   45   47 1    
    94   47   48 1    
    95   47   49 1    
    96   47  170 1    
    97   48  171 1    
    98   48  172 1    
    99   48  173 1    
   100   49   50 am   BACKBONE|DICT|INTERRES
   101   49  174 1    
   102   50   51 2    
   103   50   52 1    
   104   52   53 1    
   105   52   54 1    
   106   52  175 1    
   107   53  176 1    
   108   53  177 1    
   109   53  178 1    
   110   54   55 am   BACKBONE|DICT|INTERRES
   111   54  179 1    
   112   55   56 2    
   113   55   57 1    
   114   57   58 1    
   115   57   59 1    
   116   57  180 1    
   117   58  181 1    
   118   58  182 1    
   119   58  183 1    
   120   59   60 am   BACKBONE|DICT|INTERRES
   121   59  184 1    
   122   60   61 2    
   123   60   62 1    
   124   62   63 1    
   125   62   64 1    
   126   62  185 1    
   127   63  186 1    
   128   63  187 1    
   129   63  188 1    
   130   64   65 am   BACKBONE|DICT|INTERRES
   131   64  189 1    
   132   65   66 2    
   133   67   68 2    
   134   67   69 am   BACKBONE|DICT|INTERRES
   135   69   70 1    
   136   69  190 1    
   137   70   71 1    
   138   70   72 1    
   139   70  191 1    
   140   71  192 1    
   141   71  193 1    
   142   71  194 1    
   143   72   73 2    
   144   72   74 am   BACKBONE|DICT|INTERRES
   145   74   75 1    
   146   74  195 1    
   147   75   76 1    
   148   75   77 1    
   149   75  196 1    
   150   76  197 1    
   151   76  198 1    
   152   76  199 1    
   153   77   78 2    
   154   77   79 am   BACKBONE|DICT|INTERRES
   155   79   80 1    
   156   79  200 1    
   157   80   81 1    
   158   80   82 1    
   159   80  201 1    
   160   81  202 1    
   161   81  203 1    
   162   81  204 1    
   163   82   83 2    
   164   82   84 am   BACKBONE|DICT|INTERRES
   165   84   85 1    
   166   84  205 1    
   167   85   86 1    
   168   85   87 1    
   169   85  206 1    
   170   86  207 1    
   171   86  208 1    
   172   86  209 1    
   173   87   88 2    
   174   87   89 am   BACKBONE|DICT|INTERRES
   175   89   90 1    
   176   89  210 1    
   177   90   91 1    
   178   90   92 1    
   179   90  211 1    
   180   91  212 1    
   181   91  213 1    
   182   91  214 1    
   183   92   93 2    
   184   92   94 am   BACKBONE|DICT|INTERRES
   185   94   95 1    
   186   94  215 1    
   187   95   96 1    
   188   95   97 1    
   189   95  216 1    
   190   96  217 1    
   191   96  218 1    
   192   96  219 1    
   193   97   98 2    
   194   97   99 am   BACKBONE|DICT|INTERRES
   195   99  100 1    
   196   99  220 1    
   197  100  101 1    
   198  100  102 1    
   199  100  221 1    
   200  101  222 1    
   201  101  223 1    
   202  101  224 1    
   203  102  103 2    
   204  102  104 am   BACKBONE|DICT|INTERRES
   205  104  105 1    
   206  104  225 1    
   207  105  106 1    
   208  105  107 1    
   209  105  226 1    
   210  106  227 1    
   211  106  228 1    
   212  106  229 1    
   213  107  108 2    
   214  107  109 am   BACKBONE|DICT|INTERRES
   215  109  110 1    
   216  109  230 1    
   217  110  111 1    
   218  110  112 1    
   219  110  231 1    
   220  111  232 1    
   221  111  233 1    
   222  111  234 1    
   223  112  113 2    
   224  112  114 am   BACKBONE|DICT|INTERRES
   225  114  115 1    
   226  114  235 1    
   227  115  116 1    
   228  115  117 1    
   229  115  236 1    
   230  116  237 1    
   231  116  238 1    
   232  116  239 1    
   233  117  118 2    
   234  117  119 am   BACKBONE|DICT|INTERRES
   235  119  120 1    
   236  119  240 1    
   237  120  121 1    
   238  120  124 1    
   239  120  241 1    
   240  121  122 am   BACKBONE|DICT|INTERRES
   241  121  123 2    
   242  122  242 1    
   243  122  243 1    
   244  124  125 1    
   245  124  244 1    
   246  124  245 1    
   247  125  126 1    
   248  126  246 1    
   249  126  247 1    
@<TRIPOS>SUBSTRUCTURE
     1 UNK         1 GROUP             0       ****    0 ROOT    
