@<TRIPOS>MOLECULE
3R540
247   249    1
SMALL
USER_CHARGES


@<TRIPOS>ATOM
      1 CA         -6.3275  -14.7636  -50.6791 C.3       0 UNK        -0.1800 
      2 C          -5.3597  -14.2357  -49.6303 C.2       0 UNK         0.5000 
      3 O          -5.2925  -13.0258  -49.4096 O.2       0 UNK        -0.5000 
      4 N          -4.6113  -15.1347  -48.9856 N.am      1 UNK        -0.5000 
      5 CA         -3.6210  -14.8172  -47.9563 C.3       1 UNK         0.1400 
      6 C6         -2.2698  -14.3582  -48.5644 C.3       23 UNK        -0.0398 
      7 S7         -1.3658  -15.6434  -49.4933 S.3       23 UNK        -0.2404 
      8 C8          0.1027  -15.8605  -48.4415 C.3       23 UNK        -0.0205 
      9 C9          1.0405  -16.9158  -49.0074 C.ar      23 UNK        -0.0193 
     10 C10         1.7572  -16.6593  -50.1795 C.ar      23 UNK        -0.1150 
     11 C11         2.6325  -17.6151  -50.7022 C.ar      23 UNK        -0.0193 
     12 C12         2.7986  -18.8319  -50.0345 C.ar      23 UNK        -0.1150 
     13 C13         2.0843  -19.1038  -48.8643 C.ar      23 UNK        -0.0193 
     14 C14         1.2093  -18.1396  -48.3532 C.ar      23 UNK        -0.1150 
     15 C15         2.2665  -20.4388  -48.1564 C.3       23 UNK        -0.0205 
     16 S16         1.3142  -21.7671  -48.9603 S.3       23 UNK        -0.2404 
     17 C17        -0.3958  -21.3042  -48.5239 C.3       23 UNK        -0.0398 
     18 CA         -1.1098  -22.3365  -47.6222 C.3       11 UNK         0.1400 
     19 N          -0.3288  -22.6855  -46.4335 N.am      11 UNK        -0.5000 
     20 C          -0.6127  -23.6814  -45.5849 C.2       10 UNK         0.5000 
     21 O          -1.5728  -24.4413  -45.7187 O.2       10 UNK        -0.5000 
     22 CA          0.3069  -23.8249  -44.3581 C.3       10 UNK         0.1400 
     23 CB          1.3982  -24.8705  -44.6310 C.3       10 UNK        -0.1800 
     24 N           0.9461  -22.5811  -43.9122 N.am      10 UNK        -0.5000 
     25 C           0.3323  -21.4455  -43.5594 C.2       9 UNK         0.5000 
     26 O          -0.8751  -21.2558  -43.7054 O.2       9 UNK        -0.5000 
     27 CA          1.1891  -20.3264  -42.9344 C.3       9 UNK         0.1400 
     28 CB          1.3160  -20.5356  -41.4144 C.3       9 UNK        -0.1800 
     29 N           2.5116  -20.0762  -43.5258 N.am      9 UNK        -0.5000 
     30 C           3.5822  -20.8849  -43.6026 C.2       8 UNK         0.5000 
     31 O           3.5759  -22.0787  -43.3016 O.2       8 UNK        -0.5000 
     32 CA          4.9036  -20.2363  -44.0626 C.3       8 UNK         0.1400 
     33 CB          5.0200  -20.2788  -45.5936 C.3       8 UNK        -0.1800 
     34 N           5.0492  -18.8507  -43.6127 N.am      8 UNK        -0.5000 
     35 C           5.0713  -18.4440  -42.3345 C.2       7 UNK         0.5000 
     36 O           5.1055  -19.2155  -41.3750 O.2       7 UNK        -0.5000 
     37 CA          5.0322  -16.9229  -42.0740 C.3       7 UNK         0.1400 
     38 CB          6.3817  -16.4360  -41.5224 C.3       7 UNK        -0.1800 
     39 N           4.6762  -16.0991  -43.2356 N.am      7 UNK        -0.5000 
     40 C           3.5067  -16.1253  -43.8878 C.2       6 UNK         0.5000 
     41 O           2.6009  -16.9262  -43.6506 O.2       6 UNK        -0.5000 
     42 CA          3.3451  -15.1196  -45.0302 C.3       6 UNK         0.1400 
     43 CB          3.1855  -15.8447  -46.3745 C.3       6 UNK        -0.1800 
     44 N           2.1648  -14.3010  -44.7772 N.am      6 UNK        -0.5000 
     45 C           2.1179  -12.9707  -44.9244 C.2       5 UNK         0.5000 
     46 O           3.0772  -12.2849  -45.2803 O.2       5 UNK        -0.5000 
     47 CA          0.7762  -12.2828  -44.6322 C.3       5 UNK         0.1400 
     48 CB         -0.1674  -12.4388  -45.8319 C.3       5 UNK        -0.1800 
     49 N           0.1323  -12.8418  -43.4460 N.am      5 UNK        -0.5000 
     50 C           0.2099  -12.3136  -42.2174 C.2       4 UNK         0.5000 
     51 O           0.8404  -11.2893  -41.9515 O.2       4 UNK        -0.5000 
     52 CA         -0.5571  -13.0358  -41.0913 C.3       4 UNK         0.1400 
     53 CB         -1.9173  -12.3619  -40.8534 C.3       4 UNK        -0.1800 
     54 N          -0.7768  -14.4571  -41.3602 N.am      4 UNK        -0.5000 
     55 C           0.1811  -15.3923  -41.3268 C.2       3 UNK         0.5000 
     56 O           1.3476  -15.1633  -41.0064 O.2       3 UNK        -0.5000 
     57 CA         -0.2328  -16.8236  -41.7199 C.3       3 UNK         0.1400 
     58 CB         -0.6168  -17.6188  -40.4629 C.3       3 UNK        -0.1800 
     59 N          -1.3337  -16.9246  -42.6869 N.am      3 UNK        -0.5000 
     60 C          -1.4202  -16.3378  -43.8899 C.2       2 UNK         0.5000 
     61 O          -0.5862  -15.5412  -44.3304 O.2       2 UNK        -0.5000 
     62 CA         -2.6636  -16.6906  -44.7276 C.3       2 UNK         0.1400 
     63 CB         -3.9601  -16.7180  -43.8873 C.3       2 UNK        -0.1800 
     64 N          -2.8142  -15.7448  -45.8314 N.am      2 UNK        -0.5000 
     65 C          -3.4989  -15.9857  -46.9561 C.2       1 UNK         0.5000 
     66 O          -4.0408  -17.0669  -47.1982 O.2       1 UNK        -0.5000 
     67 C          -2.5306  -21.8348  -47.2847 C.2       11 UNK         0.5000 
     68 O          -3.3974  -21.8975  -48.1542 O.2       11 UNK        -0.5000 
     69 N          -2.7718  -21.3732  -46.0456 N.am      12 UNK        -0.5000 
     70 CA         -4.0783  -20.9020  -45.5739 C.3       12 UNK         0.1400 
     71 CB         -3.9620  -20.4387  -44.1148 C.3       12 UNK        -0.1800 
     72 C          -5.1908  -21.9608  -45.7108 C.2       12 UNK         0.5000 
     73 O          -6.3126  -21.6252  -46.0937 O.2       12 UNK        -0.5000 
     74 N          -4.8337  -23.2269  -45.4513 N.am      13 UNK        -0.5000 
     75 CA         -5.7034  -24.3933  -45.6042 C.3       13 UNK         0.1400 
     76 CB         -5.0580  -25.5899  -44.8897 C.3       13 UNK        -0.1800 
     77 C          -6.0020  -24.7426  -47.0754 C.2       13 UNK         0.5000 
     78 O          -7.0342  -25.3534  -47.3539 O.2       13 UNK        -0.5000 
     79 N          -5.1241  -24.3272  -47.9982 N.am      14 UNK        -0.5000 
     80 CA         -5.2526  -24.5108  -49.4431 C.3       14 UNK         0.1400 
     81 CB         -3.8462  -24.6414  -50.0538 C.3       14 UNK        -0.1800 
     82 C          -6.0734  -23.3638  -50.0653 C.2       14 UNK         0.5000 
     83 O          -5.6145  -22.7067  -51.0033 O.2       14 UNK        -0.5000 
     84 N          -7.2758  -23.1467  -49.5126 N.am      15 UNK        -0.5000 
     85 CA         -8.2765  -22.1518  -49.9083 C.3       15 UNK         0.1400 
     86 CB         -8.8793  -22.5259  -51.2795 C.3       15 UNK        -0.1800 
     87 C          -7.7347  -20.7084  -49.8644 C.2       15 UNK         0.5000 
     88 O          -7.8953  -19.9643  -50.8314 O.2       15 UNK        -0.5000 
     89 N          -7.0651  -20.3492  -48.7573 N.am      16 UNK        -0.5000 
     90 CA         -6.3711  -19.0706  -48.5477 C.3       16 UNK         0.1400 
     91 CB         -7.3777  -17.9077  -48.4247 C.3       16 UNK        -0.1800 
     92 C          -5.2809  -18.8245  -49.6134 C.2       16 UNK         0.5000 
     93 O          -5.1999  -17.7402  -50.1896 O.2       16 UNK        -0.5000 
     94 N          -4.4942  -19.8746  -49.8775 N.am      17 UNK        -0.5000 
     95 CA         -3.4196  -19.9909  -50.8631 C.3       17 UNK         0.1400 
     96 CB         -2.3204  -18.9375  -50.6250 C.3       17 UNK        -0.1800 
     97 C          -3.8777  -20.0190  -52.3339 C.2       17 UNK         0.5000 
     98 O          -3.0208  -20.1376  -53.2105 O.2       17 UNK        -0.5000 
     99 N          -5.1895  -19.9641  -52.6075 N.am      18 UNK        -0.5000 
    100 CA        -5.7402  -19.9967  -53.9644 C.3       18 UNK         0.1400 
    101 CB        -7.2303  -19.6297  -53.9366 C.3       18 UNK        -0.1800 
    102 C         -5.5301  -21.3473  -54.6730 C.2       18 UNK         0.5000 
    103 O         -5.3327  -21.3601  -55.8886 O.2       18 UNK        -0.5000 
    104 N         -5.5525  -22.4510  -53.9113 N.am      19 UNK        -0.5000 
    105 CA        -5.2695  -23.7923  -54.4248 C.3       19 UNK         0.1400 
    106 CB        -6.0590  -24.8331  -53.6161 C.3       19 UNK        -0.1800 
    107 C         -3.7619  -24.1087  -54.4146 C.2       19 UNK         0.5000 
    108 O         -3.3230  -24.9518  -55.1977 O.2       19 UNK        -0.5000 
    109 N         -2.9939  -23.4336  -53.5451 N.am      20 UNK        -0.5000 
    110 CA        -1.5349  -23.5485  -53.4784 C.3       20 UNK         0.1400 
    111 CB        -1.0191  -23.0091  -52.1339 C.3       20 UNK        -0.1800 
    112 C         -0.8430  -22.8182  -54.6413 C.2       20 UNK         0.5000 
    113 O          0.1295  -23.3381  -55.1892 O.2       20 UNK        -0.5000 
    114 N         -1.3399  -21.6169  -54.9727 N.am      21 UNK        -0.5000 
    115 CA        -0.8909  -20.6703  -56.0041 C.3       21 UNK         0.1400 
    116 CB        -0.9577  -21.2973  -57.4094 C.3       21 UNK        -0.1800 
    117 C          0.4883  -20.0276  -55.7412 C.2       21 UNK         0.5000 
    118 O          0.6590  -18.8465  -56.0400 O.2       21 UNK        -0.5000 
    119 N          1.4273  -20.8108  -55.1974 N.am      22 UNK        -0.5000 
    120 CA         2.7854  -20.4679  -54.7391 C.3       22 UNK         0.1400 
    121 C          3.7836  -19.9161  -55.8043 C.2       22 UNK         0.5000 
    122 N          3.4537  -19.9133  -57.0894 N.am      22 UNK        -0.7600 
    123 O          4.9012  -19.5334  -55.4677 O.2       22 UNK        -0.5000 
    124 C124        2.7976  -19.7072  -53.3805 C.3       23 UNK        -0.0398 
    125 S125        2.4871  -17.9063  -53.4530 S.3       23 UNK        -0.2404 
    126 C126        3.3968  -17.3269  -51.9857 C.3       23 UNK        -0.0205 
    127 H127       -7.0708  -15.4146  -50.2196 H         1 UNK         0.0600 
    128 H128       -6.8507  -13.9448  -51.1735 H         1 UNK         0.0600 
    129 H129       -5.7926  -15.3328  -51.4397 H         1 UNK         0.0600 
    130 H130       -4.7096  -16.1257  -49.1993 H         1 UNK         0.3000 
    131 H131       -4.0156  -13.9844  -47.3700 H         1 UNK         0.0600 
    132 H132       -1.6284  -13.9543  -47.7857 H         1 UNK         0.0800 
    133 H133       -2.4418  -13.5222  -49.2434 H         1 UNK         0.0800 
    134 H134       -0.2113  -16.1270  -47.4307 H         1 UNK         0.0800 
    135 H135        0.6371  -14.9127  -48.3609 H         1 UNK         0.0800 
    136 H136        1.6247  -15.7156  -50.6897 H         1 UNK         0.1150 
    137 H137        3.4754  -19.5753  -50.4307 H         1 UNK         0.1150 
    138 H138        0.6635  -18.3364  -47.4415 H         1 UNK         0.1150 
    139 H139        3.3224  -20.7121  -48.1697 H         1 UNK         0.0800 
    140 H140        1.9840  -20.3633  -47.1053 H         1 UNK         0.0800 
    141 H141       -0.4065  -20.3235  -48.0502 H         1 UNK         0.0800 
    142 H142       -0.9390  -21.1906  -49.4618 H         1 UNK         0.0800 
    143 H143       -1.2320  -23.2536  -48.2028 H         1 UNK         0.0600 
    144 H144        0.4855  -22.1208  -46.2461 H         1 UNK         0.3000 
    145 H145       -0.3125  -24.1828  -43.5335 H         1 UNK         0.0600 
    146 H146        1.9947  -25.0602  -43.7384 H         1 UNK         0.0600 
    147 H147        0.9626  -25.8223  -44.9383 H         1 UNK         0.0600 
    148 H148        2.0744  -24.5460  -45.4230 H         1 UNK         0.0600 
    149 H149        1.9498  -22.6215  -43.7420 H         1 UNK         0.3000 
    150 H150        0.6270  -19.4063  -43.0937 H         1 UNK         0.0600 
    151 H151        0.3391  -20.6861  -40.9538 H         1 UNK         0.0600 
    152 H152        1.7739  -19.6695  -40.9363 H         1 UNK         0.0600 
    153 H153        1.9230  -21.4089  -41.1743 H         1 UNK         0.0600 
    154 H154        2.6574  -19.1102  -43.7984 H         1 UNK         0.3000 
    155 H155        5.7239  -20.8171  -43.6360 H         1 UNK         0.0600 
    156 H156        4.8847  -21.2936  -45.9706 H         1 UNK         0.0600 
    157 H157        6.0023  -19.9395  -45.9229 H         1 UNK         0.0600 
    158 H158        4.2711  -19.6454  -46.0699 H         1 UNK         0.0600 
    159 H159        5.0396  -18.1399  -44.3282 H         1 UNK         0.3000 
    160 H160        4.2702  -16.7540  -41.3101 H         1 UNK         0.0600 
    161 H161        7.1814  -16.5563  -42.2544 H         1 UNK         0.0600 
    162 H162        6.6667  -16.9953  -40.6302 H         1 UNK         0.0600 
    163 H163        6.3374  -15.3836  -41.2412 H         1 UNK         0.0600 
    164 H164        5.3696  -15.4215  -43.5187 H         1 UNK         0.3000 
    165 H165        4.2422  -14.4986  -45.0775 H         1 UNK         0.0600 
    166 H166        2.3060  -16.4881  -46.3706 H         1 UNK         0.0600 
    167 H167        3.0796  -15.1371  -47.1969 H         1 UNK         0.0600 
    168 H168        4.0511  -16.4715  -46.5917 H         1 UNK         0.0600 
    169 H169        1.3388  -14.8041  -44.4679 H         1 UNK         0.3000 
    170 H170        0.9642  -11.2162  -44.4907 H         1 UNK         0.0600 
    171 H171        0.2662  -12.0010  -46.7321 H         1 UNK         0.0600 
    172 H172       -0.3607  -13.4903  -46.0372 H         1 UNK         0.0600 
    173 H173       -1.1228  -11.9451  -45.6538 H         1 UNK         0.0600 
    174 H174       -0.3491  -13.7253  -43.5710 H         1 UNK         0.3000 
    175 H175        0.0340  -12.9445  -40.1775 H         1 UNK         0.0600 
    176 H176       -2.5605  -12.4320  -41.7316 H         1 UNK         0.0600 
    177 H177       -2.4426  -12.8180  -40.0140 H         1 UNK         0.0600 
    178 H178       -1.7936  -11.3033  -40.6208 H         1 UNK         0.0600 
    179 H179       -1.7114  -14.7344  -41.6207 H         1 UNK         0.3000 
    180 H180        0.6373  -17.3008  -42.1652 H         1 UNK         0.0600 
    181 H181        0.2131  -17.6568  -39.7558 H         1 UNK         0.0600 
    182 H182       -1.4671  -17.1696  -39.9481 H         1 UNK         0.0600 
    183 H183       -0.8829  -18.6465  -40.7075 H         1 UNK         0.0600 
    184 H184       -2.0861  -17.5392  -42.4136 H         1 UNK         0.3000 
    185 H185       -2.4843  -17.6841  -45.1433 H         1 UNK         0.0600 
    186 H186       -3.9164  -17.4593  -43.0895 H         1 UNK         0.0600 
    187 H187       -4.1578  -15.7487  -43.4281 H         1 UNK         0.0600 
    188 H188       -4.8241  -16.9753  -44.5002 H         1 UNK         0.0600 
    189 H189       -2.3332  -14.8660  -45.6988 H         1 UNK         0.3000 
    190 H190       -2.0211  -21.3714  -45.3617 H         1 UNK         0.3000 
    191 H191       -4.3486  -20.0389  -46.1824 H         1 UNK         0.0600 
    192 H192       -4.8981  -19.9989  -43.7685 H         1 UNK         0.0600 
    193 H193       -3.1840  -19.6857  -43.9994 H         1 UNK         0.0600 
    194 H194       -3.7194  -21.2671  -43.4479 H         1 UNK         0.0600 
    195 H195       -3.8763  -23.4113  -45.1833 H         1 UNK         0.3000 
    196 H196       -6.6562  -24.1755  -45.1172 H         1 UNK         0.0600 
    197 H197       -5.6917  -26.4751  -44.9580 H         1 UNK         0.0600 
    198 H198       -4.9049  -25.3817  -43.8306 H         1 UNK         0.0600 
    199 H199       -4.0904  -25.8435  -45.3252 H         1 UNK         0.0600 
    200 H200       -4.3573  -23.7371  -47.7020 H         1 UNK         0.3000 
    201 H201       -5.7875  -25.4409  -49.6456 H         1 UNK         0.0600 
    202 H202       -3.2761  -25.4339  -49.5690 H         1 UNK         0.0600 
    203 H203       -3.2812  -23.7161  -49.9573 H         1 UNK         0.0600 
    204 H204       -3.8961  -24.8835  -51.1149 H         1 UNK         0.0600 
    205 H205       -7.5359  -23.7468  -48.7389 H         1 UNK         0.3000 
    206 H206       -9.0769  -22.2015  -49.1689 H         1 UNK         0.0600 
    207 H207       -9.2930  -23.5342  -51.2656 H         1 UNK         0.0600 
    208 H208       -9.6891  -21.8475  -51.5503 H         1 UNK         0.0600 
    209 H209       -8.1357  -22.4821  -52.0758 H         1 UNK         0.0600 
    210 H210       -6.9666  -21.0227  -48.0048 H         1 UNK         0.3000 
    211 H211       -5.8561  -19.1498  -47.5920 H         1 UNK         0.0600 
    212 H212       -7.8966  -17.7158  -49.3641 H         1 UNK         0.0600 
    213 H213       -6.8704  -16.9866  -48.1362 H         1 UNK         0.0600 
    214 H214       -8.1280  -18.1157  -47.6622 H         1 UNK         0.0600 
    215 H215       -4.6345  -20.7185  -49.3334 H         1 UNK         0.3000 
    216 H216       -2.9829  -20.9717  -50.6789 H         1 UNK         0.0600 
    217 H217       -2.6472  -17.9443  -50.9330 H         1 UNK         0.0600 
    218 H218       -1.4202  -19.1718  -51.1945 H         1 UNK         0.0600 
    219 H219       -2.0366  -18.8836  -49.5739 H         1 UNK         0.0600 
    220 H220       -5.8518  -19.9002  -51.8441 H         1 UNK         0.3000 
    221 H221       -5.2201  -19.2341  -54.5479 H         1 UNK         0.0600 
    222 H222       -7.8234  -20.3934  -53.4335 H         1 UNK         0.0600 
    223 H223       -7.3965  -18.6816  -53.4245 H         1 UNK         0.0600 
    224 H224       -7.6237  -19.5278  -54.9486 H         1 UNK         0.0600 
    225 H225       -5.6981  -22.3656  -52.9081 H         1 UNK         0.3000 
    226 H226       -5.6108  -23.8602  -55.4601 H         1 UNK         0.0600 
    227 H227       -7.1249  -24.6044  -53.6113 H         1 UNK         0.0600 
    228 H228       -5.9413  -25.8281  -54.0469 H         1 UNK         0.0600 
    229 H229       -5.7236  -24.8871  -52.5826 H         1 UNK         0.0600 
    230 H230       -3.4337  -22.7490  -52.9491 H         1 UNK         0.3000 
    231 H231       -1.2668  -24.6055  -53.5402 H         1 UNK         0.0600 
    232 H232       -1.2682  -21.9578  -51.9942 H         1 UNK         0.0600 
    233 H233       -1.4260  -23.5723  -51.2965 H         1 UNK         0.0600 
    234 H234        0.0670  -23.0922  -52.0733 H         1 UNK         0.0600 
    235 H235       -2.0828  -21.2474  -54.3833 H         1 UNK         0.3000 
    236 H236       -1.6179  -19.8569  -55.9769 H         1 UNK         0.0600 
    237 H237       -1.9519  -21.6945  -57.6151 H         1 UNK         0.0600 
    238 H238       -0.7395  -20.5534  -58.1765 H         1 UNK         0.0600 
    239 H239       -0.2399  -22.1088  -57.5308 H         1 UNK         0.0600 
    240 H240        1.1681  -21.7863  -55.0796 H         1 UNK         0.3000 
    241 H241        3.2062  -21.4488  -54.5150 H         1 UNK         0.0600 
    242 H242        4.1119  -19.5717  -57.7721 H         1 UNK         0.3800 
    243 H243        2.5352  -20.2087  -57.3788 H         1 UNK         0.3800 
    244 H244        3.7670  -19.8656  -52.9062 H         1 UNK         0.0800 
    245 H245        2.0676  -20.1499  -52.7012 H         1 UNK         0.0800 
    246 H246        4.3880  -17.7814  -51.9522 H         1 UNK         0.0800 
    247 H247        3.5627  -16.2529  -52.0813 H         1 UNK         0.0800 
@<TRIPOS>BOND
     1    1    2 1    
     2    1  127 1    
     3    1  128 1    
     4    1  129 1    
     5    2    3 2    
     6    2    4 am   BACKBONE|DICT|INTERRES
     7    4    5 1    
     8    4  130 1    
     9    5    6 1    
    10    5   65 1    
    11    5  131 1    
    12    6    7 1    
    13    6  132 1    
    14    6  133 1    
    15    7    8 1    
    16    8    9 1    
    17    8  134 1    
    18    8  135 1    
    19    9   10 ar   
    20    9   14 ar   
    21   10   11 ar   
    22   10  136 1    
    23   11   12 ar   
    24   11  126 1    
    25   12   13 ar   
    26   12  137 1    
    27   13   14 ar   
    28   13   15 1    
    29   14  138 1    
    30   15   16 1    
    31   15  139 1    
    32   15  140 1    
    33   16   17 1    
    34   17   18 1    
    35   17  141 1    
    36   17  142 1    
    37   18   19 1    
    38   18   67 1    
    39   18  143 1    
    40   19   20 am   BACKBONE|DICT|INTERRES
    41   19  144 1    
    42   20   21 2    
    43   20   22 1    
    44   22   23 1    
    45   22   24 1    
    46   22  145 1    
    47   23  146 1    
    48   23  147 1    
    49   23  148 1    
    50   24   25 am   BACKBONE|DICT|INTERRES
    51   24  149 1    
    52   25   26 2    
    53   25   27 1    
    54   27   28 1    
    55   27   29 1    
    56   27  150 1    
    57   28  151 1    
    58   28  152 1    
    59   28  153 1    
    60   29   30 am   BACKBONE|DICT|INTERRES
    61   29  154 1    
    62   30   31 2    
    63   30   32 1    
    64   32   33 1    
    65   32   34 1    
    66   32  155 1    
    67   33  156 1    
    68   33  157 1    
    69   33  158 1    
    70   34   35 am   BACKBONE|DICT|INTERRES
    71   34  159 1    
    72   35   36 2    
    73   35   37 1    
    74   37   38 1    
    75   37   39 1    
    76   37  160 1    
    77   38  161 1    
    78   38  162 1    
    79   38  163 1    
    80   39   40 am   BACKBONE|DICT|INTERRES
    81   39  164 1    
    82   40   41 2    
    83   40   42 1    
    84   42   43 1    
    85   42   44 1    
    86   42  165 1    
    87   43  166 1    
    88   43  167 1    
    89   43  168 1    
    90   44   45 am   BACKBONE|DICT|INTERRES
    91   44  169 1    
    92   45   46 2    
    93   45   47 1    
    94   47   48 1    
    95   47   49 1    
    96   47  170 1    
    97   48  171 1    
    98   48  172 1    
    99   48  173 1    
   100   49   50 am   BACKBONE|DICT|INTERRES
   101   49  174 1    
   102   50   51 2    
   103   50   52 1    
   104   52   53 1    
   105   52   54 1    
   106   52  175 1    
   107   53  176 1    
   108   53  177 1    
   109   53  178 1    
   110   54   55 am   BACKBONE|DICT|INTERRES
   111   54  179 1    
   112   55   56 2    
   113   55   57 1    
   114   57   58 1    
   115   57   59 1    
   116   57  180 1    
   117   58  181 1    
   118   58  182 1    
   119   58  183 1    
   120   59   60 am   BACKBONE|DICT|INTERRES
   121   59  184 1    
   122   60   61 2    
   123   60   62 1    
   124   62   63 1    
   125   62   64 1    
   126   62  185 1    
   127   63  186 1    
   128   63  187 1    
   129   63  188 1    
   130   64   65 am   BACKBONE|DICT|INTERRES
   131   64  189 1    
   132   65   66 2    
   133   67   68 2    
   134   67   69 am   BACKBONE|DICT|INTERRES
   135   69   70 1    
   136   69  190 1    
   137   70   71 1    
   138   70   72 1    
   139   70  191 1    
   140   71  192 1    
   141   71  193 1    
   142   71  194 1    
   143   72   73 2    
   144   72   74 am   BACKBONE|DICT|INTERRES
   145   74   75 1    
   146   74  195 1    
   147   75   76 1    
   148   75   77 1    
   149   75  196 1    
   150   76  197 1    
   151   76  198 1    
   152   76  199 1    
   153   77   78 2    
   154   77   79 am   BACKBONE|DICT|INTERRES
   155   79   80 1    
   156   79  200 1    
   157   80   81 1    
   158   80   82 1    
   159   80  201 1    
   160   81  202 1    
   161   81  203 1    
   162   81  204 1    
   163   82   83 2    
   164   82   84 am   BACKBONE|DICT|INTERRES
   165   84   85 1    
   166   84  205 1    
   167   85   86 1    
   168   85   87 1    
   169   85  206 1    
   170   86  207 1    
   171   86  208 1    
   172   86  209 1    
   173   87   88 2    
   174   87   89 am   BACKBONE|DICT|INTERRES
   175   89   90 1    
   176   89  210 1    
   177   90   91 1    
   178   90   92 1    
   179   90  211 1    
   180   91  212 1    
   181   91  213 1    
   182   91  214 1    
   183   92   93 2    
   184   92   94 am   BACKBONE|DICT|INTERRES
   185   94   95 1    
   186   94  215 1    
   187   95   96 1    
   188   95   97 1    
   189   95  216 1    
   190   96  217 1    
   191   96  218 1    
   192   96  219 1    
   193   97   98 2    
   194   97   99 am   BACKBONE|DICT|INTERRES
   195   99  100 1    
   196   99  220 1    
   197  100  101 1    
   198  100  102 1    
   199  100  221 1    
   200  101  222 1    
   201  101  223 1    
   202  101  224 1    
   203  102  103 2    
   204  102  104 am   BACKBONE|DICT|INTERRES
   205  104  105 1    
   206  104  225 1    
   207  105  106 1    
   208  105  107 1    
   209  105  226 1    
   210  106  227 1    
   211  106  228 1    
   212  106  229 1    
   213  107  108 2    
   214  107  109 am   BACKBONE|DICT|INTERRES
   215  109  110 1    
   216  109  230 1    
   217  110  111 1    
   218  110  112 1    
   219  110  231 1    
   220  111  232 1    
   221  111  233 1    
   222  111  234 1    
   223  112  113 2    
   224  112  114 am   BACKBONE|DICT|INTERRES
   225  114  115 1    
   226  114  235 1    
   227  115  116 1    
   228  115  117 1    
   229  115  236 1    
   230  116  237 1    
   231  116  238 1    
   232  116  239 1    
   233  117  118 2    
   234  117  119 am   BACKBONE|DICT|INTERRES
   235  119  120 1    
   236  119  240 1    
   237  120  121 1    
   238  120  124 1    
   239  120  241 1    
   240  121  122 am   BACKBONE|DICT|INTERRES
   241  121  123 2    
   242  122  242 1    
   243  122  243 1    
   244  124  125 1    
   245  124  244 1    
   246  124  245 1    
   247  125  126 1    
   248  126  246 1    
   249  126  247 1    
@<TRIPOS>SUBSTRUCTURE
     1 UNK         1 GROUP             0       ****    0 ROOT    
