@<TRIPOS>MOLECULE
3R540
247   249    1
SMALL
USER_CHARGES


@<TRIPOS>ATOM
      1 CA          3.5404  -12.1103  -47.2589 C.3       0 UNK        -0.1800 
      2 C           2.5252  -13.1075  -46.7200 C.2       0 UNK         0.5000 
      3 O           1.8912  -12.8437  -45.6999 O.2       0 UNK        -0.5000 
      4 N           2.3721  -14.2508  -47.4010 N.am      1 UNK        -0.5000 
      5 CA          1.4329  -15.3278  -47.0582 C.3       1 UNK         0.1400 
      6 C6          1.7792  -16.6446  -47.7952 C.3       23 UNK        -0.0398 
      7 S7          1.8743  -16.4704  -49.6141 S.3       23 UNK        -0.2404 
      8 C8          0.3758  -17.3516  -50.1466 C.3       23 UNK        -0.0205 
      9 C9          0.6900  -18.6479  -50.8842 C.ar      23 UNK        -0.0193 
     10 C10         0.2091  -18.8307  -52.1825 C.ar      23 UNK        -0.1150 
     11 C11         0.4368  -20.0265  -52.8647 C.ar      23 UNK        -0.0193 
     12 C12         1.1589  -21.0456  -52.2399 C.ar      23 UNK        -0.1150 
     13 C13         1.6593  -20.8854  -50.9438 C.ar      23 UNK        -0.0193 
     14 C14         1.4222  -19.6746  -50.2728 C.ar      23 UNK        -0.1150 
     15 C15         2.4408  -22.0588  -50.3411 C.3       23 UNK        -0.0205 
     16 S16         3.0770  -21.8486  -48.6418 S.3       23 UNK        -0.2404 
     17 C17         1.5419  -21.9436  -47.6668 C.3       23 UNK        -0.0398 
     18 CA          1.3630  -23.2866  -46.9191 C.3       11 UNK         0.1400 
     19 N           2.4477  -23.5758  -45.9789 N.am      11 UNK        -0.5000 
     20 C           2.6685  -24.7756  -45.4234 C.2       10 UNK         0.5000 
     21 O           2.0146  -25.7839  -45.6906 O.2       10 UNK        -0.5000 
     22 CA          3.7793  -24.8497  -44.3588 C.3       10 UNK         0.1400 
     23 CB          5.1563  -24.9991  -45.0229 C.3       10 UNK        -0.1800 
     24 N           3.7920  -23.6843  -43.4719 N.am      10 UNK        -0.5000 
     25 C           2.8102  -23.3758  -42.6125 C.2       9 UNK         0.5000 
     26 O           1.8076  -24.0682  -42.4457 O.2       9 UNK        -0.5000 
     27 CA          2.9430  -22.0458  -41.8452 C.3       9 UNK         0.1400 
     28 CB          3.7245  -22.2562  -40.5399 C.3       9 UNK        -0.1800 
     29 N           3.5650  -20.9618  -42.6128 N.am      9 UNK        -0.5000 
     30 C           3.1489  -20.5127  -43.8049 C.2       8 UNK         0.5000 
     31 O           2.1979  -20.9928  -44.4237 O.2       8 UNK        -0.5000 
     32 CA          3.9366  -19.3227  -44.3782 C.3       8 UNK         0.1400 
     33 CB          3.8551  -19.2361  -45.9159 C.3       8 UNK        -0.1800 
     34 N           3.5360  -18.0642  -43.7407 N.am      8 UNK        -0.5000 
     35 C           2.3459  -17.4506  -43.8159 C.2       7 UNK         0.5000 
     36 O           1.3950  -17.8470  -44.4966 O.2       7 UNK        -0.5000 
     37 CA          2.2062  -16.1489  -43.0076 C.3       7 UNK         0.1400 
     38 CB          3.2938  -15.1204  -43.3825 C.3       7 UNK        -0.1800 
     39 N           0.8775  -15.6013  -43.2552 N.am      7 UNK        -0.5000 
     40 C           0.2364  -14.6805  -42.5283 C.2       6 UNK         0.5000 
     41 O           0.7175  -14.1383  -41.5324 O.2       6 UNK        -0.5000 
     42 CA         -1.1913  -14.3094  -42.9789 C.3       6 UNK         0.1400 
     43 CB         -1.1835  -12.9849  -43.7532 C.3       6 UNK        -0.1800 
     44 N          -1.8144  -15.3498  -43.8035 N.am      6 UNK        -0.5000 
     45 C          -2.3258  -16.4828  -43.3083 C.2       5 UNK         0.5000 
     46 O          -2.3907  -16.7238  -42.1006 O.2       5 UNK        -0.5000 
     47 CA         -2.8341  -17.5141  -44.3387 C.3       5 UNK         0.1400 
     48 CB         -3.3691  -18.7980  -43.6686 C.3       5 UNK        -0.1800 
     49 N          -3.8340  -16.9978  -45.2848 N.am      5 UNK        -0.5000 
     50 C          -4.9952  -16.4035  -44.9734 C.2       4 UNK         0.5000 
     51 O          -5.3099  -16.0579  -43.8333 O.2       4 UNK        -0.5000 
     52 CA         -5.9774  -16.1807  -46.1353 C.3       4 UNK         0.1400 
     53 CB         -7.3119  -15.5470  -45.6859 C.3       4 UNK        -0.1800 
     54 N          -5.3718  -15.3702  -47.1898 N.am      4 UNK        -0.5000 
     55 C          -5.7654  -15.3954  -48.4698 C.2       3 UNK         0.5000 
     56 O          -6.6332  -16.1562  -48.8996 O.2       3 UNK        -0.5000 
     57 CA         -5.1160  -14.3988  -49.4488 C.3       3 UNK         0.1400 
     58 CB         -6.1287  -13.3208  -49.8660 C.3       3 UNK        -0.1800 
     59 N          -3.9261  -13.7354  -48.9195 N.am      3 UNK        -0.5000 
     60 C          -2.6890  -14.2451  -48.9256 C.2       2 UNK         0.5000 
     61 O          -2.4158  -15.3614  -49.3716 O.2       2 UNK        -0.5000 
     62 CA         -1.5782  -13.3047  -48.4139 C.3       2 UNK         0.1400 
     63 CB         -2.0207  -12.4767  -47.1883 C.3       2 UNK        -0.1800 
     64 N          -0.3044  -13.9739  -48.1417 N.am      2 UNK        -0.5000 
     65 C          -0.0496  -14.9221  -47.2275 C.2       1 UNK         0.5000 
     66 O          -0.9027  -15.4297  -46.4972 O.2       1 UNK        -0.5000 
     67 C           0.0053  -23.3064  -46.1952 C.2       11 UNK         0.5000 
     68 O          -0.9569  -23.8543  -46.7301 O.2       11 UNK        -0.5000 
     69 N          -0.0498  -22.7188  -44.9917 N.am      12 UNK        -0.5000 
     70 CA         -1.2449  -22.6541  -44.1505 C.3       12 UNK         0.1400 
     71 CB         -0.9746  -21.7525  -42.9383 C.3       12 UNK        -0.1800 
     72 C          -1.7344  -24.0453  -43.7104 C.2       12 UNK         0.5000 
     73 O          -2.9300  -24.3211  -43.8052 O.2       12 UNK        -0.5000 
     74 N          -0.7998  -24.9149  -43.2999 N.am      13 UNK        -0.5000 
     75 CA         -1.0544  -26.3115  -42.9350 C.3       13 UNK         0.1400 
     76 CB          0.2233  -26.9217  -42.3395 C.3       13 UNK        -0.1800 
     77 C          -1.5587  -27.1666  -44.1134 C.2       13 UNK         0.5000 
     78 O          -2.3730  -28.0669  -43.9071 O.2       13 UNK        -0.5000 
     79 N          -1.0895  -26.8515  -45.3276 N.am      14 UNK        -0.5000 
     80 CA         -1.5291  -27.4671  -46.5807 C.3       14 UNK         0.1400 
     81 CB         -0.4164  -27.2899  -47.6272 C.3       14 UNK        -0.1800 
     82 C          -2.8605  -26.8922  -47.1094 C.2       14 UNK         0.5000 
     83 O          -3.4010  -27.4365  -48.0730 O.2       14 UNK        -0.5000 
     84 N          -3.3445  -25.7959  -46.5023 N.am      15 UNK        -0.5000 
     85 CA         -4.4820  -24.9663  -46.9203 C.3       15 UNK         0.1400 
     86 CB         -5.8079  -25.7483  -46.8192 C.3       15 UNK        -0.1800 
     87 C          -4.2635  -24.3124  -48.3037 C.2       15 UNK         0.5000 
     88 O          -5.2197  -24.0979  -49.0506 O.2       15 UNK        -0.5000 
     89 N          -2.9968  -24.0149  -48.6153 N.am      16 UNK        -0.5000 
     90 CA         -2.5281  -23.4786  -49.8897 C.3       16 UNK         0.1400 
     91 CB         -1.2718  -24.2632  -50.3051 C.3       16 UNK        -0.1800 
     92 C          -2.2067  -21.9769  -49.8137 C.2       16 UNK         0.5000 
     93 O          -1.9584  -21.3753  -50.8559 O.2       16 UNK        -0.5000 
     94 N          -2.1929  -21.3915  -48.6060 N.am      17 UNK        -0.5000 
     95 CA         -1.8349  -19.9934  -48.3520 C.3       17 UNK         0.1400 
     96 CB         -1.4471  -19.8215  -46.8763 C.3       17 UNK        -0.1800 
     97 C          -2.9318  -19.0008  -48.7901 C.2       17 UNK         0.5000 
     98 O          -3.5477  -18.3443  -47.9461 O.2       17 UNK        -0.5000 
     99 N          -3.1626  -18.9348  -50.1042 N.am      18 UNK        -0.5000 
    100 CA        -4.1871  -18.1261  -50.7418 C.3       18 UNK         0.1400 
    101 CB        -5.4490  -18.9789  -50.9623 C.3       18 UNK        -0.1800 
    102 C         -3.6390  -17.5310  -52.0445 C.2       18 UNK         0.5000 
    103 O         -3.9096  -18.0518  -53.1275 O.2       18 UNK        -0.5000 
    104 N         -2.9042  -16.4166  -51.9280 N.am      19 UNK        -0.5000 
    105 CA        -2.3598  -15.6357  -53.0481 C.3       19 UNK         0.1400 
    106 CB        -1.5871  -14.4259  -52.4995 C.3       19 UNK        -0.1800 
    107 C         -3.4222  -15.1600  -54.0609 C.2       19 UNK         0.5000 
    108 O         -3.1148  -15.0184  -55.2434 O.2       19 UNK        -0.5000 
    109 N         -4.6618  -14.9645  -53.5936 N.am      20 UNK        -0.5000 
    110 CA        -5.8244  -14.6504  -54.4234 C.3       20 UNK         0.1400 
    111 CB        -6.9735  -14.2004  -53.5078 C.3       20 UNK        -0.1800 
    112 C         -6.2786  -15.8200  -55.3234 C.2       20 UNK         0.5000 
    113 O         -6.9378  -15.5705  -56.3335 O.2       20 UNK        -0.5000 
    114 N         -5.9391  -17.0614  -54.9469 N.am      21 UNK        -0.5000 
    115 CA        -6.3067  -18.2765  -55.6704 C.3       21 UNK         0.1400 
    116 CB        -6.6990  -19.3709  -54.6642 C.3       21 UNK        -0.1800 
    117 C         -5.1684  -18.7641  -56.5810 C.2       21 UNK         0.5000 
    118 O         -5.4375  -19.1204  -57.7292 O.2       21 UNK        -0.5000 
    119 N         -3.9329  -18.7841  -56.0620 N.am      22 UNK        -0.5000 
    120 CA        -2.7527  -19.3584  -56.7373 C.3       22 UNK         0.1400 
    121 C         -1.5992  -18.3553  -57.0216 C.2       22 UNK         0.5000 
    122 N         -1.7273  -17.0704  -56.7245 N.am      22 UNK        -0.7600 
    123 O         -0.5645  -18.7448  -57.5564 O.2       22 UNK        -0.5000 
    124 C124       -2.2602  -20.6576  -56.0416 C.3       23 UNK        -0.0398 
    125 S125       -1.9001  -20.4826  -54.2602 S.3       23 UNK        -0.2404 
    126 C126       -0.1017  -20.2120  -54.2742 C.3       23 UNK        -0.0205 
    127 H127        4.3107  -11.9196  -46.5116 H         1 UNK         0.0600 
    128 H128        3.0497  -11.1657  -47.4932 H         1 UNK         0.0600 
    129 H129        4.0270  -12.4751  -48.1638 H         1 UNK         0.0600 
    130 H130        2.9214  -14.4099  -48.2344 H         1 UNK         0.3000 
    131 H131        1.5605  -15.5217  -45.9939 H         1 UNK         0.0600 
    132 H132        2.7595  -16.9824  -47.4598 H         1 UNK         0.0800 
    133 H133        1.0919  -17.4429  -47.5099 H         1 UNK         0.0800 
    134 H134       -0.2790  -17.5524  -49.3000 H         1 UNK         0.0800 
    135 H135       -0.1899  -16.6806  -50.7913 H         1 UNK         0.0800 
    136 H136       -0.3624  -18.0502  -52.6632 H         1 UNK         0.1150 
    137 H137        1.3294  -21.9745  -52.7660 H         1 UNK         0.1150 
    138 H138        1.7938  -19.5186  -49.2713 H         1 UNK         0.1150 
    139 H139        1.8167  -22.9533  -50.3694 H         1 UNK         0.0800 
    140 H140        3.2952  -22.2632  -50.9878 H         1 UNK         0.0800 
    141 H141        0.6947  -21.7674  -48.3310 H         1 UNK         0.0800 
    142 H142        1.5544  -21.1099  -46.9648 H         1 UNK         0.0800 
    143 H143        1.3447  -24.0837  -47.6656 H         1 UNK         0.0600 
    144 H144        2.9847  -22.7816  -45.6611 H         1 UNK         0.3000 
    145 H145        3.5956  -25.7368  -43.7488 H         1 UNK         0.0600 
    146 H146        5.9413  -25.1301  -44.2779 H         1 UNK         0.0600 
    147 H147        5.1809  -25.8722  -45.6764 H         1 UNK         0.0600 
    148 H148        5.4094  -24.1283  -45.6290 H         1 UNK         0.0600 
    149 H149        4.5809  -23.0594  -43.5463 H         1 UNK         0.3000 
    150 H150        1.9363  -21.7168  -41.5840 H         1 UNK         0.0600 
    151 H151        4.7589  -22.5443  -40.7315 H         1 UNK         0.0600 
    152 H152        3.2710  -23.0431  -39.9355 H         1 UNK         0.0600 
    153 H153        3.7341  -21.3497  -39.9345 H         1 UNK         0.0600 
    154 H154        4.3484  -20.5020  -42.1719 H         1 UNK         0.3000 
    155 H155        4.9865  -19.4780  -44.1247 H         1 UNK         0.0600 
    156 H156        2.8308  -19.1277  -46.2714 H         1 UNK         0.0600 
    157 H157        4.2604  -20.1392  -46.3728 H         1 UNK         0.0600 
    158 H158        4.4350  -18.3945  -46.2939 H         1 UNK         0.0600 
    159 H159        4.2396  -17.6482  -43.1470 H         1 UNK         0.3000 
    160 H160        2.2877  -16.3990  -41.9481 H         1 UNK         0.0600 
    161 H161        3.3275  -14.9439  -44.4571 H         1 UNK         0.0600 
    162 H162        4.2833  -15.4614  -43.0778 H         1 UNK         0.0600 
    163 H163        3.1274  -14.1600  -42.8949 H         1 UNK         0.0600 
    164 H164        0.3881  -16.0531  -44.0182 H         1 UNK         0.3000 
    165 H165       -1.7934  -14.1666  -42.0790 H         1 UNK         0.0600 
    166 H166       -2.1950  -12.6739  -44.0139 H         1 UNK         0.0600 
    167 H167       -0.7418  -12.1855  -43.1571 H         1 UNK         0.0600 
    168 H168       -0.6024  -13.0656  -44.6713 H         1 UNK         0.0600 
    169 H169       -1.7284  -15.2538  -44.8130 H         1 UNK         0.3000 
    170 H170       -1.9603  -17.7861  -44.9272 H         1 UNK         0.0600 
    171 H171       -2.6034  -19.2599  -43.0455 H         1 UNK         0.0600 
    172 H172       -4.2280  -18.5907  -43.0294 H         1 UNK         0.0600 
    173 H173       -3.6784  -19.5368  -44.4069 H         1 UNK         0.0600 
    174 H174       -3.6748  -17.2434  -46.2590 H         1 UNK         0.3000 
    175 H175       -6.1937  -17.1743  -46.5344 H         1 UNK         0.0600 
    176 H176       -7.7818  -16.1375  -44.8985 H         1 UNK         0.0600 
    177 H177       -7.1652  -14.5376  -45.3000 H         1 UNK         0.0600 
    178 H178       -8.0240  -15.4897  -46.5091 H         1 UNK         0.0600 
    179 H179       -4.6286  -14.7460  -46.9111 H         1 UNK         0.3000 
    180 H180       -4.8397  -14.9546  -50.3452 H         1 UNK         0.0600 
    181 H181       -6.4504  -12.7199  -49.0145 H         1 UNK         0.0600 
    182 H182       -7.0211  -13.7685  -50.3058 H         1 UNK         0.0600 
    183 H183       -5.7045  -12.6478  -50.6114 H         1 UNK         0.0600 
    184 H184       -4.0639  -12.8057  -48.5498 H         1 UNK         0.3000 
    185 H185       -1.3743  -12.6085  -49.2285 H         1 UNK         0.0600 
    186 H186       -2.7972  -11.7570  -47.4484 H         1 UNK         0.0600 
    187 H187       -2.4142  -13.1144  -46.3967 H         1 UNK         0.0600 
    188 H188       -1.1881  -11.9050  -46.7778 H         1 UNK         0.0600 
    189 H189        0.4764  -13.6569  -48.6975 H         1 UNK         0.3000 
    190 H190        0.7794  -22.2406  -44.6479 H         1 UNK         0.3000 
    191 H191       -2.0383  -22.1935  -44.7427 H         1 UNK         0.0600 
    192 H192       -0.6067  -20.7733  -43.2467 H         1 UNK         0.0600 
    193 H193       -1.8864  -21.5955  -42.3611 H         1 UNK         0.0600 
    194 H194       -0.2377  -22.1921  -42.2676 H         1 UNK         0.0600 
    195 H195        0.1598  -24.5919  -43.2005 H         1 UNK         0.3000 
    196 H196       -1.8289  -26.3202  -42.1654 H         1 UNK         0.0600 
    197 H197        0.0656  -27.9626  -42.0542 H         1 UNK         0.0600 
    198 H198        0.5363  -26.3836  -41.4447 H         1 UNK         0.0600 
    199 H199        1.0493  -26.8956  -43.0516 H         1 UNK         0.0600 
    200 H200       -0.4015  -26.1140  -45.4055 H         1 UNK         0.3000 
    201 H201       -1.6756  -28.5368  -46.4180 H         1 UNK         0.0600 
    202 H202       -0.6804  -27.7737  -48.5684 H         1 UNK         0.0600 
    203 H203        0.5195  -27.7329  -47.2864 H         1 UNK         0.0600 
    204 H204       -0.2285  -26.2377  -47.8418 H         1 UNK         0.0600 
    205 H205       -2.8238  -25.4335  -45.7134 H         1 UNK         0.3000 
    206 H206       -4.5320  -24.1443  -46.2051 H         1 UNK         0.0600 
    207 H207       -5.9256  -26.1970  -45.8328 H         1 UNK         0.0600 
    208 H208       -6.6624  -25.0898  -46.9790 H         1 UNK         0.0600 
    209 H209       -5.8683  -26.5453  -47.5606 H         1 UNK         0.0600 
    210 H210       -2.2766  -24.1800  -47.9140 H         1 UNK         0.3000 
    211 H211       -3.2889  -23.6140  -50.6609 H         1 UNK         0.0600 
    212 H212       -0.4659  -24.1458  -49.5798 H         1 UNK         0.0600 
    213 H213       -0.8964  -23.9212  -51.2707 H         1 UNK         0.0600 
    214 H214       -1.4857  -25.3282  -50.3975 H         1 UNK         0.0600 
    215 H215       -2.4391  -21.9533  -47.8049 H         1 UNK         0.3000 
    216 H216       -0.9475  -19.7717  -48.9404 H         1 UNK         0.0600 
    217 H217       -1.0926  -18.8068  -46.6964 H         1 UNK         0.0600 
    218 H218       -0.6400  -20.4875  -46.5873 H         1 UNK         0.0600 
    219 H219       -2.2896  -20.0145  -46.2138 H         1 UNK         0.0600 
    220 H220       -2.6342  -19.5557  -50.7137 H         1 UNK         0.3000 
    221 H221       -4.4494  -17.2927  -50.0935 H         1 UNK         0.0600 
    222 H222       -5.2348  -19.8685  -51.5560 H         1 UNK         0.0600 
    223 H223       -5.8716  -19.3048  -50.0118 H         1 UNK         0.0600 
    224 H224       -6.2205  -18.4096  -51.4823 H         1 UNK         0.0600 
    225 H225       -2.6999  -16.0663  -50.9922 H         1 UNK         0.3000 
    226 H226       -1.6613  -16.2772  -53.5883 H         1 UNK         0.0600 
    227 H227       -1.1359  -13.8519  -53.3100 H         1 UNK         0.0600 
    228 H228       -2.2408  -13.7509  -51.9462 H         1 UNK         0.0600 
    229 H229       -0.7799  -14.7296  -51.8347 H         1 UNK         0.0600 
    230 H230       -4.8299  -15.1021  -52.6101 H         1 UNK         0.3000 
    231 H231       -5.5620  -13.8165  -55.0779 H         1 UNK         0.0600 
    232 H232       -7.2555  -14.9817  -52.8007 H         1 UNK         0.0600 
    233 H233       -7.8613  -13.9478  -54.0891 H         1 UNK         0.0600 
    234 H234       -6.6986  -13.3125  -52.9386 H         1 UNK         0.0600 
    235 H235       -5.3381  -17.1920  -54.1406 H         1 UNK         0.3000 
    236 H236       -7.1788  -18.0852  -56.2994 H         1 UNK         0.0600 
    237 H237       -7.5164  -19.0421  -54.0224 H         1 UNK         0.0600 
    238 H238       -7.0328  -20.2715  -55.1809 H         1 UNK         0.0600 
    239 H239       -5.8637  -19.6545  -54.0235 H         1 UNK         0.0600 
    240 H240       -3.7976  -18.5098  -55.0936 H         1 UNK         0.3000 
    241 H241       -3.0458  -19.6642  -57.7428 H         1 UNK         0.0600 
    242 H242       -0.9664  -16.4469  -56.9400 H         1 UNK         0.3800 
    243 H243       -2.5632  -16.6887  -56.3012 H         1 UNK         0.3800 
    244 H244       -3.0370  -21.4175  -56.1336 H         1 UNK         0.0800 
    245 H245       -1.3923  -21.0760  -56.5539 H         1 UNK         0.0800 
    246 H246        0.1343  -19.3268  -54.8652 H         1 UNK         0.0800 
    247 H247        0.3881  -21.0544  -54.7648 H         1 UNK         0.0800 
@<TRIPOS>BOND
     1    1    2 1    
     2    1  127 1    
     3    1  128 1    
     4    1  129 1    
     5    2    3 2    
     6    2    4 am   BACKBONE|DICT|INTERRES
     7    4    5 1    
     8    4  130 1    
     9    5    6 1    
    10    5   65 1    
    11    5  131 1    
    12    6    7 1    
    13    6  132 1    
    14    6  133 1    
    15    7    8 1    
    16    8    9 1    
    17    8  134 1    
    18    8  135 1    
    19    9   10 ar   
    20    9   14 ar   
    21   10   11 ar   
    22   10  136 1    
    23   11   12 ar   
    24   11  126 1    
    25   12   13 ar   
    26   12  137 1    
    27   13   14 ar   
    28   13   15 1    
    29   14  138 1    
    30   15   16 1    
    31   15  139 1    
    32   15  140 1    
    33   16   17 1    
    34   17   18 1    
    35   17  141 1    
    36   17  142 1    
    37   18   19 1    
    38   18   67 1    
    39   18  143 1    
    40   19   20 am   BACKBONE|DICT|INTERRES
    41   19  144 1    
    42   20   21 2    
    43   20   22 1    
    44   22   23 1    
    45   22   24 1    
    46   22  145 1    
    47   23  146 1    
    48   23  147 1    
    49   23  148 1    
    50   24   25 am   BACKBONE|DICT|INTERRES
    51   24  149 1    
    52   25   26 2    
    53   25   27 1    
    54   27   28 1    
    55   27   29 1    
    56   27  150 1    
    57   28  151 1    
    58   28  152 1    
    59   28  153 1    
    60   29   30 am   BACKBONE|DICT|INTERRES
    61   29  154 1    
    62   30   31 2    
    63   30   32 1    
    64   32   33 1    
    65   32   34 1    
    66   32  155 1    
    67   33  156 1    
    68   33  157 1    
    69   33  158 1    
    70   34   35 am   BACKBONE|DICT|INTERRES
    71   34  159 1    
    72   35   36 2    
    73   35   37 1    
    74   37   38 1    
    75   37   39 1    
    76   37  160 1    
    77   38  161 1    
    78   38  162 1    
    79   38  163 1    
    80   39   40 am   BACKBONE|DICT|INTERRES
    81   39  164 1    
    82   40   41 2    
    83   40   42 1    
    84   42   43 1    
    85   42   44 1    
    86   42  165 1    
    87   43  166 1    
    88   43  167 1    
    89   43  168 1    
    90   44   45 am   BACKBONE|DICT|INTERRES
    91   44  169 1    
    92   45   46 2    
    93   45   47 1    
    94   47   48 1    
    95   47   49 1    
    96   47  170 1    
    97   48  171 1    
    98   48  172 1    
    99   48  173 1    
   100   49   50 am   BACKBONE|DICT|INTERRES
   101   49  174 1    
   102   50   51 2    
   103   50   52 1    
   104   52   53 1    
   105   52   54 1    
   106   52  175 1    
   107   53  176 1    
   108   53  177 1    
   109   53  178 1    
   110   54   55 am   BACKBONE|DICT|INTERRES
   111   54  179 1    
   112   55   56 2    
   113   55   57 1    
   114   57   58 1    
   115   57   59 1    
   116   57  180 1    
   117   58  181 1    
   118   58  182 1    
   119   58  183 1    
   120   59   60 am   BACKBONE|DICT|INTERRES
   121   59  184 1    
   122   60   61 2    
   123   60   62 1    
   124   62   63 1    
   125   62   64 1    
   126   62  185 1    
   127   63  186 1    
   128   63  187 1    
   129   63  188 1    
   130   64   65 am   BACKBONE|DICT|INTERRES
   131   64  189 1    
   132   65   66 2    
   133   67   68 2    
   134   67   69 am   BACKBONE|DICT|INTERRES
   135   69   70 1    
   136   69  190 1    
   137   70   71 1    
   138   70   72 1    
   139   70  191 1    
   140   71  192 1    
   141   71  193 1    
   142   71  194 1    
   143   72   73 2    
   144   72   74 am   BACKBONE|DICT|INTERRES
   145   74   75 1    
   146   74  195 1    
   147   75   76 1    
   148   75   77 1    
   149   75  196 1    
   150   76  197 1    
   151   76  198 1    
   152   76  199 1    
   153   77   78 2    
   154   77   79 am   BACKBONE|DICT|INTERRES
   155   79   80 1    
   156   79  200 1    
   157   80   81 1    
   158   80   82 1    
   159   80  201 1    
   160   81  202 1    
   161   81  203 1    
   162   81  204 1    
   163   82   83 2    
   164   82   84 am   BACKBONE|DICT|INTERRES
   165   84   85 1    
   166   84  205 1    
   167   85   86 1    
   168   85   87 1    
   169   85  206 1    
   170   86  207 1    
   171   86  208 1    
   172   86  209 1    
   173   87   88 2    
   174   87   89 am   BACKBONE|DICT|INTERRES
   175   89   90 1    
   176   89  210 1    
   177   90   91 1    
   178   90   92 1    
   179   90  211 1    
   180   91  212 1    
   181   91  213 1    
   182   91  214 1    
   183   92   93 2    
   184   92   94 am   BACKBONE|DICT|INTERRES
   185   94   95 1    
   186   94  215 1    
   187   95   96 1    
   188   95   97 1    
   189   95  216 1    
   190   96  217 1    
   191   96  218 1    
   192   96  219 1    
   193   97   98 2    
   194   97   99 am   BACKBONE|DICT|INTERRES
   195   99  100 1    
   196   99  220 1    
   197  100  101 1    
   198  100  102 1    
   199  100  221 1    
   200  101  222 1    
   201  101  223 1    
   202  101  224 1    
   203  102  103 2    
   204  102  104 am   BACKBONE|DICT|INTERRES
   205  104  105 1    
   206  104  225 1    
   207  105  106 1    
   208  105  107 1    
   209  105  226 1    
   210  106  227 1    
   211  106  228 1    
   212  106  229 1    
   213  107  108 2    
   214  107  109 am   BACKBONE|DICT|INTERRES
   215  109  110 1    
   216  109  230 1    
   217  110  111 1    
   218  110  112 1    
   219  110  231 1    
   220  111  232 1    
   221  111  233 1    
   222  111  234 1    
   223  112  113 2    
   224  112  114 am   BACKBONE|DICT|INTERRES
   225  114  115 1    
   226  114  235 1    
   227  115  116 1    
   228  115  117 1    
   229  115  236 1    
   230  116  237 1    
   231  116  238 1    
   232  116  239 1    
   233  117  118 2    
   234  117  119 am   BACKBONE|DICT|INTERRES
   235  119  120 1    
   236  119  240 1    
   237  120  121 1    
   238  120  124 1    
   239  120  241 1    
   240  121  122 am   BACKBONE|DICT|INTERRES
   241  121  123 2    
   242  122  242 1    
   243  122  243 1    
   244  124  125 1    
   245  124  244 1    
   246  124  245 1    
   247  125  126 1    
   248  126  246 1    
   249  126  247 1    
@<TRIPOS>SUBSTRUCTURE
     1 UNK         1 GROUP             0       ****    0 ROOT    
