@<TRIPOS>MOLECULE
3R540
247   249    1
SMALL
USER_CHARGES


@<TRIPOS>ATOM
      1 CA          4.4558  -18.0047  -46.2793 C.3       0 UNK        -0.1800 
      2 C           3.9091  -16.7783  -46.9954 C.2       0 UNK         0.5000 
      3 O           4.6458  -16.1199  -47.7296 O.2       0 UNK        -0.5000 
      4 N           2.6217  -16.4737  -46.7842 N.am      1 UNK        -0.5000 
      5 CA          1.8454  -15.3877  -47.3974 C.3       1 UNK         0.1400 
      6 C6          1.7857  -15.4893  -48.9452 C.3       23 UNK        -0.0398 
      7 S7          0.4644  -14.4736  -49.6927 S.3       23 UNK        -0.2404 
      8 C8         -0.9383  -15.6323  -49.7345 C.3       23 UNK        -0.0205 
      9 C9         -0.6883  -16.8148  -50.6563 C.ar      23 UNK        -0.0193 
     10 C10        -0.6708  -16.6342  -52.0409 C.ar      23 UNK        -0.1150 
     11 C11        -0.4711  -17.7211  -52.8973 C.ar      23 UNK        -0.0193 
     12 C12        -0.2429  -18.9872  -52.3518 C.ar      23 UNK        -0.1150 
     13 C13        -0.2706  -19.1861  -50.9680 C.ar      23 UNK        -0.0193 
     14 C14        -0.5049  -18.0947  -50.1267 C.ar      23 UNK        -0.1150 
     15 C15        -0.1125  -20.5891  -50.3976 C.3       23 UNK        -0.0205 
     16 S16         1.4244  -20.8095  -49.4370 S.3       23 UNK        -0.2404 
     17 C17         0.8483  -20.5467  -47.7217 C.3       23 UNK        -0.0398 
     18 CA          0.4827  -21.8497  -46.9654 C.3       11 UNK         0.1400 
     19 N           0.2600  -21.5982  -45.5383 N.am      11 UNK        -0.5000 
     20 C           0.0098  -22.5402  -44.6167 C.2       10 UNK         0.5000 
     21 O           0.0058  -23.7466  -44.8545 O.2       10 UNK        -0.5000 
     22 CA         -0.3607  -22.0557  -43.2047 C.3       10 UNK         0.1400 
     23 CB          0.8977  -21.6645  -42.4174 C.3       10 UNK        -0.1800 
     24 N          -1.3122  -20.9426  -43.2251 N.am      10 UNK        -0.5000 
     25 C          -2.5552  -21.0180  -43.7248 C.2       9 UNK         0.5000 
     26 O          -3.0457  -22.0514  -44.1778 O.2       9 UNK        -0.5000 
     27 CA         -3.3716  -19.7134  -43.7760 C.3       9 UNK         0.1400 
     28 CB         -3.9965  -19.3991  -42.4088 C.3       9 UNK        -0.1800 
     29 N          -2.5806  -18.5705  -44.2323 N.am      9 UNK        -0.5000 
     30 C          -2.0192  -18.4692  -45.4456 C.2       8 UNK         0.5000 
     31 O          -2.1440  -19.3119  -46.3345 O.2       8 UNK        -0.5000 
     32 CA         -1.1084  -17.2514  -45.6804 C.3       8 UNK         0.1400 
     33 CB         -1.9373  -15.9864  -45.9536 C.3       8 UNK        -0.1800 
     34 N          -0.1971  -17.0272  -44.5545 N.am      8 UNK        -0.5000 
     35 C           0.7571  -17.8903  -44.1758 C.2       7 UNK         0.5000 
     36 O           1.0614  -18.8871  -44.8286 O.2       7 UNK        -0.5000 
     37 CA          1.4747  -17.6137  -42.8440 C.3       7 UNK         0.1400 
     38 CB          2.7110  -16.7283  -43.0540 C.3       7 UNK        -0.1800 
     39 N           0.5808  -16.9981  -41.8642 N.am      7 UNK        -0.5000 
     40 C          -0.3756  -17.6633  -41.2000 C.2       6 UNK         0.5000 
     41 O          -0.5724  -18.8709  -41.3241 O.2       6 UNK        -0.5000 
     42 CA         -1.2931  -16.8375  -40.2779 C.3       6 UNK         0.1400 
     43 CB         -0.6725  -16.7055  -38.8795 C.3       6 UNK        -0.1800 
     44 N          -1.5703  -15.5034  -40.8104 N.am      6 UNK        -0.5000 
     45 C          -2.2534  -15.2610  -41.9385 C.2       5 UNK         0.5000 
     46 O          -2.8052  -16.1408  -42.5983 O.2       5 UNK        -0.5000 
     47 CA         -2.2578  -13.8039  -42.4470 C.3       5 UNK         0.1400 
     48 CB         -3.4824  -13.0492  -41.9102 C.3       5 UNK        -0.1800 
     49 N          -1.0371  -13.0716  -42.0879 N.am      5 UNK        -0.5000 
     50 C           0.1925  -13.4027  -42.5044 C.2       4 UNK         0.5000 
     51 O           0.4177  -14.3175  -43.3008 O.2       4 UNK        -0.5000 
     52 CA          1.3612  -12.6678  -41.8345 C.3       4 UNK         0.1400 
     53 CB          1.5310  -13.1981  -40.3925 C.3       4 UNK        -0.1800 
     54 N           2.5788  -12.8915  -42.6127 N.am      4 UNK        -0.5000 
     55 C           3.7793  -12.3498  -42.3693 C.2       3 UNK         0.5000 
     56 O           3.9949  -11.5331  -41.4728 O.2       3 UNK        -0.5000 
     57 CA          4.9434  -12.7849  -43.2786 C.3       3 UNK         0.1400 
     58 CB          5.5691  -14.0971  -42.7826 C.3       3 UNK        -0.1800 
     59 N           4.5656  -12.9294  -44.6841 N.am      3 UNK        -0.5000 
     60 C           4.2915  -11.9008  -45.4976 C.2       2 UNK         0.5000 
     61 O           4.2763  -10.7245  -45.1325 O.2       2 UNK        -0.5000 
     62 CA          4.0171  -12.2319  -46.9751 C.3       2 UNK         0.1400 
     63 CB          5.2934  -12.0497  -47.8107 C.3       2 UNK        -0.1800 
     64 N           3.5022  -13.5837  -47.1937 N.am      2 UNK        -0.5000 
     65 C           2.2568  -13.9807  -46.9115 C.2       1 UNK         0.5000 
     66 O           1.4408  -13.2804  -46.3125 O.2       1 UNK        -0.5000 
     67 C          -0.7292  -22.5631  -47.6014 C.2       11 UNK         0.5000 
     68 O          -0.5570  -23.5964  -48.2491 O.2       11 UNK        -0.5000 
     69 N          -1.9347  -22.0186  -47.3820 N.am      12 UNK        -0.5000 
     70 CA         -3.1940  -22.5624  -47.8929 C.3       12 UNK         0.1400 
     71 CB         -4.3337  -21.5774  -47.5942 C.3       12 UNK        -0.1800 
     72 C          -3.5247  -23.9705  -47.3582 C.2       12 UNK         0.5000 
     73 O          -4.1468  -24.7535  -48.0755 O.2       12 UNK        -0.5000 
     74 N          -3.0943  -24.2725  -46.1278 N.am      13 UNK        -0.5000 
     75 CA         -3.2263  -25.5867  -45.5084 C.3       13 UNK         0.1400 
     76 CB         -3.1533  -25.4390  -43.9798 C.3       13 UNK        -0.1800 
     77 C          -2.1684  -26.5841  -46.0157 C.2       13 UNK         0.5000 
     78 O          -2.5284  -27.6854  -46.4338 O.2       13 UNK        -0.5000 
     79 N          -0.8859  -26.2049  -45.9296 N.am      14 UNK        -0.5000 
     80 CA          0.2470  -27.1047  -46.1461 C.3       14 UNK         0.1400 
     81 CB          1.4669  -26.5906  -45.3643 C.3       14 UNK        -0.1800 
     82 C           0.6019  -27.2987  -47.6280 C.2       14 UNK         0.5000 
     83 O           0.7720  -28.4392  -48.0620 O.2       14 UNK        -0.5000 
     84 N           0.7399  -26.1923  -48.3687 N.am      15 UNK        -0.5000 
     85 CA          1.1423  -26.1976  -49.7762 C.3       15 UNK         0.1400 
     86 CB          1.9885  -24.9485  -50.0752 C.3       15 UNK        -0.1800 
     87 C          -0.0787  -26.2669  -50.7051 C.2       15 UNK         0.5000 
     88 O          -0.0497  -27.0174  -51.6812 O.2       15 UNK        -0.5000 
     89 N          -1.1197  -25.4986  -50.3525 N.am      16 UNK        -0.5000 
     90 CA         -2.3871  -25.2819  -51.0545 C.3       16 UNK         0.1400 
     91 CB         -3.1377  -26.6014  -51.3176 C.3       16 UNK        -0.1800 
     92 C          -2.2370  -24.4423  -52.3375 C.2       16 UNK         0.5000 
     93 O          -1.2751  -24.5970  -53.0920 O.2       16 UNK        -0.5000 
     94 N          -3.2157  -23.5590  -52.5610 N.am      17 UNK        -0.5000 
     95 CA         -3.2711  -22.6302  -53.6906 C.3       17 UNK         0.1400 
     96 CB         -2.2913  -21.4641  -53.4605 C.3       17 UNK        -0.1800 
     97 C          -4.7165  -22.1566  -53.9173 C.2       17 UNK         0.5000 
     98 O          -4.9423  -20.9711  -54.1708 O.2       17 UNK        -0.5000 
     99 N          -5.6749  -23.0863  -53.7694 N.am      18 UNK        -0.5000 
    100 CA        -7.1257  -22.8842  -53.8891 C.3       18 UNK         0.1400 
    101 CB        -7.5109  -22.6286  -55.3612 C.3       18 UNK        -0.1800 
    102 C         -7.6494  -21.7992  -52.9233 C.2       18 UNK         0.5000 
    103 O         -8.3166  -20.8567  -53.3486 O.2       18 UNK        -0.5000 
    104 N         -7.2795  -21.9380  -51.6401 N.am      19 UNK        -0.5000 
    105 CA        -7.5365  -20.9954  -50.5411 C.3       19 UNK         0.1400 
    106 CB        -9.0465  -20.8937  -50.2371 C.3       19 UNK        -0.1800 
    107 C         -6.8648  -19.6212  -50.7632 C.2       19 UNK         0.5000 
    108 O         -7.4479  -18.5848  -50.4412 O.2       19 UNK        -0.5000 
    109 N         -5.6433  -19.6567  -51.3185 N.am      20 UNK        -0.5000 
    110 CA        -4.7992  -18.5168  -51.6958 C.3       20 UNK         0.1400 
    111 CB        -4.3558  -17.7137  -50.4546 C.3       20 UNK        -0.1800 
    112 C         -5.4149  -17.6431  -52.8114 C.2       20 UNK         0.5000 
    113 O         -5.2110  -16.4280  -52.8306 O.2       20 UNK        -0.5000 
    114 N         -6.1398  -18.2846  -53.7389 N.am      21 UNK        -0.5000 
    115 CA        -6.5916  -17.6846  -54.9959 C.3       21 UNK         0.1400 
    116 CB        -7.8324  -18.4305  -55.5054 C.3       21 UNK        -0.1800 
    117 C         -5.4767  -17.6954  -56.0599 C.2       21 UNK         0.5000 
    118 O         -5.4840  -16.8429  -56.9487 O.2       21 UNK        -0.5000 
    119 N         -4.5326  -18.6400  -55.9325 N.am      22 UNK        -0.5000 
    120 CA        -3.2848  -18.7498  -56.7124 C.3       22 UNK         0.1400 
    121 C         -3.4709  -19.2282  -58.1839 C.2       22 UNK         0.5000 
    122 N         -4.6308  -19.7456  -58.5697 N.am      22 UNK        -0.7600 
    123 O         -2.5417  -19.1607  -58.9842 O.2       22 UNK        -0.5000 
    124 C124       -2.3663  -17.4940  -56.6077 C.3       23 UNK        -0.0398 
    125 S125       -2.1676  -16.8833  -54.8974 S.3       23 UNK        -0.2404 
    126 C126       -0.5410  -17.5370  -54.4074 C.3       23 UNK        -0.0205 
    127 H127        4.9370  -18.6715  -46.9948 H         1 UNK         0.0600 
    128 H128        3.6694  -18.5661  -45.7746 H         1 UNK         0.0600 
    129 H129        5.1967  -17.7073  -45.5375 H         1 UNK         0.0600 
    130 H130        2.0922  -17.0685  -46.1629 H         1 UNK         0.3000 
    131 H131        0.8318  -15.5414  -47.0318 H         1 UNK         0.0600 
    132 H132        2.7339  -15.1890  -49.3931 H         1 UNK         0.0800 
    133 H133        1.6477  -16.5284  -49.2423 H         1 UNK         0.0800 
    134 H134       -1.1514  -15.9714  -48.7219 H         1 UNK         0.0800 
    135 H135       -1.8277  -15.0980  -50.0716 H         1 UNK         0.0800 
    136 H136       -0.8391  -15.6494  -52.4539 H         1 UNK         0.1150 
    137 H137       -0.0723  -19.8261  -53.0099 H         1 UNK         0.1150 
    138 H138       -0.5493  -18.2360  -49.0585 H         1 UNK         0.1150 
    139 H139       -0.9889  -20.8192  -49.7935 H         1 UNK         0.0800 
    140 H140       -0.1085  -21.3261  -51.2019 H         1 UNK         0.0800 
    141 H141        0.0146  -19.8482  -47.7072 H         1 UNK         0.0800 
    142 H142        1.6608  -20.0430  -47.1968 H         1 UNK         0.0800 
    143 H143        1.3341  -22.5299  -47.0365 H         1 UNK         0.0600 
    144 H144        0.2898  -20.6269  -45.2431 H         1 UNK         0.3000 
    145 H145       -0.8392  -22.8874  -42.6835 H         1 UNK         0.0600 
    146 H146        0.6502  -21.3591  -41.4008 H         1 UNK         0.0600 
    147 H147        1.5872  -22.5065  -42.3447 H         1 UNK         0.0600 
    148 H148        1.4335  -20.8453  -42.8954 H         1 UNK         0.0600 
    149 H149       -1.0077  -20.0745  -42.7956 H         1 UNK         0.3000 
    150 H150       -4.1830  -19.8592  -44.4919 H         1 UNK         0.0600 
    151 H151       -4.6226  -18.5079  -42.4575 H         1 UNK         0.0600 
    152 H152       -4.6266  -20.2224  -42.0701 H         1 UNK         0.0600 
    153 H153       -3.2373  -19.2318  -41.6453 H         1 UNK         0.0600 
    154 H154       -2.4719  -17.8007  -43.5786 H         1 UNK         0.3000 
    155 H155       -0.5055  -17.4608  -46.5659 H         1 UNK         0.0600 
    156 H156       -2.5987  -15.7443  -45.1239 H         1 UNK         0.0600 
    157 H157       -2.5692  -16.1193  -46.8322 H         1 UNK         0.0600 
    158 H158       -1.3019  -15.1191  -46.1328 H         1 UNK         0.0600 
    159 H159       -0.3408  -16.1916  -43.9995 H         1 UNK         0.3000 
    160 H160        1.8173  -18.5675  -42.4390 H         1 UNK         0.0600 
    161 H161        2.4799  -15.8180  -43.6059 H         1 UNK         0.0600 
    162 H162        3.4759  -17.2629  -43.6164 H         1 UNK         0.0600 
    163 H163        3.1547  -16.4423  -42.1003 H         1 UNK         0.0600 
    164 H164        0.6400  -15.9951  -41.7678 H         1 UNK         0.3000 
    165 H165       -2.2414  -17.3709  -40.1848 H         1 UNK         0.0600 
    166 H166       -1.3446  -16.1844  -38.1974 H         1 UNK         0.0600 
    167 H167       -0.4710  -17.6871  -38.4483 H         1 UNK         0.0600 
    168 H168        0.2707  -16.1583  -38.9056 H         1 UNK         0.0600 
    169 H169       -1.1650  -14.7226  -40.3170 H         1 UNK         0.3000 
    170 H170       -2.3232  -13.8338  -43.5364 H         1 UNK         0.0600 
    171 H171       -4.4063  -13.5612  -42.1832 H         1 UNK         0.0600 
    172 H172       -3.4614  -12.9669  -40.8228 H         1 UNK         0.0600 
    173 H173       -3.5369  -12.0417  -42.3231 H         1 UNK         0.0600 
    174 H174       -1.1458  -12.3126  -41.4302 H         1 UNK         0.3000 
    175 H175        1.1411  -11.5987  -41.8195 H         1 UNK         0.0600 
    176 H176        1.8131  -14.2518  -40.3838 H         1 UNK         0.0600 
    177 H177        2.2939  -12.6473  -39.8435 H         1 UNK         0.0600 
    178 H178        0.6089  -13.1001  -39.8187 H         1 UNK         0.0600 
    179 H179        2.4553  -13.5157  -43.4001 H         1 UNK         0.3000 
    180 H180        5.7108  -12.0101  -43.2150 H         1 UNK         0.0600 
    181 H181        4.8814  -14.9354  -42.8809 H         1 UNK         0.0600 
    182 H182        5.8506  -14.0241  -41.7312 H         1 UNK         0.0600 
    183 H183        6.4721  -14.3387  -43.3435 H         1 UNK         0.0600 
    184 H184        4.5621  -13.8612  -45.0709 H         1 UNK         0.3000 
    185 H185        3.2712  -11.5203  -47.3359 H         1 UNK         0.0600 
    186 H186        5.6973  -11.0430  -47.6954 H         1 UNK         0.0600 
    187 H187        6.0723  -12.7530  -47.5130 H         1 UNK         0.0600 
    188 H188        5.0943  -12.1990  -48.8721 H         1 UNK         0.0600 
    189 H189        4.1270  -14.2593  -47.6251 H         1 UNK         0.3000 
    190 H190       -1.9979  -21.1526  -46.8524 H         1 UNK         0.3000 
    191 H191       -3.0971  -22.6414  -48.9773 H         1 UNK         0.0600 
    192 H192       -4.1527  -20.6100  -48.0638 H         1 UNK         0.0600 
    193 H193       -5.2848  -21.9519  -47.9734 H         1 UNK         0.0600 
    194 H194       -4.4494  -21.4127  -46.5227 H         1 UNK         0.0600 
    195 H195       -2.6583  -23.5444  -45.5731 H         1 UNK         0.3000 
    196 H196       -4.2108  -25.9912  -45.7533 H         1 UNK         0.0600 
    197 H197       -3.2507  -26.4075  -43.4879 H         1 UNK         0.0600 
    198 H198       -3.9571  -24.8028  -43.6089 H         1 UNK         0.0600 
    199 H199       -2.2084  -24.9997  -43.6585 H         1 UNK         0.0600 
    200 H200       -0.6623  -25.2753  -45.5786 H         1 UNK         0.3000 
    201 H201       -0.0090  -28.0849  -45.7376 H         1 UNK         0.0600 
    202 H202        1.2444  -26.5017  -44.3008 H         1 UNK         0.0600 
    203 H203        1.7933  -25.6125  -45.7197 H         1 UNK         0.0600 
    204 H204        2.3111  -27.2739  -45.4646 H         1 UNK         0.0600 
    205 H205        0.4974  -25.2924  -47.9695 H         1 UNK         0.3000 
    206 H206        1.7671  -27.0710  -49.9759 H         1 UNK         0.0600 
    207 H207        2.8675  -24.9048  -49.4322 H         1 UNK         0.0600 
    208 H208        2.3403  -24.9576  -51.1075 H         1 UNK         0.0600 
    209 H209        1.4247  -24.0264  -49.9335 H         1 UNK         0.0600 
    210 H210       -0.9795  -24.9010  -49.5416 H         1 UNK         0.3000 
    211 H211       -2.9917  -24.6987  -50.3626 H         1 UNK         0.0600 
    212 H212       -2.6324  -27.2209  -52.0586 H         1 UNK         0.0600 
    213 H213       -4.1432  -26.4070  -51.6920 H         1 UNK         0.0600 
    214 H214       -3.2398  -27.1844  -50.4020 H         1 UNK         0.0600 
    215 H215       -3.9783  -23.4946  -51.9024 H         1 UNK         0.3000 
    216 H216       -2.9759  -23.1566  -54.6005 H         1 UNK         0.0600 
    217 H217       -2.3295  -20.7392  -54.2727 H         1 UNK         0.0600 
    218 H218       -1.2643  -21.8233  -53.4049 H         1 UNK         0.0600 
    219 H219       -2.5131  -20.9349  -52.5338 H         1 UNK         0.0600 
    220 H220       -5.3846  -24.0358  -53.5821 H         1 UNK         0.3000 
    221 H221       -7.6019  -23.8173  -53.5841 H         1 UNK         0.0600 
    222 H222       -7.0372  -21.7304  -55.7559 H         1 UNK         0.0600 
    223 H223       -7.2125  -23.4645  -55.9936 H         1 UNK         0.0600 
    224 H224       -8.5893  -22.5085  -55.4716 H         1 UNK         0.0600 
    225 H225       -6.7439  -22.7577  -51.3933 H         1 UNK         0.3000 
    226 H226       -7.0589  -21.4210  -49.6578 H         1 UNK         0.0600 
    227 H227       -9.4843  -21.8792  -50.0794 H         1 UNK         0.0600 
    228 H228       -9.2235  -20.3126  -49.3314 H         1 UNK         0.0600 
    229 H229       -9.5933  -20.4088  -51.0461 H         1 UNK         0.0600 
    230 H230       -5.2837  -20.5608  -51.5832 H         1 UNK         0.3000 
    231 H231       -3.8963  -18.9439  -52.1345 H         1 UNK         0.0600 
    232 H232       -5.1949  -17.2148  -49.9700 H         1 UNK         0.0600 
    233 H233       -3.6345  -16.9437  -50.7286 H         1 UNK         0.0600 
    234 H234       -3.8742  -18.3581  -49.7188 H         1 UNK         0.0600 
    235 H235       -6.2481  -19.2883  -53.6548 H         1 UNK         0.3000 
    236 H236       -6.8731  -16.6450  -54.8163 H         1 UNK         0.0600 
    237 H237       -8.6378  -18.4021  -54.7712 H         1 UNK         0.0600 
    238 H238       -8.2111  -17.9782  -56.4228 H         1 UNK         0.0600 
    239 H239       -7.6128  -19.4755  -55.7206 H         1 UNK         0.0600 
    240 H240       -4.6480  -19.3345  -55.2008 H         1 UNK         0.3000 
    241 H241       -2.7407  -19.5672  -56.2412 H         1 UNK         0.0600 
    242 H242       -5.3988  -19.8118  -57.9215 H         1 UNK         0.3800 
    243 H243       -4.7436  -20.0629  -59.5198 H         1 UNK         0.3800 
    244 H244       -2.7776  -16.6782  -57.2037 H         1 UNK         0.0800 
    245 H245       -1.3812  -17.7021  -57.0281 H         1 UNK         0.0800 
    246 H246       -0.3630  -18.4862  -54.9151 H         1 UNK         0.0800 
    247 H247        0.2425  -16.8515  -54.7326 H         1 UNK         0.0800 
@<TRIPOS>BOND
     1    1    2 1    
     2    1  127 1    
     3    1  128 1    
     4    1  129 1    
     5    2    3 2    
     6    2    4 am   BACKBONE|DICT|INTERRES
     7    4    5 1    
     8    4  130 1    
     9    5    6 1    
    10    5   65 1    
    11    5  131 1    
    12    6    7 1    
    13    6  132 1    
    14    6  133 1    
    15    7    8 1    
    16    8    9 1    
    17    8  134 1    
    18    8  135 1    
    19    9   10 ar   
    20    9   14 ar   
    21   10   11 ar   
    22   10  136 1    
    23   11   12 ar   
    24   11  126 1    
    25   12   13 ar   
    26   12  137 1    
    27   13   14 ar   
    28   13   15 1    
    29   14  138 1    
    30   15   16 1    
    31   15  139 1    
    32   15  140 1    
    33   16   17 1    
    34   17   18 1    
    35   17  141 1    
    36   17  142 1    
    37   18   19 1    
    38   18   67 1    
    39   18  143 1    
    40   19   20 am   BACKBONE|DICT|INTERRES
    41   19  144 1    
    42   20   21 2    
    43   20   22 1    
    44   22   23 1    
    45   22   24 1    
    46   22  145 1    
    47   23  146 1    
    48   23  147 1    
    49   23  148 1    
    50   24   25 am   BACKBONE|DICT|INTERRES
    51   24  149 1    
    52   25   26 2    
    53   25   27 1    
    54   27   28 1    
    55   27   29 1    
    56   27  150 1    
    57   28  151 1    
    58   28  152 1    
    59   28  153 1    
    60   29   30 am   BACKBONE|DICT|INTERRES
    61   29  154 1    
    62   30   31 2    
    63   30   32 1    
    64   32   33 1    
    65   32   34 1    
    66   32  155 1    
    67   33  156 1    
    68   33  157 1    
    69   33  158 1    
    70   34   35 am   BACKBONE|DICT|INTERRES
    71   34  159 1    
    72   35   36 2    
    73   35   37 1    
    74   37   38 1    
    75   37   39 1    
    76   37  160 1    
    77   38  161 1    
    78   38  162 1    
    79   38  163 1    
    80   39   40 am   BACKBONE|DICT|INTERRES
    81   39  164 1    
    82   40   41 2    
    83   40   42 1    
    84   42   43 1    
    85   42   44 1    
    86   42  165 1    
    87   43  166 1    
    88   43  167 1    
    89   43  168 1    
    90   44   45 am   BACKBONE|DICT|INTERRES
    91   44  169 1    
    92   45   46 2    
    93   45   47 1    
    94   47   48 1    
    95   47   49 1    
    96   47  170 1    
    97   48  171 1    
    98   48  172 1    
    99   48  173 1    
   100   49   50 am   BACKBONE|DICT|INTERRES
   101   49  174 1    
   102   50   51 2    
   103   50   52 1    
   104   52   53 1    
   105   52   54 1    
   106   52  175 1    
   107   53  176 1    
   108   53  177 1    
   109   53  178 1    
   110   54   55 am   BACKBONE|DICT|INTERRES
   111   54  179 1    
   112   55   56 2    
   113   55   57 1    
   114   57   58 1    
   115   57   59 1    
   116   57  180 1    
   117   58  181 1    
   118   58  182 1    
   119   58  183 1    
   120   59   60 am   BACKBONE|DICT|INTERRES
   121   59  184 1    
   122   60   61 2    
   123   60   62 1    
   124   62   63 1    
   125   62   64 1    
   126   62  185 1    
   127   63  186 1    
   128   63  187 1    
   129   63  188 1    
   130   64   65 am   BACKBONE|DICT|INTERRES
   131   64  189 1    
   132   65   66 2    
   133   67   68 2    
   134   67   69 am   BACKBONE|DICT|INTERRES
   135   69   70 1    
   136   69  190 1    
   137   70   71 1    
   138   70   72 1    
   139   70  191 1    
   140   71  192 1    
   141   71  193 1    
   142   71  194 1    
   143   72   73 2    
   144   72   74 am   BACKBONE|DICT|INTERRES
   145   74   75 1    
   146   74  195 1    
   147   75   76 1    
   148   75   77 1    
   149   75  196 1    
   150   76  197 1    
   151   76  198 1    
   152   76  199 1    
   153   77   78 2    
   154   77   79 am   BACKBONE|DICT|INTERRES
   155   79   80 1    
   156   79  200 1    
   157   80   81 1    
   158   80   82 1    
   159   80  201 1    
   160   81  202 1    
   161   81  203 1    
   162   81  204 1    
   163   82   83 2    
   164   82   84 am   BACKBONE|DICT|INTERRES
   165   84   85 1    
   166   84  205 1    
   167   85   86 1    
   168   85   87 1    
   169   85  206 1    
   170   86  207 1    
   171   86  208 1    
   172   86  209 1    
   173   87   88 2    
   174   87   89 am   BACKBONE|DICT|INTERRES
   175   89   90 1    
   176   89  210 1    
   177   90   91 1    
   178   90   92 1    
   179   90  211 1    
   180   91  212 1    
   181   91  213 1    
   182   91  214 1    
   183   92   93 2    
   184   92   94 am   BACKBONE|DICT|INTERRES
   185   94   95 1    
   186   94  215 1    
   187   95   96 1    
   188   95   97 1    
   189   95  216 1    
   190   96  217 1    
   191   96  218 1    
   192   96  219 1    
   193   97   98 2    
   194   97   99 am   BACKBONE|DICT|INTERRES
   195   99  100 1    
   196   99  220 1    
   197  100  101 1    
   198  100  102 1    
   199  100  221 1    
   200  101  222 1    
   201  101  223 1    
   202  101  224 1    
   203  102  103 2    
   204  102  104 am   BACKBONE|DICT|INTERRES
   205  104  105 1    
   206  104  225 1    
   207  105  106 1    
   208  105  107 1    
   209  105  226 1    
   210  106  227 1    
   211  106  228 1    
   212  106  229 1    
   213  107  108 2    
   214  107  109 am   BACKBONE|DICT|INTERRES
   215  109  110 1    
   216  109  230 1    
   217  110  111 1    
   218  110  112 1    
   219  110  231 1    
   220  111  232 1    
   221  111  233 1    
   222  111  234 1    
   223  112  113 2    
   224  112  114 am   BACKBONE|DICT|INTERRES
   225  114  115 1    
   226  114  235 1    
   227  115  116 1    
   228  115  117 1    
   229  115  236 1    
   230  116  237 1    
   231  116  238 1    
   232  116  239 1    
   233  117  118 2    
   234  117  119 am   BACKBONE|DICT|INTERRES
   235  119  120 1    
   236  119  240 1    
   237  120  121 1    
   238  120  124 1    
   239  120  241 1    
   240  121  122 am   BACKBONE|DICT|INTERRES
   241  121  123 2    
   242  122  242 1    
   243  122  243 1    
   244  124  125 1    
   245  124  244 1    
   246  124  245 1    
   247  125  126 1    
   248  126  246 1    
   249  126  247 1    
@<TRIPOS>SUBSTRUCTURE
     1 UNK         1 GROUP             0       ****    0 ROOT    
