@<TRIPOS>MOLECULE
3R540
247   249    1
SMALL
USER_CHARGES


@<TRIPOS>ATOM
      1 CA         -1.5524  -11.8008  -51.9220 C.3       0 UNK        -0.1800 
      2 C          -1.2805  -12.7336  -50.7507 C.2       0 UNK         0.5000 
      3 O          -0.4935  -12.3951  -49.8657 O.2       0 UNK        -0.5000 
      4 N          -1.9319  -13.9030  -50.7347 N.am      1 UNK        -0.5000 
      5 CA         -1.8098  -14.9378  -49.7015 C.3       1 UNK         0.1400 
      6 C6         -2.1544  -16.3440  -50.2556 C.3       23 UNK        -0.0398 
      7 S7         -0.8480  -17.0034  -51.3377 S.3       23 UNK        -0.2404 
      8 C8          0.3789  -17.4671  -50.0788 C.3       23 UNK        -0.0205 
      9 C9          1.4056  -18.4401  -50.6230 C.ar      23 UNK        -0.0193 
     10 C10         2.4856  -17.9823  -51.3796 C.ar      23 UNK        -0.1150 
     11 C11         3.4553  -18.8767  -51.8425 C.ar      23 UNK        -0.0193 
     12 C12         3.3577  -20.2319  -51.5089 C.ar      23 UNK        -0.1150 
     13 C13         2.2765  -20.6982  -50.7546 C.ar      23 UNK        -0.0193 
     14 C14         1.2918  -19.8005  -50.3386 C.ar      23 UNK        -0.1150 
     15 C15         2.1585  -22.1705  -50.3966 C.3       23 UNK        -0.0205 
     16 S16         3.0576  -22.5996  -48.8678 S.3       23 UNK        -0.2404 
     17 C17         2.2115  -21.6476  -47.5531 C.3       23 UNK        -0.0398 
     18 CA          0.9587  -22.3640  -46.9833 C.3       11 UNK         0.1400 
     19 N           0.8224  -22.2150  -45.5318 N.am      11 UNK        -0.5000 
     20 C          -0.0379  -22.9250  -44.7861 C.2       10 UNK         0.5000 
     21 O          -0.7682  -23.8081  -45.2386 O.2       10 UNK        -0.5000 
     22 CA         -0.1336  -22.5583  -43.2950 C.3       10 UNK         0.1400 
     23 CB          1.0307  -23.1731  -42.5045 C.3       10 UNK        -0.1800 
     24 N          -0.1778  -21.1124  -43.0725 N.am      10 UNK        -0.5000 
     25 C          -1.1630  -20.3100  -43.5014 C.2       9 UNK         0.5000 
     26 O          -2.1598  -20.7126  -44.0995 O.2       9 UNK        -0.5000 
     27 CA         -0.9883  -18.7999  -43.2612 C.3       9 UNK         0.1400 
     28 CB         -1.3372  -18.4375  -41.8101 C.3       9 UNK        -0.1800 
     29 N           0.3624  -18.3329  -43.5686 N.am      9 UNK        -0.5000 
     30 C           0.9461  -18.3975  -44.7740 C.2       8 UNK         0.5000 
     31 O           0.3984  -18.8348  -45.7841 O.2       8 UNK        -0.5000 
     32 CA          2.4168  -17.9591  -44.8475 C.3       8 UNK         0.1400 
     33 CB          2.5353  -16.4271  -44.8858 C.3       8 UNK        -0.1800 
     34 N           3.1982  -18.4972  -43.7333 N.am      8 UNK        -0.5000 
     35 C           3.4497  -19.8016  -43.5467 C.2       7 UNK         0.5000 
     36 O           3.0762  -20.6885  -44.3145 O.2       7 UNK        -0.5000 
     37 CA          4.2087  -20.1792  -42.2622 C.3       7 UNK         0.1400 
     38 CB          5.7201  -19.9748  -42.4437 C.3       7 UNK        -0.1800 
     39 N           3.7500  -19.4175  -41.0998 N.am      7 UNK        -0.5000 
     40 C           2.5337  -19.5388  -40.5490 C.2       6 UNK         0.5000 
     41 O           1.6803  -20.3326  -40.9431 O.2       6 UNK        -0.5000 
     42 CA          2.1982  -18.5704  -39.3991 C.3       6 UNK         0.1400 
     43 CB          2.7206  -19.1150  -38.0615 C.3       6 UNK        -0.1800 
     44 N           2.7202  -17.2167  -39.6145 N.am      6 UNK        -0.5000 
     45 C           2.3644  -16.4279  -40.6358 C.2       5 UNK         0.5000 
     46 O           1.5671  -16.7669  -41.5157 O.2       5 UNK        -0.5000 
     47 CA          3.0344  -15.0509  -40.7163 C.3       5 UNK         0.1400 
     48 CB          4.4699  -15.1662  -41.2588 C.3       5 UNK        -0.1800 
     49 N           2.2336  -14.2322  -41.6139 N.am      5 UNK        -0.5000 
     50 C           2.1498  -12.9000  -41.6302 C.2       4 UNK         0.5000 
     51 O           2.8116  -12.1623  -40.8990 O.2       4 UNK        -0.5000 
     52 CA          1.1523  -12.2874  -42.6340 C.3       4 UNK         0.1400 
     53 CB          1.8911  -11.7734  -43.8793 C.3       4 UNK        -0.1800 
     54 N           0.1067  -13.2204  -43.0653 N.am      4 UNK        -0.5000 
     55 C          -0.9140  -13.6497  -42.3124 C.2       3 UNK         0.5000 
     56 O          -1.0878  -13.3004  -41.1439 O.2       3 UNK        -0.5000 
     57 CA         -1.9153  -14.6025  -43.0038 C.3       3 UNK         0.1400 
     58 CB         -3.0467  -15.0608  -42.0657 C.3       3 UNK        -0.1800 
     59 N          -2.5133  -13.9882  -44.1923 N.am      3 UNK        -0.5000 
     60 C          -1.9168  -13.8669  -45.3836 C.2       2 UNK         0.5000 
     61 O          -0.7821  -14.2927  -45.6201 O.2       2 UNK        -0.5000 
     62 CA         -2.6900  -13.0837  -46.4604 C.3       2 UNK         0.1400 
     63 CB         -2.4622  -11.5738  -46.2875 C.3       2 UNK        -0.1800 
     64 N          -2.2421  -13.4717  -47.7940 N.am      2 UNK        -0.5000 
     65 C          -2.6201  -14.5816  -48.4357 C.2       1 UNK         0.5000 
     66 O          -3.5468  -15.3014  -48.0598 O.2       1 UNK        -0.5000 
     67 C          -0.3318  -21.9373  -47.7113 C.2       11 UNK         0.5000 
     68 O          -0.7895  -22.6624  -48.5905 O.2       11 UNK        -0.5000 
     69 N          -0.9245  -20.8013  -47.3110 N.am      12 UNK        -0.5000 
     70 CA         -2.1966  -20.2967  -47.8334 C.3       12 UNK         0.1400 
     71 CB         -2.5186  -18.9297  -47.2108 C.3       12 UNK        -0.1800 
     72 C          -3.3599  -21.2789  -47.6141 C.2       12 UNK         0.5000 
     73 O          -4.1235  -21.5239  -48.5471 O.2       12 UNK        -0.5000 
     74 N          -3.4476  -21.8568  -46.4074 N.am      13 UNK        -0.5000 
     75 CA         -4.4116  -22.8980  -46.0504 C.3       13 UNK         0.1400 
     76 CB         -4.2858  -23.2396  -44.5582 C.3       13 UNK        -0.1800 
     77 C          -4.2674  -24.1574  -46.9229 C.2       13 UNK         0.5000 
     78 O          -5.2686  -24.6381  -47.4570 O.2       13 UNK        -0.5000 
     79 N          -3.0224  -24.6288  -47.0922 N.am      14 UNK        -0.5000 
     80 CA         -2.6654  -25.7503  -47.9643 C.3       14 UNK         0.1400 
     81 CB         -1.1842  -26.1059  -47.7663 C.3       14 UNK        -0.1800 
     82 C          -2.9724  -25.4794  -49.4500 C.2       14 UNK         0.5000 
     83 O          -3.4486  -26.3769  -50.1459 O.2       14 UNK        -0.5000 
     84 N          -2.7588  -24.2350  -49.8961 N.am      15 UNK        -0.5000 
     85 CA         -3.0705  -23.7140  -51.2288 C.3       15 UNK         0.1400 
     86 CB         -2.2091  -22.4663  -51.4837 C.3       15 UNK        -0.1800 
     87 C          -4.5769  -23.4371  -51.4411 C.2       15 UNK         0.5000 
     88 O          -4.9434  -22.3995  -52.0013 O.2       15 UNK        -0.5000 
     89 N          -5.4199  -24.3833  -51.0051 N.am      16 UNK        -0.5000 
     90 CA         -6.8787  -24.4168  -51.1285 C.3       16 UNK         0.1400 
     91 CB         -7.2754  -24.6475  -52.6020 C.3       16 UNK        -0.1800 
     92 C          -7.5711  -23.1903  -50.4994 C.2       16 UNK         0.5000 
     93 O          -8.4938  -22.6352  -51.0958 O.2       16 UNK        -0.5000 
     94 N          -7.0953  -22.7756  -49.3150 N.am      17 UNK        -0.5000 
     95 CA         -7.5250  -21.5817  -48.5746 C.3       17 UNK         0.1400 
     96 CB         -8.9571  -21.7586  -48.0291 C.3       17 UNK        -0.1800 
     97 C          -7.3387  -20.2919  -49.4025 C.2       17 UNK         0.5000 
     98 O          -8.2824  -19.5228  -49.5917 O.2       17 UNK        -0.5000 
     99 N          -6.1091  -20.1193  -49.9046 N.am      18 UNK        -0.5000 
    100 CA        -5.5975  -19.0317  -50.7433 C.3       18 UNK         0.1400 
    101 CB        -5.7443  -17.6690  -50.0331 C.3       18 UNK        -0.1800 
    102 C         -6.1554  -18.9972  -52.1821 C.2       18 UNK         0.5000 
    103 O         -5.8167  -18.0746  -52.9246 O.2       18 UNK        -0.5000 
    104 N         -6.9723  -19.9849  -52.5757 N.am      19 UNK        -0.5000 
    105 CA        -7.5724  -20.0623  -53.9085 C.3       19 UNK         0.1400 
    106 CB        -8.7754  -21.0155  -53.8880 C.3       19 UNK        -0.1800 
    107 C         -6.5674  -20.4807  -54.9958 C.2       19 UNK         0.5000 
    108 O         -6.6640  -19.9858  -56.1198 O.2       19 UNK        -0.5000 
    109 N         -5.6242  -21.3712  -54.6546 N.am      20 UNK        -0.5000 
    110 CA        -4.5607  -21.8052  -55.5644 C.3       20 UNK         0.1400 
    111 CB        -4.1219  -23.2334  -55.2054 C.3       20 UNK        -0.1800 
    112 C         -3.3604  -20.8416  -55.5375 C.2       20 UNK         0.5000 
    113 O         -2.7085  -20.6633  -56.5670 O.2       20 UNK        -0.5000 
    114 N         -3.1114  -20.2352  -54.3662 N.am      21 UNK        -0.5000 
    115 CA        -2.0127  -19.3156  -54.0513 C.3       21 UNK         0.1400 
    116 CB        -2.2170  -17.9693  -54.7806 C.3       21 UNK        -0.1800 
    117 C         -0.6155  -19.9451  -54.2725 C.2       21 UNK         0.5000 
    118 O         -0.4653  -21.1597  -54.1210 O.2       21 UNK        -0.5000 
    119 N          0.3894  -19.1188  -54.5914 N.am      22 UNK        -0.5000 
    120 CA         1.7567  -19.5623  -54.8998 C.3       22 UNK         0.1400 
    121 C          1.8316  -20.3541  -56.2366 C.2       22 UNK         0.5000 
    122 N          2.5081  -21.4946  -56.2600 N.am      22 UNK        -0.7600 
    123 O          1.3138  -19.9186  -57.2627 O.2       22 UNK        -0.5000 
    124 C124        2.7561  -18.3739  -54.8887 C.3       23 UNK        -0.0398 
    125 S125        4.4458  -18.9163  -54.4465 S.3       23 UNK        -0.2404 
    126 C126        4.5993  -18.3741  -52.7114 C.3       23 UNK        -0.0205 
    127 H127       -2.2654  -12.2306  -52.6260 H         1 UNK         0.0600 
    128 H128       -0.6267  -11.5943  -52.4592 H         1 UNK         0.0600 
    129 H129       -1.9573  -10.8551  -51.5619 H         1 UNK         0.0600 
    130 H130       -2.5770  -14.1125  -51.4829 H         1 UNK         0.3000 
    131 H131       -0.7702  -14.9612  -49.3701 H         1 UNK         0.0600 
    132 H132       -3.0850  -16.3124  -50.8214 H         1 UNK         0.0800 
    133 H133       -2.3155  -17.0682  -49.4569 H         1 UNK         0.0800 
    134 H134       -0.1193  -17.9066  -49.2136 H         1 UNK         0.0800 
    135 H135        0.8872  -16.5726  -49.7168 H         1 UNK         0.0800 
    136 H136        2.5630  -16.9299  -51.6142 H         1 UNK         0.1150 
    137 H137        4.1142  -20.9242  -51.8510 H         1 UNK         0.1150 
    138 H138        0.4459  -20.1561  -49.7704 H         1 UNK         0.1150 
    139 H139        1.1121  -22.4594  -50.3085 H         1 UNK         0.0800 
    140 H140        2.5597  -22.7725  -51.2131 H         1 UNK         0.0800 
    141 H141        2.0032  -20.6259  -47.8709 H         1 UNK         0.0800 
    142 H142        2.9573  -21.5414  -46.7657 H         1 UNK         0.0800 
    143 H143        1.0781  -23.4357  -47.1576 H         1 UNK         0.0600 
    144 H144        1.4165  -21.5261  -45.0808 H         1 UNK         0.3000 
    145 H145       -1.0637  -22.9817  -42.9102 H         1 UNK         0.0600 
    146 H146        0.9154  -22.9978  -41.4348 H         1 UNK         0.0600 
    147 H147        1.9908  -22.7564  -42.8094 H         1 UNK         0.0600 
    148 H148        1.0777  -24.2525  -42.6536 H         1 UNK         0.0600 
    149 H149        0.5849  -20.7117  -42.5349 H         1 UNK         0.3000 
    150 H150       -1.6778  -18.2701  -43.9215 H         1 UNK         0.0600 
    151 H151       -2.3777  -18.6768  -41.5879 H         1 UNK         0.0600 
    152 H152       -1.1976  -17.3739  -41.6226 H         1 UNK         0.0600 
    153 H153       -0.7156  -18.9800  -41.0978 H         1 UNK         0.0600 
    154 H154        0.8862  -17.9275  -42.7968 H         1 UNK         0.3000 
    155 H155        2.8363  -18.3545  -45.7752 H         1 UNK         0.0600 
    156 H156        1.9900  -16.0173  -45.7373 H         1 UNK         0.0600 
    157 H157        3.5745  -16.1130  -44.9836 H         1 UNK         0.0600 
    158 H158        2.1279  -15.9631  -43.9887 H         1 UNK         0.0600 
    159 H159        3.5004  -17.8414  -43.0298 H         1 UNK         0.3000 
    160 H160        4.0285  -21.2387  -42.0679 H         1 UNK         0.0600 
    161 H161        5.9697  -18.9268  -42.6142 H         1 UNK         0.0600 
    162 H162        6.0904  -20.5439  -43.2976 H         1 UNK         0.0600 
    163 H163        6.2713  -20.3128  -41.5660 H         1 UNK         0.0600 
    164 H164        4.3896  -18.7397  -40.7127 H         1 UNK         0.3000 
    165 H165        1.1102  -18.5009  -39.3360 H         1 UNK         0.0600 
    166 H166        2.4091  -18.4829  -37.2297 H         1 UNK         0.0600 
    167 H167        2.3324  -20.1163  -37.8698 H         1 UNK         0.0600 
    168 H168        3.8095  -19.1767  -38.0476 H         1 UNK         0.0600 
    169 H169        3.3834  -16.8743  -38.9341 H         1 UNK         0.3000 
    170 H170        3.0417  -14.6053  -39.7195 H         1 UNK         0.0600 
    171 H171        4.4888  -15.6088  -42.2555 H         1 UNK         0.0600 
    172 H172        4.9473  -14.1881  -41.3208 H         1 UNK         0.0600 
    173 H173        5.0891  -15.7861  -40.6097 H         1 UNK         0.0600 
    174 H174        1.6085  -14.7687  -42.2014 H         1 UNK         0.3000 
    175 H175        0.6724  -11.4379  -42.1438 H         1 UNK         0.0600 
    176 H176        2.3784  -12.5857  -44.4204 H         1 UNK         0.0600 
    177 H177        1.2067  -11.2756  -44.5666 H         1 UNK         0.0600 
    178 H178        2.6612  -11.0503  -43.6075 H         1 UNK         0.0600 
    179 H179        0.1449  -13.5420  -44.0277 H         1 UNK         0.3000 
    180 H180       -1.3556  -15.4902  -43.3069 H         1 UNK         0.0600 
    181 H181       -3.6787  -14.2265  -41.7591 H         1 UNK         0.0600 
    182 H182       -2.6486  -15.5182  -41.1593 H         1 UNK         0.0600 
    183 H183       -3.6816  -15.8033  -42.5495 H         1 UNK         0.0600 
    184 H184       -3.4256  -13.5747  -44.0624 H         1 UNK         0.3000 
    185 H185       -3.7566  -13.2959  -46.3600 H         1 UNK         0.0600 
    186 H186       -1.4058  -11.3140  -46.3702 H         1 UNK         0.0600 
    187 H187       -3.0067  -11.0047  -47.0413 H         1 UNK         0.0600 
    188 H188       -2.8084  -11.2328  -45.3110 H         1 UNK         0.0600 
    189 H189       -1.4702  -12.9438  -48.1881 H         1 UNK         0.3000 
    190 H190       -0.4704  -20.2267  -46.6036 H         1 UNK         0.3000 
    191 H191       -2.0766  -20.1564  -48.9092 H         1 UNK         0.0600 
    192 H192       -1.7231  -18.2089  -47.3962 H         1 UNK         0.0600 
    193 H193       -2.6545  -18.9990  -46.1320 H         1 UNK         0.0600 
    194 H194       -3.4369  -18.5163  -47.6287 H         1 UNK         0.0600 
    195 H195       -2.8088  -21.5591  -45.6742 H         1 UNK         0.3000 
    196 H196       -5.4109  -22.4934  -46.2139 H         1 UNK         0.0600 
    197 H197       -4.4783  -22.3644  -43.9374 H         1 UNK         0.0600 
    198 H198       -3.2921  -23.6116  -44.3093 H         1 UNK         0.0600 
    199 H199       -5.0058  -24.0068  -44.2709 H         1 UNK         0.0600 
    200 H200       -2.2584  -24.1764  -46.6000 H         1 UNK         0.3000 
    201 H201       -3.2639  -26.6099  -47.6560 H         1 UNK         0.0600 
    202 H202       -0.9756  -26.3609  -46.7271 H         1 UNK         0.0600 
    203 H203       -0.5294  -25.2802  -48.0447 H         1 UNK         0.0600 
    204 H204       -0.9046  -26.9661  -48.3756 H         1 UNK         0.0600 
    205 H205       -2.3160  -23.5750  -49.2621 H         1 UNK         0.3000 
    206 H206       -2.7836  -24.4680  -51.9642 H         1 UNK         0.0600 
    207 H207       -1.1479  -22.6849  -51.3669 H         1 UNK         0.0600 
    208 H208       -2.4632  -21.6542  -50.8030 H         1 UNK         0.0600 
    209 H209       -2.3478  -22.1013  -52.4990 H         1 UNK         0.0600 
    210 H210       -4.9976  -25.1958  -50.5679 H         1 UNK         0.3000 
    211 H211       -7.2174  -25.2808  -50.5553 H         1 UNK         0.0600 
    212 H212       -6.9570  -23.8238  -53.2408 H         1 UNK         0.0600 
    213 H213       -8.3559  -24.7497  -52.7094 H         1 UNK         0.0600 
    214 H214       -6.8252  -25.5608  -52.9905 H         1 UNK         0.0600 
    215 H215       -6.3212  -23.2899  -48.9106 H         1 UNK         0.3000 
    216 H216       -6.8594  -21.4894  -47.7169 H         1 UNK         0.0600 
    217 H217       -9.2384  -20.9165  -47.3958 H         1 UNK         0.0600 
    218 H218       -9.0383  -22.6613  -47.4236 H         1 UNK         0.0600 
    219 H219       -9.6944  -21.8245  -48.8296 H         1 UNK         0.0600 
    220 H220       -5.4131  -20.8194  -49.6529 H         1 UNK         0.3000 
    221 H221       -4.5297  -19.2281  -50.8514 H         1 UNK         0.0600 
    222 H222       -6.7887  -17.3973  -49.8814 H         1 UNK         0.0600 
    223 H223       -5.2544  -17.6743  -49.0598 H         1 UNK         0.0600 
    224 H224       -5.2945  -16.8668  -50.6168 H         1 UNK         0.0600 
    225 H225       -7.1980  -20.7241  -51.9231 H         1 UNK         0.3000 
    226 H226       -7.9453  -19.0691  -54.1682 H         1 UNK         0.0600 
    227 H227       -9.4945  -20.7300  -53.1199 H         1 UNK         0.0600 
    228 H228       -9.2977  -21.0021  -54.8453 H         1 UNK         0.0600 
    229 H229       -8.4721  -22.0444  -53.6983 H         1 UNK         0.0600 
    230 H230       -5.5866  -21.7209  -53.7005 H         1 UNK         0.3000 
    231 H231       -4.9485  -21.8295  -56.5852 H         1 UNK         0.0600 
    232 H232       -3.4223  -23.6191  -55.9478 H         1 UNK         0.0600 
    233 H233       -4.9723  -23.9146  -55.1729 H         1 UNK         0.0600 
    234 H234       -3.6201  -23.2733  -54.2401 H         1 UNK         0.0600 
    235 H235       -3.7078  -20.4816  -53.5903 H         1 UNK         0.3000 
    236 H236       -2.0895  -19.1286  -52.9801 H         1 UNK         0.0600 
    237 H237       -2.0619  -18.0631  -55.8560 H         1 UNK         0.0600 
    238 H238       -3.2274  -17.5912  -54.6224 H         1 UNK         0.0600 
    239 H239       -1.5338  -17.2049  -54.4098 H         1 UNK         0.0600 
    240 H240        0.1924  -18.1381  -54.7202 H         1 UNK         0.3000 
    241 H241        2.0336  -20.2421  -54.0916 H         1 UNK         0.0600 
    242 H242        2.5753  -22.0084  -57.1247 H         1 UNK         0.3800 
    243 H243        2.9549  -21.8574  -55.4323 H         1 UNK         0.3800 
    244 H244        2.4405  -17.6111  -54.1767 H         1 UNK         0.0800 
    245 H245        2.7850  -17.8680  -55.8555 H         1 UNK         0.0800 
    246 H246        4.6553  -17.2847  -52.6843 H         1 UNK         0.0800 
    247 H247        5.5453  -18.7381  -52.3080 H         1 UNK         0.0800 
@<TRIPOS>BOND
     1    1    2 1    
     2    1  127 1    
     3    1  128 1    
     4    1  129 1    
     5    2    3 2    
     6    2    4 am   BACKBONE|DICT|INTERRES
     7    4    5 1    
     8    4  130 1    
     9    5    6 1    
    10    5   65 1    
    11    5  131 1    
    12    6    7 1    
    13    6  132 1    
    14    6  133 1    
    15    7    8 1    
    16    8    9 1    
    17    8  134 1    
    18    8  135 1    
    19    9   10 ar   
    20    9   14 ar   
    21   10   11 ar   
    22   10  136 1    
    23   11   12 ar   
    24   11  126 1    
    25   12   13 ar   
    26   12  137 1    
    27   13   14 ar   
    28   13   15 1    
    29   14  138 1    
    30   15   16 1    
    31   15  139 1    
    32   15  140 1    
    33   16   17 1    
    34   17   18 1    
    35   17  141 1    
    36   17  142 1    
    37   18   19 1    
    38   18   67 1    
    39   18  143 1    
    40   19   20 am   BACKBONE|DICT|INTERRES
    41   19  144 1    
    42   20   21 2    
    43   20   22 1    
    44   22   23 1    
    45   22   24 1    
    46   22  145 1    
    47   23  146 1    
    48   23  147 1    
    49   23  148 1    
    50   24   25 am   BACKBONE|DICT|INTERRES
    51   24  149 1    
    52   25   26 2    
    53   25   27 1    
    54   27   28 1    
    55   27   29 1    
    56   27  150 1    
    57   28  151 1    
    58   28  152 1    
    59   28  153 1    
    60   29   30 am   BACKBONE|DICT|INTERRES
    61   29  154 1    
    62   30   31 2    
    63   30   32 1    
    64   32   33 1    
    65   32   34 1    
    66   32  155 1    
    67   33  156 1    
    68   33  157 1    
    69   33  158 1    
    70   34   35 am   BACKBONE|DICT|INTERRES
    71   34  159 1    
    72   35   36 2    
    73   35   37 1    
    74   37   38 1    
    75   37   39 1    
    76   37  160 1    
    77   38  161 1    
    78   38  162 1    
    79   38  163 1    
    80   39   40 am   BACKBONE|DICT|INTERRES
    81   39  164 1    
    82   40   41 2    
    83   40   42 1    
    84   42   43 1    
    85   42   44 1    
    86   42  165 1    
    87   43  166 1    
    88   43  167 1    
    89   43  168 1    
    90   44   45 am   BACKBONE|DICT|INTERRES
    91   44  169 1    
    92   45   46 2    
    93   45   47 1    
    94   47   48 1    
    95   47   49 1    
    96   47  170 1    
    97   48  171 1    
    98   48  172 1    
    99   48  173 1    
   100   49   50 am   BACKBONE|DICT|INTERRES
   101   49  174 1    
   102   50   51 2    
   103   50   52 1    
   104   52   53 1    
   105   52   54 1    
   106   52  175 1    
   107   53  176 1    
   108   53  177 1    
   109   53  178 1    
   110   54   55 am   BACKBONE|DICT|INTERRES
   111   54  179 1    
   112   55   56 2    
   113   55   57 1    
   114   57   58 1    
   115   57   59 1    
   116   57  180 1    
   117   58  181 1    
   118   58  182 1    
   119   58  183 1    
   120   59   60 am   BACKBONE|DICT|INTERRES
   121   59  184 1    
   122   60   61 2    
   123   60   62 1    
   124   62   63 1    
   125   62   64 1    
   126   62  185 1    
   127   63  186 1    
   128   63  187 1    
   129   63  188 1    
   130   64   65 am   BACKBONE|DICT|INTERRES
   131   64  189 1    
   132   65   66 2    
   133   67   68 2    
   134   67   69 am   BACKBONE|DICT|INTERRES
   135   69   70 1    
   136   69  190 1    
   137   70   71 1    
   138   70   72 1    
   139   70  191 1    
   140   71  192 1    
   141   71  193 1    
   142   71  194 1    
   143   72   73 2    
   144   72   74 am   BACKBONE|DICT|INTERRES
   145   74   75 1    
   146   74  195 1    
   147   75   76 1    
   148   75   77 1    
   149   75  196 1    
   150   76  197 1    
   151   76  198 1    
   152   76  199 1    
   153   77   78 2    
   154   77   79 am   BACKBONE|DICT|INTERRES
   155   79   80 1    
   156   79  200 1    
   157   80   81 1    
   158   80   82 1    
   159   80  201 1    
   160   81  202 1    
   161   81  203 1    
   162   81  204 1    
   163   82   83 2    
   164   82   84 am   BACKBONE|DICT|INTERRES
   165   84   85 1    
   166   84  205 1    
   167   85   86 1    
   168   85   87 1    
   169   85  206 1    
   170   86  207 1    
   171   86  208 1    
   172   86  209 1    
   173   87   88 2    
   174   87   89 am   BACKBONE|DICT|INTERRES
   175   89   90 1    
   176   89  210 1    
   177   90   91 1    
   178   90   92 1    
   179   90  211 1    
   180   91  212 1    
   181   91  213 1    
   182   91  214 1    
   183   92   93 2    
   184   92   94 am   BACKBONE|DICT|INTERRES
   185   94   95 1    
   186   94  215 1    
   187   95   96 1    
   188   95   97 1    
   189   95  216 1    
   190   96  217 1    
   191   96  218 1    
   192   96  219 1    
   193   97   98 2    
   194   97   99 am   BACKBONE|DICT|INTERRES
   195   99  100 1    
   196   99  220 1    
   197  100  101 1    
   198  100  102 1    
   199  100  221 1    
   200  101  222 1    
   201  101  223 1    
   202  101  224 1    
   203  102  103 2    
   204  102  104 am   BACKBONE|DICT|INTERRES
   205  104  105 1    
   206  104  225 1    
   207  105  106 1    
   208  105  107 1    
   209  105  226 1    
   210  106  227 1    
   211  106  228 1    
   212  106  229 1    
   213  107  108 2    
   214  107  109 am   BACKBONE|DICT|INTERRES
   215  109  110 1    
   216  109  230 1    
   217  110  111 1    
   218  110  112 1    
   219  110  231 1    
   220  111  232 1    
   221  111  233 1    
   222  111  234 1    
   223  112  113 2    
   224  112  114 am   BACKBONE|DICT|INTERRES
   225  114  115 1    
   226  114  235 1    
   227  115  116 1    
   228  115  117 1    
   229  115  236 1    
   230  116  237 1    
   231  116  238 1    
   232  116  239 1    
   233  117  118 2    
   234  117  119 am   BACKBONE|DICT|INTERRES
   235  119  120 1    
   236  119  240 1    
   237  120  121 1    
   238  120  124 1    
   239  120  241 1    
   240  121  122 am   BACKBONE|DICT|INTERRES
   241  121  123 2    
   242  122  242 1    
   243  122  243 1    
   244  124  125 1    
   245  124  244 1    
   246  124  245 1    
   247  125  126 1    
   248  126  246 1    
   249  126  247 1    
@<TRIPOS>SUBSTRUCTURE
     1 UNK         1 GROUP             0       ****    0 ROOT    
