@<TRIPOS>MOLECULE
3R540
247   249    1
SMALL
USER_CHARGES


@<TRIPOS>ATOM
      1 CA         -5.4770  -13.8948  -52.5657 C.3       0 UNK        -0.1800 
      2 C          -4.7917  -13.2329  -51.3779 C.2       0 UNK         0.5000 
      3 O          -5.4685  -12.7831  -50.4530 O.2       0 UNK        -0.5000 
      4 N          -3.4552  -13.1686  -51.4033 N.am      1 UNK        -0.5000 
      5 CA         -2.6076  -12.6713  -50.3142 C.3       1 UNK         0.1400 
      6 C6         -1.1410  -12.4470  -50.7714 C.3       23 UNK        -0.0398 
      7 S7         -0.4112  -13.8543  -51.6830 S.3       23 UNK        -0.2404 
      8 C8          0.6038  -14.6666  -50.4049 C.3       23 UNK        -0.0205 
      9 C9          0.5850  -16.1803  -50.5649 C.ar      23 UNK        -0.0193 
     10 C10         1.0870  -16.7709  -51.7301 C.ar      23 UNK        -0.1150 
     11 C11         1.0251  -18.1554  -51.9068 C.ar      23 UNK        -0.0193 
     12 C12         0.4817  -18.9531  -50.8986 C.ar      23 UNK        -0.1150 
     13 C13        -0.0124  -18.3784  -49.7263 C.ar      23 UNK        -0.0193 
     14 C14         0.0410  -16.9909  -49.5618 C.ar      23 UNK        -0.1150 
     15 C15        -0.6532  -19.2670  -48.6764 C.3       23 UNK        -0.0205 
     16 S16         0.5801  -20.2792  -47.8076 S.3       23 UNK        -0.2404 
     17 C17        -0.4723  -21.6181  -47.1584 C.3       23 UNK        -0.0398 
     18 CA          0.0596  -23.0272  -47.5225 C.3       11 UNK         0.1400 
     19 N           1.3254  -23.3156  -46.8420 N.am      11 UNK        -0.5000 
     20 C           2.0990  -24.3896  -47.0512 C.2       10 UNK         0.5000 
     21 O           1.8527  -25.2664  -47.8796 O.2       10 UNK        -0.5000 
     22 CA          3.3512  -24.5123  -46.1675 C.3       10 UNK         0.1400 
     23 CB          4.4969  -23.6500  -46.7211 C.3       10 UNK        -0.1800 
     24 N           3.0626  -24.1142  -44.7895 N.am      10 UNK        -0.5000 
     25 C           2.6024  -24.9414  -43.8411 C.2       9 UNK         0.5000 
     26 O           2.4300  -26.1484  -44.0132 O.2       9 UNK        -0.5000 
     27 CA          2.2743  -24.3243  -42.4660 C.3       9 UNK         0.1400 
     28 CB          3.4884  -24.4235  -41.5300 C.3       9 UNK        -0.1800 
     29 N           1.8431  -22.9273  -42.5383 N.am      9 UNK        -0.5000 
     30 C           0.6831  -22.5151  -43.0661 C.2       8 UNK         0.5000 
     31 O          -0.1649  -23.2743  -43.5336 O.2       8 UNK        -0.5000 
     32 CA          0.4514  -20.9944  -43.1314 C.3       8 UNK         0.1400 
     33 CB         -0.2455  -20.4912  -41.8600 C.3       8 UNK        -0.1800 
     34 N           1.6566  -20.1940  -43.3706 N.am      8 UNK        -0.5000 
     35 C           2.5195  -20.3424  -44.3877 C.2       7 UNK         0.5000 
     36 O           2.4840  -21.2863  -45.1753 O.2       7 UNK        -0.5000 
     37 CA          3.5963  -19.2572  -44.5675 C.3       7 UNK         0.1400 
     38 CB          3.3546  -18.4727  -45.8662 C.3       7 UNK        -0.1800 
     39 N           3.6326  -18.3154  -43.4474 N.am      7 UNK        -0.5000 
     40 C           4.3483  -18.4992  -42.3296 C.2       6 UNK         0.5000 
     41 O           5.0677  -19.4778  -42.1283 O.2       6 UNK        -0.5000 
     42 CA          4.2013  -17.4277  -41.2425 C.3       6 UNK         0.1400 
     43 CB          4.9180  -16.1314  -41.6542 C.3       6 UNK        -0.1800 
     44 N           2.7896  -17.1372  -41.0065 N.am      6 UNK        -0.5000 
     45 C           2.0772  -17.5472  -39.9482 C.2       5 UNK         0.5000 
     46 O           2.5343  -18.2736  -39.0649 O.2       5 UNK        -0.5000 
     47 CA          0.6018  -17.0864  -39.8637 C.3       5 UNK         0.1400 
     48 CB          0.1981  -16.6748  -38.4328 C.3       5 UNK        -0.1800 
     49 N           0.2462  -16.0419  -40.8351 N.am      5 UNK        -0.5000 
     50 C           0.7368  -14.7948  -40.9192 C.2       4 UNK         0.5000 
     51 O           1.4913  -14.2985  -40.0818 O.2       4 UNK        -0.5000 
     52 CA          0.3496  -13.9824  -42.1747 C.3       4 UNK         0.1400 
     53 CB          1.4927  -13.0565  -42.6392 C.3       4 UNK        -0.1800 
     54 N          -0.1270  -14.7926  -43.3060 N.am      4 UNK        -0.5000 
     55 C           0.5301  -15.7515  -43.9809 C.2       3 UNK         0.5000 
     56 O           1.6358  -16.1893  -43.6519 O.2       3 UNK        -0.5000 
     57 CA         -0.1923  -16.3546  -45.2043 C.3       3 UNK         0.1400 
     58 CB         -0.6678  -17.7800  -44.8891 C.3       3 UNK        -0.1800 
     59 N          -1.3463  -15.5594  -45.6326 N.am      3 UNK        -0.5000 
     60 C          -1.2699  -14.4415  -46.3636 C.2       2 UNK         0.5000 
     61 O          -0.2138  -13.9716  -46.7917 O.2       2 UNK        -0.5000 
     62 CA         -2.5960  -13.6975  -46.6038 C.3       2 UNK         0.1400 
     63 CB         -2.8507  -12.6858  -45.4759 C.3       2 UNK        -0.1800 
     64 N          -2.5994  -12.9917  -47.8838 N.am      2 UNK        -0.5000 
     65 C          -2.6837  -13.5912  -49.0774 C.2       1 UNK         0.5000 
     66 O          -2.8105  -14.8092  -49.2242 O.2       1 UNK        -0.5000 
     67 C          -1.0248  -24.0787  -47.2111 C.2       11 UNK         0.5000 
     68 O          -1.8060  -24.4202  -48.0988 O.2       11 UNK        -0.5000 
     69 N          -1.0774  -24.5289  -45.9461 N.am      12 UNK        -0.5000 
     70 CA         -2.1512  -25.3253  -45.3380 C.3       12 UNK         0.1400 
     71 CB         -2.2289  -26.7334  -45.9635 C.3       12 UNK        -0.1800 
     72 C          -3.5021  -24.5732  -45.3483 C.2       12 UNK         0.5000 
     73 O          -4.5628  -25.1907  -45.4590 O.2       12 UNK        -0.5000 
     74 N          -3.4248  -23.2414  -45.2480 N.am      13 UNK        -0.5000 
     75 CA         -4.5126  -22.2811  -45.3614 C.3       13 UNK         0.1400 
     76 CB         -4.9742  -22.1752  -46.8281 C.3       13 UNK        -0.1800 
     77 C          -3.9966  -20.9251  -44.8610 C.2       13 UNK         0.5000 
     78 O          -2.7829  -20.7058  -44.8213 O.2       13 UNK        -0.5000 
     79 N          -4.9270  -20.0330  -44.5053 N.am      14 UNK        -0.5000 
     80 CA         -4.6350  -18.6854  -44.0096 C.3       14 UNK         0.1400 
     81 CB         -5.8366  -18.1931  -43.1879 C.3       14 UNK        -0.1800 
     82 C          -4.2975  -17.6729  -45.1225 C.2       14 UNK         0.5000 
     83 O          -3.8422  -16.5709  -44.8105 O.2       14 UNK        -0.5000 
     84 N          -4.5232  -18.0388  -46.3888 N.am      15 UNK        -0.5000 
     85 CA         -4.3001  -17.1993  -47.5595 C.3       15 UNK         0.1400 
     86 CB         -5.5067  -16.2607  -47.7584 C.3       15 UNK        -0.1800 
     87 C          -4.0604  -18.0740  -48.7960 C.2       15 UNK         0.5000 
     88 O          -4.2445  -19.2916  -48.7336 O.2       15 UNK        -0.5000 
     89 N          -3.6565  -17.4230  -49.8944 N.am      16 UNK        -0.5000 
     90 CA         -3.3475  -18.0221  -51.1956 C.3       16 UNK         0.1400 
     91 CB         -2.8594  -16.9237  -52.1496 C.3       16 UNK        -0.1800 
     92 C          -4.5122  -18.7940  -51.8414 C.2       16 UNK         0.5000 
     93 O          -4.2561  -19.7191  -52.6123 O.2       16 UNK        -0.5000 
     94 N          -5.7563  -18.3970  -51.5285 N.am      17 UNK        -0.5000 
     95 CA         -7.0146  -19.0192  -51.9597 C.3       17 UNK         0.1400 
     96 CB         -7.1735  -20.4046  -51.2975 C.3       17 UNK        -0.1800 
     97 C          -7.1446  -19.0693  -53.4960 C.2       17 UNK         0.5000 
     98 O          -7.3248  -20.1427  -54.0704 O.2       17 UNK        -0.5000 
     99 N          -6.9767  -17.9020  -54.1372 N.am      18 UNK        -0.5000 
    100 CA        -6.9154  -17.7076  -55.5951 C.3       18 UNK         0.1400 
    101 CB        -8.2770  -18.0145  -56.2538 C.3       18 UNK        -0.1800 
    102 C         -5.7398  -18.4722  -56.2471 C.2       18 UNK         0.5000 
    103 O         -5.8611  -18.9736  -57.3656 O.2       18 UNK        -0.5000 
    104 N         -4.6275  -18.5480  -55.5031 N.am      19 UNK        -0.5000 
    105 CA        -3.3743  -19.2483  -55.7955 C.3       19 UNK         0.1400 
    106 CB        -2.7152  -18.7202  -57.0861 C.3       19 UNK        -0.1800 
    107 C         -3.4744  -20.7884  -55.7626 C.2       19 UNK         0.5000 
    108 O         -2.5345  -21.4585  -56.1922 O.2       19 UNK        -0.5000 
    109 N         -4.5683  -21.3421  -55.2177 N.am      20 UNK        -0.5000 
    110 CA        -4.7413  -22.7830  -55.0182 C.3       20 UNK         0.1400 
    111 CB        -6.2078  -23.0903  -54.6847 C.3       20 UNK        -0.1800 
    112 C         -3.8133  -23.3459  -53.9253 C.2       20 UNK         0.5000 
    113 O         -3.3569  -24.4836  -54.0460 O.2       20 UNK        -0.5000 
    114 N         -3.5207  -22.5368  -52.8966 N.am      21 UNK        -0.5000 
    115 CA        -2.6165  -22.8922  -51.7998 C.3       21 UNK         0.1400 
    116 CB        -2.9297  -22.0096  -50.5841 C.3       21 UNK        -0.1800 
    117 C         -1.1261  -22.7879  -52.1851 C.2       21 UNK         0.5000 
    118 O         -0.2774  -23.2559  -51.4261 O.2       21 UNK        -0.5000 
    119 N         -0.8265  -22.1894  -53.3466 N.am      22 UNK        -0.5000 
    120 CA         0.5306  -22.0813  -53.9077 C.3       22 UNK         0.1400 
    121 C          1.0586  -23.3953  -54.5567 C.2       22 UNK         0.5000 
    122 N          0.2436  -24.4282  -54.7406 N.am      22 UNK        -0.7600 
    123 O          2.2361  -23.4823  -54.8938 O.2       22 UNK        -0.5000 
    124 C124        0.6753  -20.8903  -54.8941 C.3       23 UNK        -0.0398 
    125 S125        0.0900  -19.3016  -54.2156 S.3       23 UNK        -0.2404 
    126 C126        1.5089  -18.8000  -53.1934 C.3       23 UNK        -0.0205 
    127 H127       -6.2260  -13.2252  -52.9885 H         1 UNK         0.0600 
    128 H128       -5.9765  -14.8095  -52.2467 H         1 UNK         0.0600 
    129 H129       -4.7674  -14.1487  -53.3536 H         1 UNK         0.0600 
    130 H130       -2.9490  -13.5815  -52.1736 H         1 UNK         0.3000 
    131 H131       -3.0086  -11.6990  -50.0194 H         1 UNK         0.0600 
    132 H132       -1.1130  -11.5880  -51.4430 H         1 UNK         0.0800 
    133 H133       -0.5010  -12.1716  -49.9311 H         1 UNK         0.0800 
    134 H134        1.6300  -14.3038  -50.4728 H         1 UNK         0.0800 
    135 H135        0.2431  -14.3918  -49.4136 H         1 UNK         0.0800 
    136 H136        1.4956  -16.1465  -52.5121 H         1 UNK         0.1150 
    137 H137        0.4223  -20.0241  -51.0364 H         1 UNK         0.1150 
    138 H138       -0.3620  -16.5399  -48.6657 H         1 UNK         0.1150 
    139 H139       -1.2095  -18.6736  -47.9517 H         1 UNK         0.0800 
    140 H140       -1.3802  -19.9107  -49.1695 H         1 UNK         0.0800 
    141 H141       -0.5331  -21.5044  -46.0775 H         1 UNK         0.0800 
    142 H142       -1.4916  -21.4818  -47.5240 H         1 UNK         0.0800 
    143 H143        0.2437  -23.0619  -48.5986 H         1 UNK         0.0600 
    144 H144        1.6549  -22.6059  -46.1922 H         1 UNK         0.3000 
    145 H145        3.6783  -25.5542  -46.1864 H         1 UNK         0.0600 
    146 H146        5.3967  -23.7554  -46.1149 H         1 UNK         0.0600 
    147 H147        4.2344  -22.5920  -46.7497 H         1 UNK         0.0600 
    148 H148        4.7525  -23.9506  -47.7379 H         1 UNK         0.0600 
    149 H149        3.1042  -23.1205  -44.5952 H         1 UNK         0.3000 
    150 H150        1.4599  -24.9074  -42.0305 H         1 UNK         0.0600 
    151 H151        4.3314  -23.8393  -41.9012 H         1 UNK         0.0600 
    152 H152        3.2456  -24.0657  -40.5293 H         1 UNK         0.0600 
    153 H153        3.8229  -25.4572  -41.4320 H         1 UNK         0.0600 
    154 H154        2.4887  -22.2311  -42.1950 H         1 UNK         0.3000 
    155 H155       -0.2229  -20.8096  -43.9669 H         1 UNK         0.0600 
    156 H156       -1.1452  -21.0721  -41.6518 H         1 UNK         0.0600 
    157 H157       -0.5548  -19.4521  -41.9704 H         1 UNK         0.0600 
    158 H158        0.4045  -20.5633  -40.9871 H         1 UNK         0.0600 
    159 H159        1.7939  -19.3982  -42.7670 H         1 UNK         0.3000 
    160 H160        4.5599  -19.7634  -44.6537 H         1 UNK         0.0600 
    161 H161        3.3752  -19.1349  -46.7329 H         1 UNK         0.0600 
    162 H162        4.1231  -17.7150  -46.0190 H         1 UNK         0.0600 
    163 H163        2.3867  -17.9724  -45.8620 H         1 UNK         0.0600 
    164 H164        3.0494  -17.4876  -43.5374 H         1 UNK         0.3000 
    165 H165        4.6744  -17.8007  -40.3316 H         1 UNK         0.0600 
    166 H166        4.8589  -15.3843  -40.8624 H         1 UNK         0.0600 
    167 H167        5.9750  -16.3143  -41.8515 H         1 UNK         0.0600 
    168 H168        4.4844  -15.6944  -42.5549 H         1 UNK         0.0600 
    169 H169        2.3249  -16.5721  -41.7075 H         1 UNK         0.3000 
    170 H170        0.0026  -17.9576  -40.1288 H         1 UNK         0.0600 
    171 H171        0.3016  -17.5119  -37.7414 H         1 UNK         0.0600 
    172 H172        0.8174  -15.8625  -38.0520 H         1 UNK         0.0600 
    173 H173       -0.8421  -16.3515  -38.3937 H         1 UNK         0.0600 
    174 H174       -0.3704  -16.3357  -41.5787 H         1 UNK         0.3000 
    175 H175       -0.4884  -13.3508  -41.8768 H         1 UNK         0.0600 
    176 H176        2.3927  -13.6202  -42.8877 H         1 UNK         0.0600 
    177 H177        1.2025  -12.4839  -43.5202 H         1 UNK         0.0600 
    178 H178        1.7601  -12.3388  -41.8627 H         1 UNK         0.0600 
    179 H179       -1.0472  -14.5536  -43.6453 H         1 UNK         0.3000 
    180 H180        0.5236  -16.4041  -46.0272 H         1 UNK         0.0600 
    181 H181        0.1821  -18.4414  -44.7421 H         1 UNK         0.0600 
    182 H182       -1.2571  -18.1983  -45.7036 H         1 UNK         0.0600 
    183 H183       -1.2784  -17.8173  -43.9863 H         1 UNK         0.0600 
    184 H184       -2.2584  -15.8774  -45.3056 H         1 UNK         0.3000 
    185 H185       -3.4154  -14.4174  -46.6057 H         1 UNK         0.0600 
    186 H186       -2.9114  -13.1859  -44.5085 H         1 UNK         0.0600 
    187 H187       -2.0552  -11.9420  -45.4131 H         1 UNK         0.0600 
    188 H188       -3.7933  -12.1586  -45.6244 H         1 UNK         0.0600 
    189 H189       -2.4665  -11.9920  -47.8405 H         1 UNK         0.3000 
    190 H190       -0.4126  -24.1525  -45.2769 H         1 UNK         0.3000 
    191 H191       -1.8803  -25.4469  -44.2884 H         1 UNK         0.0600 
    192 H192       -2.9162  -27.3697  -45.4051 H         1 UNK         0.0600 
    193 H193       -1.2545  -27.2219  -45.9545 H         1 UNK         0.0600 
    194 H194       -2.5800  -26.7029  -46.9951 H         1 UNK         0.0600 
    195 H195       -2.5225  -22.8101  -45.0886 H         1 UNK         0.3000 
    196 H196       -5.3416  -22.6022  -44.7278 H         1 UNK         0.0600 
    197 H197       -4.1547  -21.8807  -47.4854 H         1 UNK         0.0600 
    198 H198       -5.3667  -23.1240  -47.1935 H         1 UNK         0.0600 
    199 H199       -5.7669  -21.4351  -46.9426 H         1 UNK         0.0600 
    200 H200       -5.9031  -20.2839  -44.5731 H         1 UNK         0.3000 
    201 H201       -3.7689  -18.7348  -43.3459 H         1 UNK         0.0600 
    202 H202       -5.6448  -17.2059  -42.7651 H         1 UNK         0.0600 
    203 H203       -6.0471  -18.8646  -42.3553 H         1 UNK         0.0600 
    204 H204       -6.7381  -18.1191  -43.7975 H         1 UNK         0.0600 
    205 H205       -4.8259  -18.9812  -46.5965 H         1 UNK         0.3000 
    206 H206       -3.3928  -16.6154  -47.4053 H         1 UNK         0.0600 
    207 H207       -5.6573  -15.6190  -46.8904 H         1 UNK         0.0600 
    208 H208       -5.3669  -15.6045  -48.6182 H         1 UNK         0.0600 
    209 H209       -6.4268  -16.8232  -47.9202 H         1 UNK         0.0600 
    210 H210       -3.4579  -16.4274  -49.8040 H         1 UNK         0.3000 
    211 H211       -2.5279  -18.7242  -51.0489 H         1 UNK         0.0600 
    212 H212       -3.6426  -16.1972  -52.3628 H         1 UNK         0.0600 
    213 H213       -2.5271  -17.3457  -53.0986 H         1 UNK         0.0600 
    214 H214       -2.0133  -16.3863  -51.7253 H         1 UNK         0.0600 
    215 H215       -5.8460  -17.6197  -50.8908 H         1 UNK         0.3000 
    216 H216       -7.8242  -18.3837  -51.5982 H         1 UNK         0.0600 
    217 H217       -7.1062  -20.3309  -50.2119 H         1 UNK         0.0600 
    218 H218       -6.4068  -21.1054  -51.6299 H         1 UNK         0.0600 
    219 H219       -8.1431  -20.8432  -51.5355 H         1 UNK         0.0600 
    220 H220       -6.8253  -17.0740  -53.5789 H         1 UNK         0.3000 
    221 H221       -6.7084  -16.6483  -55.7535 H         1 UNK         0.0600 
    222 H222       -8.2737  -17.7304  -57.3067 H         1 UNK         0.0600 
    223 H223       -8.5239  -19.0753  -56.2044 H         1 UNK         0.0600 
    224 H224       -9.0820  -17.4597  -55.7720 H         1 UNK         0.0600 
    225 H225       -4.6736  -18.1437  -54.5795 H         1 UNK         0.3000 
    226 H226       -2.7124  -18.9899  -54.9698 H         1 UNK         0.0600 
    227 H227       -2.6418  -17.6329  -57.0755 H         1 UNK         0.0600 
    228 H228       -1.7021  -19.1098  -57.1933 H         1 UNK         0.0600 
    229 H229       -3.2716  -19.0133  -57.9765 H         1 UNK         0.0600 
    230 H230       -5.2968  -20.7406  -54.8521 H         1 UNK         0.3000 
    231 H231       -4.4966  -23.2861  -55.9561 H         1 UNK         0.0600 
    232 H232       -6.3759  -24.1663  -54.6253 H         1 UNK         0.0600 
    233 H233       -6.8791  -22.6966  -55.4482 H         1 UNK         0.0600 
    234 H234       -6.5002  -22.6613  -53.7258 H         1 UNK         0.0600 
    235 H235       -3.9053  -21.5949  -52.8798 H         1 UNK         0.3000 
    236 H236       -2.8061  -23.9291  -51.5145 H         1 UNK         0.0600 
    237 H237       -2.6989  -20.9669  -50.7852 H         1 UNK         0.0600 
    238 H238       -3.9805  -22.0734  -50.3005 H         1 UNK         0.0600 
    239 H239       -2.3400  -22.3119  -49.7194 H         1 UNK         0.0600 
    240 H240       -1.5767  -21.8392  -53.9245 H         1 UNK         0.3000 
    241 H241        1.2053  -21.8836  -53.0731 H         1 UNK         0.0600 
    242 H242       -0.7276  -24.3730  -54.4732 H         1 UNK         0.3800 
    243 H243        0.6008  -25.2732  -55.1580 H         1 UNK         0.3800 
    244 H244        0.1109  -21.0880  -55.8066 H         1 UNK         0.0800 
    245 H245        1.7147  -20.7708  -55.2053 H         1 UNK         0.0800 
    246 H246        2.1394  -18.1154  -53.7626 H         1 UNK         0.0800 
    247 H247        2.1312  -19.6609  -52.9466 H         1 UNK         0.0800 
@<TRIPOS>BOND
     1    1    2 1    
     2    1  127 1    
     3    1  128 1    
     4    1  129 1    
     5    2    3 2    
     6    2    4 am   BACKBONE|DICT|INTERRES
     7    4    5 1    
     8    4  130 1    
     9    5    6 1    
    10    5   65 1    
    11    5  131 1    
    12    6    7 1    
    13    6  132 1    
    14    6  133 1    
    15    7    8 1    
    16    8    9 1    
    17    8  134 1    
    18    8  135 1    
    19    9   10 ar   
    20    9   14 ar   
    21   10   11 ar   
    22   10  136 1    
    23   11   12 ar   
    24   11  126 1    
    25   12   13 ar   
    26   12  137 1    
    27   13   14 ar   
    28   13   15 1    
    29   14  138 1    
    30   15   16 1    
    31   15  139 1    
    32   15  140 1    
    33   16   17 1    
    34   17   18 1    
    35   17  141 1    
    36   17  142 1    
    37   18   19 1    
    38   18   67 1    
    39   18  143 1    
    40   19   20 am   BACKBONE|DICT|INTERRES
    41   19  144 1    
    42   20   21 2    
    43   20   22 1    
    44   22   23 1    
    45   22   24 1    
    46   22  145 1    
    47   23  146 1    
    48   23  147 1    
    49   23  148 1    
    50   24   25 am   BACKBONE|DICT|INTERRES
    51   24  149 1    
    52   25   26 2    
    53   25   27 1    
    54   27   28 1    
    55   27   29 1    
    56   27  150 1    
    57   28  151 1    
    58   28  152 1    
    59   28  153 1    
    60   29   30 am   BACKBONE|DICT|INTERRES
    61   29  154 1    
    62   30   31 2    
    63   30   32 1    
    64   32   33 1    
    65   32   34 1    
    66   32  155 1    
    67   33  156 1    
    68   33  157 1    
    69   33  158 1    
    70   34   35 am   BACKBONE|DICT|INTERRES
    71   34  159 1    
    72   35   36 2    
    73   35   37 1    
    74   37   38 1    
    75   37   39 1    
    76   37  160 1    
    77   38  161 1    
    78   38  162 1    
    79   38  163 1    
    80   39   40 am   BACKBONE|DICT|INTERRES
    81   39  164 1    
    82   40   41 2    
    83   40   42 1    
    84   42   43 1    
    85   42   44 1    
    86   42  165 1    
    87   43  166 1    
    88   43  167 1    
    89   43  168 1    
    90   44   45 am   BACKBONE|DICT|INTERRES
    91   44  169 1    
    92   45   46 2    
    93   45   47 1    
    94   47   48 1    
    95   47   49 1    
    96   47  170 1    
    97   48  171 1    
    98   48  172 1    
    99   48  173 1    
   100   49   50 am   BACKBONE|DICT|INTERRES
   101   49  174 1    
   102   50   51 2    
   103   50   52 1    
   104   52   53 1    
   105   52   54 1    
   106   52  175 1    
   107   53  176 1    
   108   53  177 1    
   109   53  178 1    
   110   54   55 am   BACKBONE|DICT|INTERRES
   111   54  179 1    
   112   55   56 2    
   113   55   57 1    
   114   57   58 1    
   115   57   59 1    
   116   57  180 1    
   117   58  181 1    
   118   58  182 1    
   119   58  183 1    
   120   59   60 am   BACKBONE|DICT|INTERRES
   121   59  184 1    
   122   60   61 2    
   123   60   62 1    
   124   62   63 1    
   125   62   64 1    
   126   62  185 1    
   127   63  186 1    
   128   63  187 1    
   129   63  188 1    
   130   64   65 am   BACKBONE|DICT|INTERRES
   131   64  189 1    
   132   65   66 2    
   133   67   68 2    
   134   67   69 am   BACKBONE|DICT|INTERRES
   135   69   70 1    
   136   69  190 1    
   137   70   71 1    
   138   70   72 1    
   139   70  191 1    
   140   71  192 1    
   141   71  193 1    
   142   71  194 1    
   143   72   73 2    
   144   72   74 am   BACKBONE|DICT|INTERRES
   145   74   75 1    
   146   74  195 1    
   147   75   76 1    
   148   75   77 1    
   149   75  196 1    
   150   76  197 1    
   151   76  198 1    
   152   76  199 1    
   153   77   78 2    
   154   77   79 am   BACKBONE|DICT|INTERRES
   155   79   80 1    
   156   79  200 1    
   157   80   81 1    
   158   80   82 1    
   159   80  201 1    
   160   81  202 1    
   161   81  203 1    
   162   81  204 1    
   163   82   83 2    
   164   82   84 am   BACKBONE|DICT|INTERRES
   165   84   85 1    
   166   84  205 1    
   167   85   86 1    
   168   85   87 1    
   169   85  206 1    
   170   86  207 1    
   171   86  208 1    
   172   86  209 1    
   173   87   88 2    
   174   87   89 am   BACKBONE|DICT|INTERRES
   175   89   90 1    
   176   89  210 1    
   177   90   91 1    
   178   90   92 1    
   179   90  211 1    
   180   91  212 1    
   181   91  213 1    
   182   91  214 1    
   183   92   93 2    
   184   92   94 am   BACKBONE|DICT|INTERRES
   185   94   95 1    
   186   94  215 1    
   187   95   96 1    
   188   95   97 1    
   189   95  216 1    
   190   96  217 1    
   191   96  218 1    
   192   96  219 1    
   193   97   98 2    
   194   97   99 am   BACKBONE|DICT|INTERRES
   195   99  100 1    
   196   99  220 1    
   197  100  101 1    
   198  100  102 1    
   199  100  221 1    
   200  101  222 1    
   201  101  223 1    
   202  101  224 1    
   203  102  103 2    
   204  102  104 am   BACKBONE|DICT|INTERRES
   205  104  105 1    
   206  104  225 1    
   207  105  106 1    
   208  105  107 1    
   209  105  226 1    
   210  106  227 1    
   211  106  228 1    
   212  106  229 1    
   213  107  108 2    
   214  107  109 am   BACKBONE|DICT|INTERRES
   215  109  110 1    
   216  109  230 1    
   217  110  111 1    
   218  110  112 1    
   219  110  231 1    
   220  111  232 1    
   221  111  233 1    
   222  111  234 1    
   223  112  113 2    
   224  112  114 am   BACKBONE|DICT|INTERRES
   225  114  115 1    
   226  114  235 1    
   227  115  116 1    
   228  115  117 1    
   229  115  236 1    
   230  116  237 1    
   231  116  238 1    
   232  116  239 1    
   233  117  118 2    
   234  117  119 am   BACKBONE|DICT|INTERRES
   235  119  120 1    
   236  119  240 1    
   237  120  121 1    
   238  120  124 1    
   239  120  241 1    
   240  121  122 am   BACKBONE|DICT|INTERRES
   241  121  123 2    
   242  122  242 1    
   243  122  243 1    
   244  124  125 1    
   245  124  244 1    
   246  124  245 1    
   247  125  126 1    
   248  126  246 1    
   249  126  247 1    
@<TRIPOS>SUBSTRUCTURE
     1 UNK         1 GROUP             0       ****    0 ROOT    
