@<TRIPOS>MOLECULE
3R540
247   249    1
SMALL
USER_CHARGES


@<TRIPOS>ATOM
      1 CA          3.8704  -10.0789  -49.6888 C.3       0 UNK        -0.1800 
      2 C           3.4578  -11.3849  -49.0262 C.2       0 UNK         0.5000 
      3 O           3.1819  -11.4002  -47.8272 O.2       0 UNK        -0.5000 
      4 N           3.4010  -12.4761  -49.8024 N.am      1 UNK        -0.5000 
      5 CA          3.0242  -13.8217  -49.3509 C.3       1 UNK         0.1400 
      6 C6          3.2303  -14.8680  -50.4783 C.3       23 UNK        -0.0398 
      7 S7          2.7228  -16.5733  -50.0530 S.3       23 UNK        -0.2404 
      8 C8          1.2584  -16.7474  -51.1235 C.3       23 UNK        -0.0205 
      9 C9          0.4338  -17.9833  -50.7966 C.ar      23 UNK        -0.0193 
     10 C10        -0.9253  -17.8596  -50.4960 C.ar      23 UNK        -0.1150 
     11 C11        -1.7065  -18.9891  -50.2419 C.ar      23 UNK        -0.0193 
     12 C12        -1.1091  -20.2539  -50.2609 C.ar      23 UNK        -0.1150 
     13 C13         0.2512  -20.3933  -50.5581 C.ar      23 UNK        -0.0193 
     14 C14         1.0119  -19.2547  -50.8377 C.ar      23 UNK        -0.1150 
     15 C15         0.8904  -21.7758  -50.6135 C.3       23 UNK        -0.0205 
     16 S16         2.3224  -21.9634  -49.4926 S.3       23 UNK        -0.2404 
     17 C17         1.6254  -21.5066  -47.8671 C.3       23 UNK        -0.0398 
     18 CA          1.1257  -22.7094  -47.0318 C.3       11 UNK         0.1400 
     19 N           0.8712  -22.3295  -45.6416 N.am      11 UNK        -0.5000 
     20 C           0.5307  -23.1697  -44.6544 C.2       10 UNK         0.5000 
     21 O           0.4677  -24.3922  -44.7840 O.2       10 UNK        -0.5000 
     22 CA          0.1335  -22.5273  -43.3122 C.3       10 UNK         0.1400 
     23 CB          1.3743  -22.1444  -42.4924 C.3       10 UNK        -0.1800 
     24 N          -0.7263  -21.3552  -43.4916 N.am      10 UNK        -0.5000 
     25 C          -1.9560  -21.4022  -44.0261 C.2       9 UNK         0.5000 
     26 O          -2.5138  -22.4470  -44.3623 O.2       9 UNK        -0.5000 
     27 CA         -2.6684  -20.0588  -44.2628 C.3       9 UNK         0.1400 
     28 CB         -3.3332  -19.5638  -42.9702 C.3       9 UNK        -0.1800 
     29 N          -1.7765  -19.0237  -44.7858 N.am      9 UNK        -0.5000 
     30 C          -1.1531  -19.0816  -45.9718 C.2       8 UNK         0.5000 
     31 O          -1.2822  -20.0161  -46.7597 O.2       8 UNK        -0.5000 
     32 CA         -0.1688  -17.9411  -46.2980 C.3       8 UNK         0.1400 
     33 CB         -0.9091  -16.6523  -46.6910 C.3       8 UNK        -0.1800 
     34 N           0.7262  -17.6583  -45.1768 N.am      8 UNK        -0.5000 
     35 C           1.5919  -18.5292  -44.6416 C.2       7 UNK         0.5000 
     36 O           1.7690  -19.6704  -45.0651 O.2       7 UNK        -0.5000 
     37 CA          2.3504  -18.0611  -43.3897 C.3       7 UNK         0.1400 
     38 CB          3.6064  -17.2638  -43.7734 C.3       7 UNK        -0.1800 
     39 N           1.4963  -17.2528  -42.5202 N.am      7 UNK        -0.5000 
     40 C           0.5052  -17.7484  -41.7664 C.2       6 UNK         0.5000 
     41 O           0.2425  -18.9491  -41.6857 O.2       6 UNK        -0.5000 
     42 CA         -0.3607  -16.7237  -41.0086 C.3       6 UNK         0.1400 
     43 CB          0.3321  -16.2788  -39.7120 C.3       6 UNK        -0.1800 
     44 N          -0.6819  -15.5458  -41.8182 N.am      6 UNK        -0.5000 
     45 C          -1.4643  -15.5752  -42.9057 C.2       5 UNK         0.5000 
     46 O          -2.0231  -16.5923  -43.3115 O.2       5 UNK        -0.5000 
     47 CA         -1.6324  -14.2651  -43.6972 C.3       5 UNK         0.1400 
     48 CB         -2.8289  -13.4651  -43.1626 C.3       5 UNK        -0.1800 
     49 N          -0.4562  -13.3925  -43.7400 N.am      5 UNK        -0.5000 
     50 C           0.7822  -13.7356  -44.1189 C.2       4 UNK         0.5000 
     51 O           1.1399  -14.8987  -44.3063 O.2       4 UNK        -0.5000 
     52 CA          1.7637  -12.5685  -44.3542 C.3       4 UNK         0.1400 
     53 CB          3.1923  -13.0506  -44.6636 C.3       4 UNK        -0.1800 
     54 N           1.3015  -11.7281  -45.4591 N.am      4 UNK        -0.5000 
     55 C           0.3175  -10.8206  -45.3925 C.2       3 UNK         0.5000 
     56 O          -0.2423  -10.5019  -44.3422 O.2       3 UNK        -0.5000 
     57 CA         -0.1643  -10.2175  -46.7248 C.3       3 UNK         0.1400 
     58 CB          0.6810   -8.9965  -47.1180 C.3       3 UNK        -0.1800 
     59 N          -0.1506  -11.2022  -47.8092 N.am      3 UNK        -0.5000 
     60 C          -1.0152  -12.2234  -47.9162 C.2       2 UNK         0.5000 
     61 O          -1.9643  -12.3950  -47.1511 O.2       2 UNK        -0.5000 
     62 CA         -0.7773  -13.2302  -49.0606 C.3       2 UNK         0.1400 
     63 CB         -1.6644  -12.9072  -50.2730 C.3       2 UNK        -0.1800 
     64 N           0.6223  -13.2987  -49.4907 N.am      2 UNK        -0.5000 
     65 C           1.6003  -13.8461  -48.7539 C.2       1 UNK         0.5000 
     66 O           1.4263  -14.3149  -47.6319 O.2       1 UNK        -0.5000 
     67 C          -0.1118  -23.3734  -47.6663 C.2       11 UNK         0.5000 
     68 O           0.0140  -24.4579  -48.2324 O.2       11 UNK        -0.5000 
     69 N          -1.2839  -22.7358  -47.5318 N.am      12 UNK        -0.5000 
     70 CA         -2.5638  -23.2266  -48.0441 C.3       12 UNK         0.1400 
     71 CB         -3.6615  -22.1850  -47.7820 C.3       12 UNK        -0.1800 
     72 C          -2.9630  -24.5913  -47.4586 C.2       12 UNK         0.5000 
     73 O          -3.4307  -25.4537  -48.2012 O.2       12 UNK        -0.5000 
     74 N          -2.7368  -24.7745  -46.1507 N.am      13 UNK        -0.5000 
     75 CA         -2.9484  -26.0354  -45.4425 C.3       13 UNK         0.1400 
     76 CB         -2.8254  -25.8010  -43.9293 C.3       13 UNK        -0.1800 
     77 C          -1.9877  -27.1460  -45.9066 C.2       13 UNK         0.5000 
     78 O          -2.4280  -28.2785  -46.1057 O.2       13 UNK        -0.5000 
     79 N          -0.7043  -26.8028  -46.0864 N.am      14 UNK        -0.5000 
     80 CA          0.3426  -27.7160  -46.5484 C.3       14 UNK         0.1400 
     81 CB          1.7195  -27.0674  -46.3374 C.3       14 UNK        -0.1800 
     82 C           0.1604  -28.1456  -48.0157 C.2       14 UNK         0.5000 
     83 O           0.3022  -29.3294  -48.3251 O.2       14 UNK        -0.5000 
     84 N          -0.1584  -27.1814  -48.8888 N.am      15 UNK        -0.5000 
     85 CA         -0.4037  -27.3951  -50.3162 C.3       15 UNK         0.1400 
     86 CB         -0.2921  -26.0469  -51.0460 C.3       15 UNK        -0.1800 
     87 C          -1.7687  -28.0467  -50.6082 C.2       15 UNK         0.5000 
     88 O          -1.9343  -28.6405  -51.6742 O.2       15 UNK        -0.5000 
     89 N          -2.7174  -27.9029  -49.6707 N.am      16 UNK        -0.5000 
     90 CA         -4.1238  -28.3159  -49.7392 C.3       16 UNK         0.1400 
     91 CB         -4.2523  -29.8484  -49.8635 C.3       16 UNK        -0.1800 
     92 C          -4.9297  -27.5491  -50.8121 C.2       16 UNK         0.5000 
     93 O          -5.9455  -28.0509  -51.2974 O.2       16 UNK        -0.5000 
     94 N          -4.4710  -26.3395  -51.1508 N.am      17 UNK        -0.5000 
     95 CA         -5.0485  -25.4226  -52.1247 C.3       17 UNK         0.1400 
     96 CB         -4.8065  -25.9326  -53.5575 C.3       17 UNK        -0.1800 
     97 C          -4.3944  -24.0502  -51.9241 C.2       17 UNK         0.5000 
     98 O          -3.2272  -23.9834  -51.5311 O.2       17 UNK        -0.5000 
     99 N          -5.1452  -22.9806  -52.2042 N.am      18 UNK        -0.5000 
    100 CA        -4.6586  -21.6064  -52.1320 C.3       18 UNK         0.1400 
    101 CB        -5.8410  -20.6659  -51.8481 C.3       18 UNK        -0.1800 
    102 C         -3.9446  -21.2208  -53.4380 C.2       18 UNK         0.5000 
    103 O         -4.5423  -21.3383  -54.5098 O.2       18 UNK        -0.5000 
    104 N         -2.6913  -20.7631  -53.3270 N.am      19 UNK        -0.5000 
    105 CA        -1.8676  -20.3337  -54.4617 C.3       19 UNK         0.1400 
    106 CB        -0.4005  -20.6819  -54.1675 C.3       19 UNK        -0.1800 
    107 C         -2.0067  -18.8295  -54.7714 C.2       19 UNK         0.5000 
    108 O         -1.5526  -18.3913  -55.8294 O.2       19 UNK        -0.5000 
    109 N         -2.6165  -18.0652  -53.8578 N.am      20 UNK        -0.5000 
    110 CA        -2.8553  -16.6291  -53.9689 C.3       20 UNK         0.1400 
    111 CB        -1.5870  -15.8386  -53.5825 C.3       20 UNK        -0.1800 
    112 C         -4.0892  -16.2507  -53.1299 C.2       20 UNK         0.5000 
    113 O         -4.8922  -17.1235  -52.7883 O.2       20 UNK        -0.5000 
    114 N         -4.2339  -14.9551  -52.8286 N.am      21 UNK        -0.5000 
    115 CA        -5.3873  -14.3364  -52.1724 C.3       21 UNK         0.1400 
    116 CB        -5.3567  -12.8263  -52.4745 C.3       21 UNK        -0.1800 
    117 C         -5.5008  -14.6335  -50.6584 C.2       21 UNK         0.5000 
    118 O         -5.5238  -13.7040  -49.8495 O.2       21 UNK        -0.5000 
    119 N         -5.6035  -15.9185  -50.2994 N.am      22 UNK        -0.5000 
    120 CA        -5.9525  -16.3764  -48.9399 C.3       22 UNK         0.1400 
    121 C         -7.4736  -16.2808  -48.6133 C.2       22 UNK         0.5000 
    122 N         -8.3543  -16.0358  -49.5766 N.am      22 UNK        -0.7600 
    123 O         -7.8632  -16.4222  -47.4575 O.2       22 UNK        -0.5000 
    124 C124       -5.4219  -17.8020  -48.6419 C.3       23 UNK        -0.0398 
    125 S125       -3.6041  -17.8556  -48.5470 S.3       23 UNK        -0.2404 
    126 C126       -3.2041  -18.8396  -50.0153 C.3       23 UNK        -0.0205 
    127 H127        3.0703   -9.3441  -49.5990 H         1 UNK         0.0600 
    128 H128        4.0929  -10.2129  -50.7476 H         1 UNK         0.0600 
    129 H129        4.7591   -9.6772  -49.2023 H         1 UNK         0.0600 
    130 H130        3.6433  -12.3911  -50.7794 H         1 UNK         0.3000 
    131 H131        3.7063  -14.0832  -48.5387 H         1 UNK         0.0600 
    132 H132        4.2869  -14.9017  -50.7472 H         1 UNK         0.0800 
    133 H133        2.7099  -14.5532  -51.3842 H         1 UNK         0.0800 
    134 H134        0.6431  -15.8517  -51.0290 H         1 UNK         0.0800 
    135 H135        1.5764  -16.7986  -52.1658 H         1 UNK         0.0800 
    136 H136       -1.3878  -16.8836  -50.4700 H         1 UNK         0.1150 
    137 H137       -1.7037  -21.1326  -50.0574 H         1 UNK         0.1150 
    138 H138        2.0594  -19.3585  -51.0836 H         1 UNK         0.1150 
    139 H139        0.1562  -22.5526  -50.3972 H         1 UNK         0.0800 
    140 H140        1.2263  -21.9610  -51.6344 H         1 UNK         0.0800 
    141 H141        0.8471  -20.7544  -47.9859 H         1 UNK         0.0800 
    142 H142        2.4270  -21.0042  -47.3247 H         1 UNK         0.0800 
    143 H143        1.9218  -23.4566  -47.0095 H         1 UNK         0.0600 
    144 H144        0.9436  -21.3378  -45.4292 H         1 UNK         0.3000 
    145 H145       -0.4304  -23.2699  -42.7439 H         1 UNK         0.0600 
    146 H146        1.0942  -21.7411  -41.5191 H         1 UNK         0.0600 
    147 H147        2.0068  -23.0150  -42.3147 H         1 UNK         0.0600 
    148 H148        1.9820  -21.3966  -43.0012 H         1 UNK         0.0600 
    149 H149       -0.3475  -20.4595  -43.2090 H         1 UNK         0.3000 
    150 H150       -3.4512  -20.2258  -45.0054 H         1 UNK         0.0600 
    151 H151       -4.0028  -20.3203  -42.5591 H         1 UNK         0.0600 
    152 H152       -3.9275  -18.6682  -43.1523 H         1 UNK         0.0600 
    153 H153       -2.5946  -19.3244  -42.2042 H         1 UNK         0.0600 
    154 H154       -1.6604  -18.1937  -44.2095 H         1 UNK         0.3000 
    155 H155        0.4539  -18.2497  -47.1406 H         1 UNK         0.0600 
    156 H156       -0.3103  -15.7643  -46.5001 H         1 UNK         0.0600 
    157 H157       -1.1369  -16.6553  -47.7557 H         1 UNK         0.0600 
    158 H158       -1.8488  -16.5317  -46.1512 H         1 UNK         0.0600 
    159 H159        0.6983  -16.7172  -44.7946 H         1 UNK         0.3000 
    160 H160        2.6681  -18.9472  -42.8363 H         1 UNK         0.0600 
    161 H161        3.3621  -16.3714  -44.3503 H         1 UNK         0.0600 
    162 H162        4.2792  -17.8703  -44.3810 H         1 UNK         0.0600 
    163 H163        4.1604  -16.9502  -42.8887 H         1 UNK         0.0600 
    164 H164        1.5790  -16.2494  -42.6180 H         1 UNK         0.3000 
    165 H165       -1.2979  -17.2166  -40.7409 H         1 UNK         0.0600 
    166 H166       -0.3095  -15.6175  -39.1294 H         1 UNK         0.0600 
    167 H167        0.5693  -17.1375  -39.0824 H         1 UNK         0.0600 
    168 H168        1.2652  -15.7509  -39.9127 H         1 UNK         0.0600 
    169 H169       -0.2526  -14.6711  -41.5551 H         1 UNK         0.3000 
    170 H170       -1.8516  -14.5409  -44.7300 H         1 UNK         0.0600 
    171 H171       -3.7320  -14.0766  -43.1427 H         1 UNK         0.0600 
    172 H172       -2.6511  -13.1060  -42.1483 H         1 UNK         0.0600 
    173 H173       -3.0376  -12.6009  -43.7940 H         1 UNK         0.0600 
    174 H174       -0.6392  -12.3998  -43.6427 H         1 UNK         0.3000 
    175 H175        1.8002  -11.9733  -43.4396 H         1 UNK         0.0600 
    176 H176        3.5830  -13.6656  -43.8521 H         1 UNK         0.0600 
    177 H177        3.2263  -13.6478  -45.5759 H         1 UNK         0.0600 
    178 H178        3.8726  -12.2086  -44.7924 H         1 UNK         0.0600 
    179 H179        1.7162  -11.9221  -46.3638 H         1 UNK         0.3000 
    180 H180       -1.1937   -9.8808  -46.5838 H         1 UNK         0.0600 
    181 H181        1.7322   -9.2527  -47.2475 H         1 UNK         0.0600 
    182 H182        0.6272   -8.2252  -46.3488 H         1 UNK         0.0600 
    183 H183        0.3258   -8.5525  -48.0481 H         1 UNK         0.0600 
    184 H184        0.6187  -11.1526  -48.4600 H         1 UNK         0.3000 
    185 H185       -1.0665  -14.2159  -48.6890 H         1 UNK         0.0600 
    186 H186       -2.7166  -12.8723  -49.9870 H         1 UNK         0.0600 
    187 H187       -1.4112  -11.9418  -50.7125 H         1 UNK         0.0600 
    188 H188       -1.5663  -13.6679  -51.0476 H         1 UNK         0.0600 
    189 H189        0.8463  -12.9004  -50.3908 H         1 UNK         0.3000 
    190 H190       -1.2948  -21.8184  -47.0889 H         1 UNK         0.3000 
    191 H191       -2.4518  -23.3450  -49.1223 H         1 UNK         0.0600 
    192 H192       -3.8862  -22.0945  -46.7192 H         1 UNK         0.0600 
    193 H193       -4.5858  -22.4570  -48.2930 H         1 UNK         0.0600 
    194 H194       -3.3666  -21.1995  -48.1367 H         1 UNK         0.0600 
    195 H195       -2.4000  -23.9904  -45.5995 H         1 UNK         0.3000 
    196 H196       -3.9671  -26.3688  -45.6511 H         1 UNK         0.0600 
    197 H197       -2.9969  -26.7246  -43.3751 H         1 UNK         0.0600 
    198 H198       -3.5588  -25.0723  -43.5834 H         1 UNK         0.0600 
    199 H199       -1.8361  -25.4322  -43.6569 H         1 UNK         0.0600 
    200 H200       -0.4141  -25.8550  -45.8661 H         1 UNK         0.3000 
    201 H201        0.2980  -28.6163  -45.9320 H         1 UNK         0.0600 
    202 H202        1.8915  -26.8437  -45.2844 H         1 UNK         0.0600 
    203 H203        1.8166  -26.1357  -46.8958 H         1 UNK         0.0600 
    204 H204        2.5199  -27.7323  -46.6641 H         1 UNK         0.0600 
    205 H205       -0.2036  -26.2168  -48.5614 H         1 UNK         0.3000 
    206 H206        0.3703  -28.0594  -50.7061 H         1 UNK         0.0600 
    207 H207        0.6961  -25.6062  -50.9128 H         1 UNK         0.0600 
    208 H208       -0.4566  -26.1632  -52.1180 H         1 UNK         0.0600 
    209 H209       -1.0272  -25.3309  -50.6770 H         1 UNK         0.0600 
    210 H210       -2.4846  -27.3432  -48.8596 H         1 UNK         0.3000 
    211 H211       -4.5601  -28.0307  -48.7809 H         1 UNK         0.0600 
    212 H212       -3.9169  -30.2077  -50.8365 H         1 UNK         0.0600 
    213 H213       -5.2888  -30.1642  -49.7402 H         1 UNK         0.0600 
    214 H214       -3.6666  -30.3556  -49.0967 H         1 UNK         0.0600 
    215 H215       -3.6589  -25.9725  -50.6679 H         1 UNK         0.3000 
    216 H216       -6.1207  -25.3370  -51.9374 H         1 UNK         0.0600 
    217 H217       -3.7430  -26.0698  -53.7576 H         1 UNK         0.0600 
    218 H218       -5.1920  -25.2272  -54.2947 H         1 UNK         0.0600 
    219 H219       -5.3048  -26.8860  -53.7328 H         1 UNK         0.0600 
    220 H220       -6.0764  -23.1086  -52.5733 H         1 UNK         0.3000 
    221 H221       -3.9531  -21.5282  -51.3041 H         1 UNK         0.0600 
    222 H222       -6.2964  -20.8870  -50.8826 H         1 UNK         0.0600 
    223 H223       -6.6154  -20.7499  -52.6115 H         1 UNK         0.0600 
    224 H224       -5.5214  -19.6244  -51.8264 H         1 UNK         0.0600 
    225 H225       -2.2515  -20.7186  -52.4192 H         1 UNK         0.3000 
    226 H226       -2.1660  -20.8824  -55.3576 H         1 UNK         0.0600 
    227 H227        0.2259  -20.4949  -55.0404 H         1 UNK         0.0600 
    228 H228       -0.0031  -20.0811  -53.3508 H         1 UNK         0.0600 
    229 H229       -0.2847  -21.7334  -53.9039 H         1 UNK         0.0600 
    230 H230       -3.0434  -18.5073  -53.0573 H         1 UNK         0.3000 
    231 H231       -3.1059  -16.4001  -55.0067 H         1 UNK         0.0600 
    232 H232       -1.3904  -15.8895  -52.5138 H         1 UNK         0.0600 
    233 H233       -1.6793  -14.7856  -53.8493 H         1 UNK         0.0600 
    234 H234       -0.7058  -16.2177  -54.1002 H         1 UNK         0.0600 
    235 H235       -3.5091  -14.3173  -53.1225 H         1 UNK         0.3000 
    236 H236       -6.2907  -14.7399  -52.6346 H         1 UNK         0.0600 
    237 H237       -5.3638  -12.6378  -53.5483 H         1 UNK         0.0600 
    238 H238       -6.2293  -12.3233  -52.0556 H         1 UNK         0.0600 
    239 H239       -4.4691  -12.3500  -52.0558 H         1 UNK         0.0600 
    240 H240       -5.5375  -16.6221  -51.0281 H         1 UNK         0.3000 
    241 H241       -5.4685  -15.7037  -48.2288 H         1 UNK         0.0600 
    242 H242       -9.3338  -15.9721  -49.3464 H         1 UNK         0.3800 
    243 H243       -8.0576  -15.9245  -50.5322 H         1 UNK         0.3800 
    244 H244       -5.7885  -18.5123  -49.3843 H         1 UNK         0.0800 
    245 H245       -5.7895  -18.1589  -47.6780 H         1 UNK         0.0800 
    246 H246       -3.6808  -19.8110  -49.9095 H         1 UNK         0.0800 
    247 H247       -3.6448  -18.3645  -50.8888 H         1 UNK         0.0800 
@<TRIPOS>BOND
     1    1    2 1    
     2    1  127 1    
     3    1  128 1    
     4    1  129 1    
     5    2    3 2    
     6    2    4 am   BACKBONE|DICT|INTERRES
     7    4    5 1    
     8    4  130 1    
     9    5    6 1    
    10    5   65 1    
    11    5  131 1    
    12    6    7 1    
    13    6  132 1    
    14    6  133 1    
    15    7    8 1    
    16    8    9 1    
    17    8  134 1    
    18    8  135 1    
    19    9   10 ar   
    20    9   14 ar   
    21   10   11 ar   
    22   10  136 1    
    23   11   12 ar   
    24   11  126 1    
    25   12   13 ar   
    26   12  137 1    
    27   13   14 ar   
    28   13   15 1    
    29   14  138 1    
    30   15   16 1    
    31   15  139 1    
    32   15  140 1    
    33   16   17 1    
    34   17   18 1    
    35   17  141 1    
    36   17  142 1    
    37   18   19 1    
    38   18   67 1    
    39   18  143 1    
    40   19   20 am   BACKBONE|DICT|INTERRES
    41   19  144 1    
    42   20   21 2    
    43   20   22 1    
    44   22   23 1    
    45   22   24 1    
    46   22  145 1    
    47   23  146 1    
    48   23  147 1    
    49   23  148 1    
    50   24   25 am   BACKBONE|DICT|INTERRES
    51   24  149 1    
    52   25   26 2    
    53   25   27 1    
    54   27   28 1    
    55   27   29 1    
    56   27  150 1    
    57   28  151 1    
    58   28  152 1    
    59   28  153 1    
    60   29   30 am   BACKBONE|DICT|INTERRES
    61   29  154 1    
    62   30   31 2    
    63   30   32 1    
    64   32   33 1    
    65   32   34 1    
    66   32  155 1    
    67   33  156 1    
    68   33  157 1    
    69   33  158 1    
    70   34   35 am   BACKBONE|DICT|INTERRES
    71   34  159 1    
    72   35   36 2    
    73   35   37 1    
    74   37   38 1    
    75   37   39 1    
    76   37  160 1    
    77   38  161 1    
    78   38  162 1    
    79   38  163 1    
    80   39   40 am   BACKBONE|DICT|INTERRES
    81   39  164 1    
    82   40   41 2    
    83   40   42 1    
    84   42   43 1    
    85   42   44 1    
    86   42  165 1    
    87   43  166 1    
    88   43  167 1    
    89   43  168 1    
    90   44   45 am   BACKBONE|DICT|INTERRES
    91   44  169 1    
    92   45   46 2    
    93   45   47 1    
    94   47   48 1    
    95   47   49 1    
    96   47  170 1    
    97   48  171 1    
    98   48  172 1    
    99   48  173 1    
   100   49   50 am   BACKBONE|DICT|INTERRES
   101   49  174 1    
   102   50   51 2    
   103   50   52 1    
   104   52   53 1    
   105   52   54 1    
   106   52  175 1    
   107   53  176 1    
   108   53  177 1    
   109   53  178 1    
   110   54   55 am   BACKBONE|DICT|INTERRES
   111   54  179 1    
   112   55   56 2    
   113   55   57 1    
   114   57   58 1    
   115   57   59 1    
   116   57  180 1    
   117   58  181 1    
   118   58  182 1    
   119   58  183 1    
   120   59   60 am   BACKBONE|DICT|INTERRES
   121   59  184 1    
   122   60   61 2    
   123   60   62 1    
   124   62   63 1    
   125   62   64 1    
   126   62  185 1    
   127   63  186 1    
   128   63  187 1    
   129   63  188 1    
   130   64   65 am   BACKBONE|DICT|INTERRES
   131   64  189 1    
   132   65   66 2    
   133   67   68 2    
   134   67   69 am   BACKBONE|DICT|INTERRES
   135   69   70 1    
   136   69  190 1    
   137   70   71 1    
   138   70   72 1    
   139   70  191 1    
   140   71  192 1    
   141   71  193 1    
   142   71  194 1    
   143   72   73 2    
   144   72   74 am   BACKBONE|DICT|INTERRES
   145   74   75 1    
   146   74  195 1    
   147   75   76 1    
   148   75   77 1    
   149   75  196 1    
   150   76  197 1    
   151   76  198 1    
   152   76  199 1    
   153   77   78 2    
   154   77   79 am   BACKBONE|DICT|INTERRES
   155   79   80 1    
   156   79  200 1    
   157   80   81 1    
   158   80   82 1    
   159   80  201 1    
   160   81  202 1    
   161   81  203 1    
   162   81  204 1    
   163   82   83 2    
   164   82   84 am   BACKBONE|DICT|INTERRES
   165   84   85 1    
   166   84  205 1    
   167   85   86 1    
   168   85   87 1    
   169   85  206 1    
   170   86  207 1    
   171   86  208 1    
   172   86  209 1    
   173   87   88 2    
   174   87   89 am   BACKBONE|DICT|INTERRES
   175   89   90 1    
   176   89  210 1    
   177   90   91 1    
   178   90   92 1    
   179   90  211 1    
   180   91  212 1    
   181   91  213 1    
   182   91  214 1    
   183   92   93 2    
   184   92   94 am   BACKBONE|DICT|INTERRES
   185   94   95 1    
   186   94  215 1    
   187   95   96 1    
   188   95   97 1    
   189   95  216 1    
   190   96  217 1    
   191   96  218 1    
   192   96  219 1    
   193   97   98 2    
   194   97   99 am   BACKBONE|DICT|INTERRES
   195   99  100 1    
   196   99  220 1    
   197  100  101 1    
   198  100  102 1    
   199  100  221 1    
   200  101  222 1    
   201  101  223 1    
   202  101  224 1    
   203  102  103 2    
   204  102  104 am   BACKBONE|DICT|INTERRES
   205  104  105 1    
   206  104  225 1    
   207  105  106 1    
   208  105  107 1    
   209  105  226 1    
   210  106  227 1    
   211  106  228 1    
   212  106  229 1    
   213  107  108 2    
   214  107  109 am   BACKBONE|DICT|INTERRES
   215  109  110 1    
   216  109  230 1    
   217  110  111 1    
   218  110  112 1    
   219  110  231 1    
   220  111  232 1    
   221  111  233 1    
   222  111  234 1    
   223  112  113 2    
   224  112  114 am   BACKBONE|DICT|INTERRES
   225  114  115 1    
   226  114  235 1    
   227  115  116 1    
   228  115  117 1    
   229  115  236 1    
   230  116  237 1    
   231  116  238 1    
   232  116  239 1    
   233  117  118 2    
   234  117  119 am   BACKBONE|DICT|INTERRES
   235  119  120 1    
   236  119  240 1    
   237  120  121 1    
   238  120  124 1    
   239  120  241 1    
   240  121  122 am   BACKBONE|DICT|INTERRES
   241  121  123 2    
   242  122  242 1    
   243  122  243 1    
   244  124  125 1    
   245  124  244 1    
   246  124  245 1    
   247  125  126 1    
   248  126  246 1    
   249  126  247 1    
@<TRIPOS>SUBSTRUCTURE
     1 UNK         1 GROUP             0       ****    0 ROOT    
