@<TRIPOS>MOLECULE
3R540
247   249    1
SMALL
USER_CHARGES


@<TRIPOS>ATOM
      1 CA          0.1676   -9.1131  -47.1334 C.3       0 UNK        -0.1800 
      2 C           1.0444  -10.2363  -47.6678 C.2       0 UNK         0.5000 
      3 O           2.2579  -10.2213  -47.4540 O.2       0 UNK        -0.5000 
      4 N           0.4381  -11.2087  -48.3619 N.am      1 UNK        -0.5000 
      5 CA          1.0952  -12.4084  -48.8911 C.3       1 UNK         0.1400 
      6 C6          0.1671  -13.2477  -49.8107 C.3       23 UNK        -0.0398 
      7 S7         -1.5305  -13.5417  -49.1857 S.3       23 UNK        -0.2404 
      8 C8         -1.4101  -15.1656  -48.3679 C.3       23 UNK        -0.0205 
      9 C9         -1.1229  -16.3019  -49.3355 C.ar      23 UNK        -0.0193 
     10 C10        -2.1586  -16.8885  -50.0670 C.ar      23 UNK        -0.1150 
     11 C11        -1.8992  -17.9558  -50.9317 C.ar      23 UNK        -0.0193 
     12 C12        -0.5910  -18.4290  -51.0701 C.ar      23 UNK        -0.1150 
     13 C13         0.4506  -17.8549  -50.3359 C.ar      23 UNK        -0.0193 
     14 C14         0.1770  -16.7938  -49.4696 C.ar      23 UNK        -0.1150 
     15 C15         1.8720  -18.3840  -50.4610 C.3       23 UNK        -0.0205 
     16 S16         2.0490  -20.0931  -49.8543 S.3       23 UNK        -0.2404 
     17 C17         1.4249  -19.9801  -48.1401 C.3       23 UNK        -0.0398 
     18 CA          0.5617  -21.1991  -47.7368 C.3       11 UNK         0.1400 
     19 N           0.4232  -21.2924  -46.2837 N.am      11 UNK        -0.5000 
     20 C          -0.0066  -22.3826  -45.6381 C.2       10 UNK         0.5000 
     21 O          -0.3323  -23.4246  -46.2042 O.2       10 UNK        -0.5000 
     22 CA         -0.1252  -22.2823  -44.1074 C.3       10 UNK         0.1400 
     23 CB          1.2549  -22.3879  -43.4426 C.3       10 UNK        -0.1800 
     24 N          -0.7964  -21.0584  -43.6720 N.am      10 UNK        -0.5000 
     25 C          -2.0700  -20.7566  -43.9622 C.2       9 UNK         0.5000 
     26 O          -2.8157  -21.4908  -44.6114 O.2       9 UNK        -0.5000 
     27 CA         -2.5880  -19.3898  -43.4828 C.3       9 UNK         0.1400 
     28 CB         -2.9358  -19.4318  -41.9876 C.3       9 UNK        -0.1800 
     29 N          -1.6423  -18.3038  -43.7377 N.am      9 UNK        -0.5000 
     30 C          -1.2234  -17.9305  -44.9557 C.2       8 UNK         0.5000 
     31 O          -1.5996  -18.4524  -46.0029 O.2       8 UNK        -0.5000 
     32 CA         -0.1609  -16.8237  -45.0098 C.3       8 UNK         0.1400 
     33 CB         -0.7800  -15.4591  -44.6708 C.3       8 UNK        -0.1800 
     34 N           0.9608  -17.0936  -44.1128 N.am      8 UNK        -0.5000 
     35 C           1.7557  -18.1718  -44.1724 C.2       7 UNK         0.5000 
     36 O           1.6677  -19.0457  -45.0337 O.2       7 UNK        -0.5000 
     37 CA          2.7889  -18.3280  -43.0453 C.3       7 UNK         0.1400 
     38 CB          4.0438  -17.4891  -43.3263 C.3       7 UNK        -0.1800 
     39 N           2.2303  -17.9654  -41.7433 N.am      7 UNK        -0.5000 
     40 C           1.2779  -18.6644  -41.1087 C.2       6 UNK         0.5000 
     41 O           0.7916  -19.7103  -41.5388 O.2       6 UNK        -0.5000 
     42 CA          0.7521  -18.0647  -39.7928 C.3       6 UNK         0.1400 
     43 CB          1.7033  -18.3829  -38.6296 C.3       6 UNK        -0.1800 
     44 N           0.5592  -16.6167  -39.8838 N.am      6 UNK        -0.5000 
     45 C          -0.3676  -16.0289  -40.6533 C.2       5 UNK         0.5000 
     46 O          -1.1829  -16.6504  -41.3347 O.2       5 UNK        -0.5000 
     47 CA         -0.3551  -14.4893  -40.6983 C.3       5 UNK         0.1400 
     48 CB         -1.1948  -13.9100  -39.5502 C.3       5 UNK        -0.1800 
     49 N           0.9923  -13.9120  -40.6552 N.am      5 UNK        -0.5000 
     50 C           1.9295  -14.0993  -41.5937 C.2       4 UNK         0.5000 
     51 O           1.7802  -14.8334  -42.5716 O.2       4 UNK        -0.5000 
     52 CA          3.2762  -13.3944  -41.3744 C.3       4 UNK         0.1400 
     53 CB          4.2924  -14.3620  -40.7490 C.3       4 UNK        -0.1800 
     54 N           3.8114  -12.8934  -42.6377 N.am      4 UNK        -0.5000 
     55 C           3.4367  -11.7552  -43.2309 C.2       3 UNK         0.5000 
     56 O           2.6053  -10.9812  -42.7537 O.2       3 UNK        -0.5000 
     57 CA          4.1183  -11.4015  -44.5679 C.3       3 UNK         0.1400 
     58 CB          5.6247  -11.1313  -44.3842 C.3       3 UNK        -0.1800 
     59 N           3.8739  -12.3610  -45.6500 N.am      3 UNK        -0.5000 
     60 C           4.2375  -13.6494  -45.7445 C.2       2 UNK         0.5000 
     61 O           4.8928  -14.2350  -44.8807 O.2       2 UNK        -0.5000 
     62 CA          3.8500  -14.4114  -47.0359 C.3       2 UNK         0.1400 
     63 CB          3.2591  -15.8011  -46.7280 C.3       2 UNK        -0.1800 
     64 N           2.9865  -13.6690  -47.9686 N.am      2 UNK        -0.5000 
     65 C           1.7289  -13.2504  -47.7624 C.2       1 UNK         0.5000 
     66 O           1.0964  -13.4585  -46.7277 O.2       1 UNK        -0.5000 
     67 C          -0.8052  -21.2414  -48.4589 C.2       11 UNK         0.5000 
     68 O          -0.9015  -21.8463  -49.5251 O.2       11 UNK        -0.5000 
     69 N          -1.8435  -20.6375  -47.8655 N.am      12 UNK        -0.5000 
     70 CA         -3.1972  -20.6352  -48.4116 C.3       12 UNK         0.1400 
     71 CB         -4.0120  -19.4996  -47.7734 C.3       12 UNK        -0.1800 
     72 C          -3.9168  -21.9853  -48.2533 C.2       12 UNK         0.5000 
     73 O          -4.4412  -22.5038  -49.2391 O.2       12 UNK        -0.5000 
     74 N          -3.9706  -22.5117  -47.0231 N.am      13 UNK        -0.5000 
     75 CA         -4.7930  -23.6704  -46.6801 C.3       13 UNK         0.1400 
     76 CB         -5.4839  -23.4294  -45.3270 C.3       13 UNK        -0.1800 
     77 C          -3.9835  -24.9738  -46.6645 C.2       13 UNK         0.5000 
     78 O          -4.3034  -25.8914  -47.4219 O.2       13 UNK        -0.5000 
     79 N          -2.9750  -25.0497  -45.7840 N.am      14 UNK        -0.5000 
     80 CA         -2.2392  -26.2824  -45.4785 C.3       14 UNK         0.1400 
     81 CB         -1.3351  -26.0691  -44.2548 C.3       14 UNK        -0.1800 
     82 C          -1.4349  -26.8377  -46.6669 C.2       14 UNK         0.5000 
     83 O          -1.3666  -28.0563  -46.8368 O.2       14 UNK        -0.5000 
     84 N          -0.8822  -25.9436  -47.4953 N.am      15 UNK        -0.5000 
     85 CA         -0.1703  -26.2510  -48.7364 C.3       15 UNK         0.1400 
     86 CB          0.7396  -25.0644  -49.0943 C.3       15 UNK        -0.1800 
     87 C          -1.1300  -26.6411  -49.8845 C.2       15 UNK         0.5000 
     88 O          -1.1268  -26.0093  -50.9418 O.2       15 UNK        -0.5000 
     89 N          -1.9288  -27.6903  -49.6460 N.am      16 UNK        -0.5000 
     90 CA         -2.8446  -28.3591  -50.5754 C.3       16 UNK         0.1400 
     91 CB         -2.0458  -29.0864  -51.6779 C.3       16 UNK        -0.1800 
     92 C          -3.9597  -27.4524  -51.1414 C.2       16 UNK         0.5000 
     93 O          -4.3540  -27.6257  -52.2963 O.2       16 UNK        -0.5000 
     94 N          -4.4670  -26.5271  -50.3109 N.am      17 UNK        -0.5000 
     95 CA         -5.5669  -25.5969  -50.5923 C.3       17 UNK         0.1400 
     96 CB         -6.9088  -26.3552  -50.6530 C.3       17 UNK        -0.1800 
     97 C          -5.3131  -24.7176  -51.8354 C.2       17 UNK         0.5000 
     98 O          -6.1202  -24.6963  -52.7667 O.2       17 UNK        -0.5000 
     99 N          -4.1835  -23.9995  -51.8212 N.am      18 UNK        -0.5000 
    100 CA        -3.7505  -23.0784  -52.8746 C.3       18 UNK         0.1400 
    101 CB        -2.2569  -22.7764  -52.6896 C.3       18 UNK        -0.1800 
    102 C         -4.5582  -21.7650  -52.9447 C.2       18 UNK         0.5000 
    103 O         -4.3075  -20.9680  -53.8504 O.2       18 UNK        -0.5000 
    104 N         -5.4962  -21.5506  -52.0092 N.am      19 UNK        -0.5000 
    105 CA        -6.4193  -20.4147  -51.8698 C.3       19 UNK         0.1400 
    106 CB        -7.1253  -20.5356  -50.5074 C.3       19 UNK        -0.1800 
    107 C         -7.4225  -20.2260  -53.0355 C.2       19 UNK         0.5000 
    108 O         -8.6233  -20.0644  -52.8107 O.2       19 UNK        -0.5000 
    109 N         -6.8966  -20.2259  -54.2594 N.am      20 UNK        -0.5000 
    110 CA        -7.5530  -19.9758  -55.5373 C.3       20 UNK         0.1400 
    111 CB        -8.5573  -21.0905  -55.8880 C.3       20 UNK        -0.1800 
    112 C         -6.4608  -19.8592  -56.6094 C.2       20 UNK         0.5000 
    113 O         -6.4466  -18.8929  -57.3724 O.2       20 UNK        -0.5000 
    114 N         -5.5259  -20.8219  -56.5995 N.am      21 UNK        -0.5000 
    115 CA        -4.3454  -20.8871  -57.4633 C.3       21 UNK         0.1400 
    116 CB        -3.6129  -22.2137  -57.2080 C.3       21 UNK        -0.1800 
    117 C         -3.3816  -19.6980  -57.2860 C.2       21 UNK         0.5000 
    118 O         -2.7619  -19.2774  -58.2639 O.2       21 UNK        -0.5000 
    119 N         -3.2919  -19.1619  -56.0607 N.am      22 UNK        -0.5000 
    120 CA        -2.5491  -17.9301  -55.7462 C.3       22 UNK         0.1400 
    121 C         -3.1916  -16.6107  -56.2785 C.2       22 UNK         0.5000 
    122 N         -4.3983  -16.6221  -56.8355 N.am      22 UNK        -0.7600 
    123 O         -2.5716  -15.5534  -56.2007 O.2       22 UNK        -0.5000 
    124 C124       -2.1751  -17.8415  -54.2431 C.3       23 UNK        -0.0398 
    125 S125       -3.6048  -17.6754  -53.1168 S.3       23 UNK        -0.2404 
    126 C126       -3.0416  -18.6291  -51.6736 C.3       23 UNK        -0.0205 
    127 H127        0.4953   -8.1559  -47.5389 H         1 UNK         0.0600 
    128 H128        0.2394   -9.0674  -46.0467 H         1 UNK         0.0600 
    129 H129       -0.8801   -9.2551  -47.3997 H         1 UNK         0.0600 
    130 H130       -0.5659  -11.1896  -48.4727 H         1 UNK         0.3000 
    131 H131        1.9139  -12.0489  -49.5186 H         1 UNK         0.0600 
    132 H132        0.0501  -12.7113  -50.7532 H         1 UNK         0.0800 
    133 H133        0.6400  -14.1885  -50.0902 H         1 UNK         0.0800 
    134 H134       -2.3479  -15.3662  -47.8480 H         1 UNK         0.0800 
    135 H135       -0.6436  -15.1274  -47.5965 H         1 UNK         0.0800 
    136 H136       -3.1694  -16.5223  -49.9544 H         1 UNK         0.1150 
    137 H137       -0.3844  -19.2627  -51.7265 H         1 UNK         0.1150 
    138 H138        0.9757  -16.3519  -48.8915 H         1 UNK         0.1150 
    139 H139        2.1726  -18.3490  -51.5089 H         1 UNK         0.0800 
    140 H140        2.5731  -17.7460  -49.9208 H         1 UNK         0.0800 
    141 H141        0.8759  -19.0538  -47.9702 H         1 UNK         0.0800 
    142 H142        2.3036  -19.9225  -47.4966 H         1 UNK         0.0800 
    143 H143        1.1054  -22.0941  -48.0480 H         1 UNK         0.0600 
    144 H144        0.6968  -20.4712  -45.7485 H         1 UNK         0.3000 
    145 H145       -0.7289  -23.1240  -43.7645 H         1 UNK         0.0600 
    146 H146        1.1673  -22.4107  -42.3563 H         1 UNK         0.0600 
    147 H147        1.7662  -23.3020  -43.7470 H         1 UNK         0.0600 
    148 H148        1.8961  -21.5471  -43.7083 H         1 UNK         0.0600 
    149 H149       -0.2530  -20.4170  -43.1026 H         1 UNK         0.3000 
    150 H150       -3.5018  -19.1700  -44.0386 H         1 UNK         0.0600 
    151 H151       -3.6460  -20.2313  -41.7730 H         1 UNK         0.0600 
    152 H152       -3.3914  -18.4959  -41.6637 H         1 UNK         0.0600 
    153 H153       -2.0513  -19.6018  -41.3726 H         1 UNK         0.0600 
    154 H154       -1.2996  -17.8000  -42.9247 H         1 UNK         0.3000 
    155 H155        0.2296  -16.7852  -46.0282 H         1 UNK         0.0600 
    156 H156       -1.5740  -15.2021  -45.3717 H         1 UNK         0.0600 
    157 H157       -0.0350  -14.6654  -44.7127 H         1 UNK         0.0600 
    158 H158       -1.2167  -15.4472  -43.6739 H         1 UNK         0.0600 
    159 H159        1.1548  -16.3861  -43.4082 H         1 UNK         0.3000 
    160 H160        3.0860  -19.3780  -43.0045 H         1 UNK         0.0600 
    161 H161        3.8081  -16.4302  -43.4365 H         1 UNK         0.0600 
    162 H162        4.5263  -17.8134  -44.2487 H         1 UNK         0.0600 
    163 H163        4.7765  -17.5904  -42.5257 H         1 UNK         0.0600 
    164 H164        2.5343  -17.0895  -41.3466 H         1 UNK         0.3000 
    165 H165       -0.2148  -18.5256  -39.5792 H         1 UNK         0.0600 
    166 H166        1.2994  -18.0264  -37.6819 H         1 UNK         0.0600 
    167 H167        1.8541  -19.4590  -38.5332 H         1 UNK         0.0600 
    168 H168        2.6833  -17.9252  -38.7705 H         1 UNK         0.0600 
    169 H169        1.1874  -16.0330  -39.3519 H         1 UNK         0.3000 
    170 H170       -0.8149  -14.1843  -41.6403 H         1 UNK         0.0600 
    171 H171       -2.2105  -14.3077  -39.5705 H         1 UNK         0.0600 
    172 H172       -0.7675  -14.1506  -38.5759 H         1 UNK         0.0600 
    173 H173       -1.2712  -12.8251  -39.6255 H         1 UNK         0.0600 
    174 H174        1.1954  -13.3053  -39.8737 H         1 UNK         0.3000 
    175 H175        3.1335  -12.5548  -40.6907 H         1 UNK         0.0600 
    176 H176        4.4990  -15.2095  -41.4026 H         1 UNK         0.0600 
    177 H177        5.2387  -13.8599  -40.5470 H         1 UNK         0.0600 
    178 H178        3.9266  -14.7579  -39.8008 H         1 UNK         0.0600 
    179 H179        4.4096  -13.5190  -43.1697 H         1 UNK         0.3000 
    180 H180        3.6663  -10.4676  -44.9061 H         1 UNK         0.0600 
    181 H181        6.1680  -12.0203  -44.0633 H         1 UNK         0.0600 
    182 H182        5.7912  -10.3600  -43.6313 H         1 UNK         0.0600 
    183 H183        6.0763  -10.7811  -45.3124 H         1 UNK         0.0600 
    184 H184        3.3161  -11.9886  -46.4083 H         1 UNK         0.3000 
    185 H185        4.7875  -14.5718  -47.5699 H         1 UNK         0.0600 
    186 H186        3.9696  -16.4146  -46.1745 H         1 UNK         0.0600 
    187 H187        2.3575  -15.7229  -46.1233 H         1 UNK         0.0600 
    188 H188        3.0123  -16.3422  -47.6406 H         1 UNK         0.0600 
    189 H189        3.4330  -13.4147  -48.8393 H         1 UNK         0.3000 
    190 H190       -1.6923  -20.0970  -47.0185 H         1 UNK         0.3000 
    191 H191       -3.1289  -20.4326  -49.4810 H         1 UNK         0.0600 
    192 H192       -4.0841  -19.6142  -46.6911 H         1 UNK         0.0600 
    193 H193       -5.0268  -19.4681  -48.1689 H         1 UNK         0.0600 
    194 H194       -3.5565  -18.5302  -47.9756 H         1 UNK         0.0600 
    195 H195       -3.4924  -22.0483  -46.2535 H         1 UNK         0.3000 
    196 H196       -5.5887  -23.7917  -47.4183 H         1 UNK         0.0600 
    197 H197       -6.1265  -24.2704  -45.0632 H         1 UNK         0.0600 
    198 H198       -6.1126  -22.5396  -45.3621 H         1 UNK         0.0600 
    199 H199       -4.7688  -23.2980  -44.5150 H         1 UNK         0.0600 
    200 H200       -2.7381  -24.2294  -45.2449 H         1 UNK         0.3000 
    201 H201       -2.9813  -27.0378  -45.2115 H         1 UNK         0.0600 
    202 H202       -1.8930  -25.6601  -43.4123 H         1 UNK         0.0600 
    203 H203       -0.5067  -25.3964  -44.4731 H         1 UNK         0.0600 
    204 H204       -0.9015  -27.0150  -43.9280 H         1 UNK         0.0600 
    205 H205       -0.9417  -24.9625  -47.2363 H         1 UNK         0.3000 
    206 H206        0.4763  -27.1122  -48.5567 H         1 UNK         0.0600 
    207 H207        1.4205  -24.8256  -48.2771 H         1 UNK         0.0600 
    208 H208        1.3475  -25.2861  -49.9722 H         1 UNK         0.0600 
    209 H209        0.1568  -24.1723  -49.3157 H         1 UNK         0.0600 
    210 H210       -1.8689  -28.0986  -48.7173 H         1 UNK         0.3000 
    211 H211       -3.3571  -29.1231  -49.9892 H         1 UNK         0.0600 
    212 H212       -1.5444  -28.3827  -52.3432 H         1 UNK         0.0600 
    213 H213       -2.6982  -29.7091  -52.2912 H         1 UNK         0.0600 
    214 H214       -1.2873  -29.7412  -51.2490 H         1 UNK         0.0600 
    215 H215       -4.0895  -26.4648  -49.3705 H         1 UNK         0.3000 
    216 H216       -5.6193  -24.9166  -49.7417 H         1 UNK         0.0600 
    217 H217       -7.7432  -25.6626  -50.7693 H         1 UNK         0.0600 
    218 H218       -7.0823  -26.9200  -49.7370 H         1 UNK         0.0600 
    219 H219       -6.9440  -27.0537  -51.4896 H         1 UNK         0.0600 
    220 H220       -3.5954  -24.0455  -51.0001 H         1 UNK         0.3000 
    221 H221       -3.8760  -23.5821  -53.8350 H         1 UNK         0.0600 
    222 H222       -2.0783  -22.2216  -51.7697 H         1 UNK         0.0600 
    223 H223       -1.6665  -23.6922  -52.6511 H         1 UNK         0.0600 
    224 H224       -1.8715  -22.1747  -53.5138 H         1 UNK         0.0600 
    225 H225       -5.5619  -22.2488  -51.2810 H         1 UNK         0.3000 
    226 H226       -5.8208  -19.5052  -51.8489 H         1 UNK         0.0600 
    227 H227       -6.4061  -20.5986  -49.6926 H         1 UNK         0.0600 
    228 H228       -7.7573  -19.6687  -50.3107 H         1 UNK         0.0600 
    229 H229       -7.7571  -21.4236  -50.4624 H         1 UNK         0.0600 
    230 H230       -5.8872  -20.3579  -54.3056 H         1 UNK         0.3000 
    231 H231       -8.0794  -19.0213  -55.4783 H         1 UNK         0.0600 
    232 H232       -9.3914  -21.1116  -55.1870 H         1 UNK         0.0600 
    233 H233       -8.0885  -22.0751  -55.8777 H         1 UNK         0.0600 
    234 H234       -8.9785  -20.9361  -56.8822 H         1 UNK         0.0600 
    235 H235       -5.6150  -21.5666  -55.9243 H         1 UNK         0.3000 
    236 H236       -4.6926  -20.8790  -58.4984 H         1 UNK         0.0600 
    237 H237       -2.7445  -22.3119  -57.8607 H         1 UNK         0.0600 
    238 H238       -3.2590  -22.2860  -56.1787 H         1 UNK         0.0600 
    239 H239       -4.2619  -23.0679  -57.4017 H         1 UNK         0.0600 
    240 H240       -3.7911  -19.5975  -55.2932 H         1 UNK         0.3000 
    241 H241       -1.6002  -18.0039  -56.2811 H         1 UNK         0.0600 
    242 H242       -4.7891  -15.7588  -57.1780 H         1 UNK         0.3800 
    243 H243       -4.9260  -17.4802  -56.9340 H         1 UNK         0.3800 
    244 H244       -1.6078  -18.7316  -53.9686 H         1 UNK         0.0800 
    245 H245       -1.5031  -17.0002  -54.0658 H         1 UNK         0.0800 
    246 H246       -2.7561  -19.6345  -51.9840 H         1 UNK         0.0800 
    247 H247       -3.8779  -18.7461  -50.9853 H         1 UNK         0.0800 
@<TRIPOS>BOND
     1    1    2 1    
     2    1  127 1    
     3    1  128 1    
     4    1  129 1    
     5    2    3 2    
     6    2    4 am   BACKBONE|DICT|INTERRES
     7    4    5 1    
     8    4  130 1    
     9    5    6 1    
    10    5   65 1    
    11    5  131 1    
    12    6    7 1    
    13    6  132 1    
    14    6  133 1    
    15    7    8 1    
    16    8    9 1    
    17    8  134 1    
    18    8  135 1    
    19    9   10 ar   
    20    9   14 ar   
    21   10   11 ar   
    22   10  136 1    
    23   11   12 ar   
    24   11  126 1    
    25   12   13 ar   
    26   12  137 1    
    27   13   14 ar   
    28   13   15 1    
    29   14  138 1    
    30   15   16 1    
    31   15  139 1    
    32   15  140 1    
    33   16   17 1    
    34   17   18 1    
    35   17  141 1    
    36   17  142 1    
    37   18   19 1    
    38   18   67 1    
    39   18  143 1    
    40   19   20 am   BACKBONE|DICT|INTERRES
    41   19  144 1    
    42   20   21 2    
    43   20   22 1    
    44   22   23 1    
    45   22   24 1    
    46   22  145 1    
    47   23  146 1    
    48   23  147 1    
    49   23  148 1    
    50   24   25 am   BACKBONE|DICT|INTERRES
    51   24  149 1    
    52   25   26 2    
    53   25   27 1    
    54   27   28 1    
    55   27   29 1    
    56   27  150 1    
    57   28  151 1    
    58   28  152 1    
    59   28  153 1    
    60   29   30 am   BACKBONE|DICT|INTERRES
    61   29  154 1    
    62   30   31 2    
    63   30   32 1    
    64   32   33 1    
    65   32   34 1    
    66   32  155 1    
    67   33  156 1    
    68   33  157 1    
    69   33  158 1    
    70   34   35 am   BACKBONE|DICT|INTERRES
    71   34  159 1    
    72   35   36 2    
    73   35   37 1    
    74   37   38 1    
    75   37   39 1    
    76   37  160 1    
    77   38  161 1    
    78   38  162 1    
    79   38  163 1    
    80   39   40 am   BACKBONE|DICT|INTERRES
    81   39  164 1    
    82   40   41 2    
    83   40   42 1    
    84   42   43 1    
    85   42   44 1    
    86   42  165 1    
    87   43  166 1    
    88   43  167 1    
    89   43  168 1    
    90   44   45 am   BACKBONE|DICT|INTERRES
    91   44  169 1    
    92   45   46 2    
    93   45   47 1    
    94   47   48 1    
    95   47   49 1    
    96   47  170 1    
    97   48  171 1    
    98   48  172 1    
    99   48  173 1    
   100   49   50 am   BACKBONE|DICT|INTERRES
   101   49  174 1    
   102   50   51 2    
   103   50   52 1    
   104   52   53 1    
   105   52   54 1    
   106   52  175 1    
   107   53  176 1    
   108   53  177 1    
   109   53  178 1    
   110   54   55 am   BACKBONE|DICT|INTERRES
   111   54  179 1    
   112   55   56 2    
   113   55   57 1    
   114   57   58 1    
   115   57   59 1    
   116   57  180 1    
   117   58  181 1    
   118   58  182 1    
   119   58  183 1    
   120   59   60 am   BACKBONE|DICT|INTERRES
   121   59  184 1    
   122   60   61 2    
   123   60   62 1    
   124   62   63 1    
   125   62   64 1    
   126   62  185 1    
   127   63  186 1    
   128   63  187 1    
   129   63  188 1    
   130   64   65 am   BACKBONE|DICT|INTERRES
   131   64  189 1    
   132   65   66 2    
   133   67   68 2    
   134   67   69 am   BACKBONE|DICT|INTERRES
   135   69   70 1    
   136   69  190 1    
   137   70   71 1    
   138   70   72 1    
   139   70  191 1    
   140   71  192 1    
   141   71  193 1    
   142   71  194 1    
   143   72   73 2    
   144   72   74 am   BACKBONE|DICT|INTERRES
   145   74   75 1    
   146   74  195 1    
   147   75   76 1    
   148   75   77 1    
   149   75  196 1    
   150   76  197 1    
   151   76  198 1    
   152   76  199 1    
   153   77   78 2    
   154   77   79 am   BACKBONE|DICT|INTERRES
   155   79   80 1    
   156   79  200 1    
   157   80   81 1    
   158   80   82 1    
   159   80  201 1    
   160   81  202 1    
   161   81  203 1    
   162   81  204 1    
   163   82   83 2    
   164   82   84 am   BACKBONE|DICT|INTERRES
   165   84   85 1    
   166   84  205 1    
   167   85   86 1    
   168   85   87 1    
   169   85  206 1    
   170   86  207 1    
   171   86  208 1    
   172   86  209 1    
   173   87   88 2    
   174   87   89 am   BACKBONE|DICT|INTERRES
   175   89   90 1    
   176   89  210 1    
   177   90   91 1    
   178   90   92 1    
   179   90  211 1    
   180   91  212 1    
   181   91  213 1    
   182   91  214 1    
   183   92   93 2    
   184   92   94 am   BACKBONE|DICT|INTERRES
   185   94   95 1    
   186   94  215 1    
   187   95   96 1    
   188   95   97 1    
   189   95  216 1    
   190   96  217 1    
   191   96  218 1    
   192   96  219 1    
   193   97   98 2    
   194   97   99 am   BACKBONE|DICT|INTERRES
   195   99  100 1    
   196   99  220 1    
   197  100  101 1    
   198  100  102 1    
   199  100  221 1    
   200  101  222 1    
   201  101  223 1    
   202  101  224 1    
   203  102  103 2    
   204  102  104 am   BACKBONE|DICT|INTERRES
   205  104  105 1    
   206  104  225 1    
   207  105  106 1    
   208  105  107 1    
   209  105  226 1    
   210  106  227 1    
   211  106  228 1    
   212  106  229 1    
   213  107  108 2    
   214  107  109 am   BACKBONE|DICT|INTERRES
   215  109  110 1    
   216  109  230 1    
   217  110  111 1    
   218  110  112 1    
   219  110  231 1    
   220  111  232 1    
   221  111  233 1    
   222  111  234 1    
   223  112  113 2    
   224  112  114 am   BACKBONE|DICT|INTERRES
   225  114  115 1    
   226  114  235 1    
   227  115  116 1    
   228  115  117 1    
   229  115  236 1    
   230  116  237 1    
   231  116  238 1    
   232  116  239 1    
   233  117  118 2    
   234  117  119 am   BACKBONE|DICT|INTERRES
   235  119  120 1    
   236  119  240 1    
   237  120  121 1    
   238  120  124 1    
   239  120  241 1    
   240  121  122 am   BACKBONE|DICT|INTERRES
   241  121  123 2    
   242  122  242 1    
   243  122  243 1    
   244  124  125 1    
   245  124  244 1    
   246  124  245 1    
   247  125  126 1    
   248  126  246 1    
   249  126  247 1    
@<TRIPOS>SUBSTRUCTURE
     1 UNK         1 GROUP             0       ****    0 ROOT    
