@<TRIPOS>MOLECULE
3R540
247   249    1
SMALL
USER_CHARGES


@<TRIPOS>ATOM
      1 CA         -4.9054  -14.8767  -48.4421 C.3       0 UNK        -0.1800 
      2 C          -3.7537  -13.9820  -48.8746 C.2       0 UNK         0.5000 
      3 O          -3.9796  -12.8389  -49.2720 O.2       0 UNK        -0.5000 
      4 N          -2.5206  -14.4960  -48.7918 N.am      1 UNK        -0.5000 
      5 CA         -1.2874  -13.7798  -49.1395 C.3       1 UNK         0.1400 
      6 C6         -0.0916  -14.7448  -49.3417 C.3       23 UNK        -0.0398 
      7 S7          0.3013  -15.7612  -47.8714 S.3       23 UNK        -0.2404 
      8 C8         -0.0315  -17.4491  -48.4578 C.3       23 UNK        -0.0205 
      9 C9         -1.5109  -17.7065  -48.6943 C.ar      23 UNK        -0.0193 
     10 C10        -2.0189  -17.7077  -49.9954 C.ar      23 UNK        -0.1150 
     11 C11        -3.3594  -18.0173  -50.2313 C.ar      23 UNK        -0.0193 
     12 C12        -4.2013  -18.3022  -49.1552 C.ar      23 UNK        -0.1150 
     13 C13        -3.7095  -18.2957  -47.8473 C.ar      23 UNK        -0.0193 
     14 C14        -2.3625  -17.9937  -47.6222 C.ar      23 UNK        -0.1150 
     15 C15        -4.6418  -18.6327  -46.6905 C.3       23 UNK        -0.0205 
     16 S16        -4.2243  -20.1913  -45.8373 S.3       23 UNK        -0.2404 
     17 C17        -4.0488  -21.4019  -47.1967 C.3       23 UNK        -0.0398 
     18 CA         -3.0162  -22.5172  -46.8943 C.3       11 UNK         0.1400 
     19 N          -1.7388  -21.9829  -46.4093 N.am      11 UNK        -0.5000 
     20 C          -0.5954  -22.6712  -46.3150 C.2       10 UNK         0.5000 
     21 O          -0.4901  -23.8582  -46.6284 O.2       10 UNK        -0.5000 
     22 CA          0.6162  -21.9301  -45.7186 C.3       10 UNK         0.1400 
     23 CB          1.4051  -21.2326  -46.8352 C.3       10 UNK        -0.1800 
     24 N           0.2924  -20.9616  -44.6601 N.am      10 UNK        -0.5000 
     25 C          -0.3657  -21.2572  -43.5257 C.2       9 UNK         0.5000 
     26 O          -0.8754  -22.3573  -43.3132 O.2       9 UNK        -0.5000 
     27 CA         -0.4668  -20.1799  -42.4255 C.3       9 UNK         0.1400 
     28 CB          0.4684  -20.5287  -41.2571 C.3       9 UNK        -0.1800 
     29 N          -0.1613  -18.8255  -42.8808 N.am      9 UNK        -0.5000 
     30 C          -0.9637  -18.0725  -43.6426 C.2       8 UNK         0.5000 
     31 O          -2.0895  -18.4223  -43.9887 O.2       8 UNK        -0.5000 
     32 CA         -0.4249  -16.7062  -44.1120 C.3       8 UNK         0.1400 
     33 CB         -1.0485  -15.5685  -43.2907 C.3       8 UNK        -0.1800 
     34 N           1.0326  -16.5764  -44.0690 N.am      8 UNK        -0.5000 
     35 C           1.9055  -17.3271  -44.7553 C.2       7 UNK         0.5000 
     36 O           1.5849  -18.2848  -45.4580 O.2       7 UNK        -0.5000 
     37 CA          3.3906  -16.9873  -44.5643 C.3       7 UNK         0.1400 
     38 CB          3.7608  -15.6766  -45.2781 C.3       7 UNK        -0.1800 
     39 N           3.7179  -16.8913  -43.1427 N.am      7 UNK        -0.5000 
     40 C           3.8932  -17.9488  -42.3373 C.2       6 UNK         0.5000 
     41 O           3.8724  -19.1164  -42.7267 O.2       6 UNK        -0.5000 
     42 CA          4.1151  -17.6573  -40.8408 C.3       6 UNK         0.1400 
     43 CB          5.6128  -17.4949  -40.5403 C.3       6 UNK        -0.1800 
     44 N           3.4021  -16.4661  -40.3780 N.am      6 UNK        -0.5000 
     45 C           2.0694  -16.3712  -40.2668 C.2       5 UNK         0.5000 
     46 O           1.2941  -17.2943  -40.5112 O.2       5 UNK        -0.5000 
     47 CA          1.5104  -14.9961  -39.8527 C.3       5 UNK         0.1400 
     48 CB          1.4385  -14.8808  -38.3228 C.3       5 UNK        -0.1800 
     49 N           2.2811  -13.8689  -40.3900 N.am      5 UNK        -0.5000 
     50 C           2.4351  -13.6162  -41.6956 C.2       4 UNK         0.5000 
     51 O           1.9642  -14.3255  -42.5864 O.2       4 UNK        -0.5000 
     52 CA          3.3027  -12.4115  -42.0708 C.3       4 UNK         0.1400 
     53 CB          4.7867  -12.8160  -42.1357 C.3       4 UNK        -0.1800 
     54 N           2.8650  -11.9118  -43.3685 N.am      4 UNK        -0.5000 
     55 C           3.0725  -10.6829  -43.8467 C.2       3 UNK         0.5000 
     56 O           3.6881   -9.8104  -43.2323 O.2       3 UNK        -0.5000 
     57 CA          2.4871  -10.3536  -45.2338 C.3       3 UNK         0.1400 
     58 CB          3.3585  -10.9396  -46.3625 C.3       3 UNK        -0.1800 
     59 N           1.0699  -10.7069  -45.4019 N.am      3 UNK        -0.5000 
     60 C           0.5056  -11.9206  -45.4812 C.2       2 UNK         0.5000 
     61 O           1.1320  -12.9749  -45.3716 O.2       2 UNK        -0.5000 
     62 CA         -1.0205  -11.9828  -45.7161 C.3       2 UNK         0.1400 
     63 CB         -1.7133  -10.6058  -45.8324 C.3       2 UNK        -0.1800 
     64 N          -1.3445  -12.8251  -46.8705 N.am      2 UNK        -0.5000 
     65 C          -0.9337  -12.6567  -48.1383 C.2       1 UNK         0.5000 
     66 O          -0.2976  -11.6789  -48.5357 O.2       1 UNK        -0.5000 
     67 C          -3.6178  -23.6325  -46.0076 C.2       11 UNK         0.5000 
     68 O          -4.4964  -24.3565  -46.4767 O.2       11 UNK        -0.5000 
     69 N          -3.1262  -23.8022  -44.7701 N.am      12 UNK        -0.5000 
     70 CA         -3.4825  -24.9332  -43.9097 C.3       12 UNK         0.1400 
     71 CB         -3.0186  -24.6535  -42.4726 C.3       12 UNK        -0.1800 
     72 C          -2.9004  -26.2702  -44.4139 C.2       12 UNK         0.5000 
     73 O          -3.4747  -27.3206  -44.1245 O.2       12 UNK        -0.5000 
     74 N          -1.7853  -26.2092  -45.1559 N.am      13 UNK        -0.5000 
     75 CA         -1.1079  -27.3633  -45.7445 C.3       13 UNK         0.1400 
     76 CB          0.3921  -27.2809  -45.4187 C.3       13 UNK        -0.1800 
     77 C          -1.3222  -27.4238  -47.2656 C.2       13 UNK         0.5000 
     78 O          -1.5831  -28.5021  -47.7992 O.2       13 UNK        -0.5000 
     79 N          -1.2074  -26.2711  -47.9384 N.am      14 UNK        -0.5000 
     80 CA         -1.2255  -26.1432  -49.3980 C.3       14 UNK         0.1400 
     81 CB         -0.2226  -25.0451  -49.7910 C.3       14 UNK        -0.1800 
     82 C          -2.6286  -25.8799  -49.9876 C.2       14 UNK         0.5000 
     83 O          -2.7283  -25.5762  -51.1784 O.2       14 UNK        -0.5000 
     84 N          -3.6760  -25.9964  -49.1578 N.am      15 UNK        -0.5000 
     85 CA         -5.0956  -25.7484  -49.4469 C.3       15 UNK         0.1400 
     86 CB         -5.5940  -26.6334  -50.6098 C.3       15 UNK        -0.1800 
     87 C          -5.4145  -24.2562  -49.6744 C.2       15 UNK         0.5000 
     88 O          -4.5160  -23.4153  -49.6566 O.2       15 UNK        -0.5000 
     89 N          -6.7025  -23.9399  -49.8679 N.am      16 UNK        -0.5000 
     90 CA         -7.2417  -22.5750  -49.9445 C.3       16 UNK         0.1400 
     91 CB         -8.7688  -22.6513  -50.0935 C.3       16 UNK        -0.1800 
     92 C          -6.6394  -21.6850  -51.0517 C.2       16 UNK         0.5000 
     93 O          -6.6142  -20.4651  -50.8939 O.2       16 UNK        -0.5000 
     94 N          -6.1578  -22.3042  -52.1372 N.am      17 UNK        -0.5000 
     95 CA         -5.4569  -21.6339  -53.2345 C.3       17 UNK         0.1400 
     96 CB         -5.6392  -22.4659  -54.5137 C.3       17 UNK        -0.1800 
     97 C          -3.9551  -21.4201  -52.9579 C.2       17 UNK         0.5000 
     98 O          -3.3157  -20.6912  -53.7187 O.2       17 UNK        -0.5000 
     99 N          -3.4231  -22.0721  -51.9094 N.am      18 UNK        -0.5000 
    100 CA        -2.0105  -22.2119  -51.5426 C.3       18 UNK         0.1400 
    101 CB        -1.4721  -20.9347  -50.8837 C.3       18 UNK        -0.1800 
    102 C         -1.1769  -22.6891  -52.7434 C.2       18 UNK         0.5000 
    103 O         -0.3857  -21.9272  -53.3036 O.2       18 UNK        -0.5000 
    104 N         -1.4737  -23.9232  -53.1711 N.am      19 UNK        -0.5000 
    105 CA        -1.1177  -24.5500  -54.4445 C.3       19 UNK         0.1400 
    106 CB         0.4085  -24.6858  -54.6243 C.3       19 UNK        -0.1800 
    107 C         -1.8054  -23.8364  -55.6236 C.2       19 UNK         0.5000 
    108 O         -2.7722  -24.3689  -56.1696 O.2       19 UNK        -0.5000 
    109 N         -1.3224  -22.6370  -55.9643 N.am      20 UNK        -0.5000 
    110 CA        -1.8728  -21.7550  -56.9920 C.3       20 UNK         0.1400 
    111 CB        -1.5523  -22.3058  -58.3987 C.3       20 UNK        -0.1800 
    112 C         -1.3815  -20.3055  -56.8031 C.2       20 UNK         0.5000 
    113 O         -1.2625  -19.5738  -57.7878 O.2       20 UNK        -0.5000 
    114 N         -1.0718  -19.9071  -55.5592 N.am      21 UNK        -0.5000 
    115 CA        -0.5881  -18.5623  -55.2343 C.3       21 UNK         0.1400 
    116 CB         0.0387  -18.5566  -53.8332 C.3       21 UNK        -0.1800 
    117 C         -1.6914  -17.4933  -55.3364 C.2       21 UNK         0.5000 
    118 O         -1.4071  -16.3755  -55.7694 O.2       21 UNK        -0.5000 
    119 N         -2.9218  -17.8565  -54.9548 N.am      22 UNK        -0.5000 
    120 CA        -4.1197  -17.0221  -55.1226 C.3       22 UNK         0.1400 
    121 C         -4.8275  -17.3819  -56.4548 C.2       22 UNK         0.5000 
    122 N         -5.2422  -16.3929  -57.2344 N.am      22 UNK        -0.7600 
    123 O         -5.0403  -18.5511  -56.7692 O.2       22 UNK        -0.5000 
    124 C124       -5.1039  -17.1614  -53.9342 C.3       23 UNK        -0.0398 
    125 S125       -4.4177  -16.5567  -52.3517 S.3       23 UNK        -0.2404 
    126 C126       -3.8760  -18.1376  -51.6514 C.3       23 UNK        -0.0205 
    127 H127       -5.7188  -14.2802  -48.0291 H         1 UNK         0.0600 
    128 H128       -4.5888  -15.5849  -47.6772 H         1 UNK         0.0600 
    129 H129       -5.2884  -15.4354  -49.2962 H         1 UNK         0.0600 
    130 H130       -2.3962  -15.4521  -48.4863 H         1 UNK         0.3000 
    131 H131       -1.4636  -13.2890  -50.0993 H         1 UNK         0.0600 
    132 H132       -0.2902  -15.3946  -50.1938 H         1 UNK         0.0800 
    133 H133        0.8045  -14.1847  -49.6149 H         1 UNK         0.0800 
    134 H134        0.3349  -18.1550  -47.7142 H         1 UNK         0.0800 
    135 H135        0.5466  -17.6410  -49.3631 H         1 UNK         0.0800 
    136 H136       -1.3638  -17.5085  -50.8317 H         1 UNK         0.1150 
    137 H137       -5.2355  -18.5564  -49.3419 H         1 UNK         0.1150 
    138 H138       -1.9738  -18.0077  -46.6149 H         1 UNK         0.1150 
    139 H139       -4.6097  -17.8201  -45.9635 H         1 UNK         0.0800 
    140 H140       -5.6753  -18.6920  -47.0351 H         1 UNK         0.0800 
    141 H141       -5.0306  -21.8181  -47.4277 H         1 UNK         0.0800 
    142 H142       -3.7360  -20.8941  -48.1074 H         1 UNK         0.0800 
    143 H143       -2.7865  -23.0048  -47.8430 H         1 UNK         0.0600 
    144 H144       -1.7585  -21.0264  -46.0835 H         1 UNK         0.3000 
    145 H145        1.2636  -22.6867  -45.2712 H         1 UNK         0.0600 
    146 H146        2.3243  -20.7889  -46.4524 H         1 UNK         0.0600 
    147 H147        1.6871  -21.9393  -47.6170 H         1 UNK         0.0600 
    148 H148        0.8193  -20.4419  -47.3040 H         1 UNK         0.0600 
    149 H149        0.6754  -20.0285  -44.7738 H         1 UNK         0.3000 
    150 H150       -1.4935  -20.1944  -42.0541 H         1 UNK         0.0600 
    151 H151        0.2777  -21.5367  -40.8863 H         1 UNK         0.0600 
    152 H152        0.3237  -19.8460  -40.4199 H         1 UNK         0.0600 
    153 H153        1.5170  -20.4791  -41.5535 H         1 UNK         0.0600 
    154 H154        0.7273  -18.4376  -42.5947 H         1 UNK         0.3000 
    155 H155       -0.7301  -16.5788  -45.1513 H         1 UNK         0.0600 
    156 H156       -0.7736  -15.6412  -42.2381 H         1 UNK         0.0600 
    157 H157       -2.1372  -15.5911  -43.3511 H         1 UNK         0.0600 
    158 H158       -0.7208  -14.5951  -43.6556 H         1 UNK         0.0600 
    159 H159        1.3919  -15.7966  -43.5218 H         1 UNK         0.3000 
    160 H160        3.9812  -17.7901  -45.0111 H         1 UNK         0.0600 
    161 H161        3.2157  -14.8221  -44.8772 H         1 UNK         0.0600 
    162 H162        3.5291  -15.7365  -46.3423 H         1 UNK         0.0600 
    163 H163        4.8262  -15.4653  -45.1872 H         1 UNK         0.0600 
    164 H164        3.6843  -15.9694  -42.7328 H         1 UNK         0.3000 
    165 H165        3.7441  -18.5165  -40.2776 H         1 UNK         0.0600 
    166 H166        5.7890  -17.3630  -39.4725 H         1 UNK         0.0600 
    167 H167        6.1717  -18.3776  -40.8540 H         1 UNK         0.0600 
    168 H168        6.0376  -16.6352  -41.0603 H         1 UNK         0.0600 
    169 H169        3.9617  -15.6576  -40.1516 H         1 UNK         0.3000 
    170 H170        0.4950  -14.9226  -40.2469 H         1 UNK         0.0600 
    171 H171        0.8530  -15.6970  -37.8973 H         1 UNK         0.0600 
    172 H172        2.4294  -14.9159  -37.8684 H         1 UNK         0.0600 
    173 H173        0.9618  -13.9486  -38.0192 H         1 UNK         0.0600 
    174 H174        2.7074  -13.2511  -39.7142 H         1 UNK         0.3000 
    175 H175        3.1628  -11.6330  -41.3179 H         1 UNK         0.0600 
    176 H176        4.9606  -13.5806  -42.8941 H         1 UNK         0.0600 
    177 H177        5.4207  -11.9617  -42.3729 H         1 UNK         0.0600 
    178 H178        5.1286  -13.2151  -41.1800 H         1 UNK         0.0600 
    179 H179        2.3124  -12.5658  -43.9220 H         1 UNK         0.3000 
    180 H180        2.5247   -9.2677  -45.3343 H         1 UNK         0.0600 
    181 H181        3.4102  -12.0279  -46.3191 H         1 UNK         0.0600 
    182 H182        4.3806  -10.5650  -46.2967 H         1 UNK         0.0600 
    183 H183        2.9719  -10.6618  -47.3432 H         1 UNK         0.0600 
    184 H184        0.4496   -9.9139  -45.4852 H         1 UNK         0.3000 
    185 H185       -1.4386  -12.4859  -44.8434 H         1 UNK         0.0600 
    186 H186       -1.5784  -10.0174  -44.9240 H         1 UNK         0.0600 
    187 H187       -1.3346  -10.0206  -46.6709 H         1 UNK         0.0600 
    188 H188       -2.7874  -10.7247  -45.9760 H         1 UNK         0.0600 
    189 H189       -1.8308  -13.6840  -46.6595 H         1 UNK         0.3000 
    190 H190       -2.3984  -23.1827  -44.4284 H         1 UNK         0.3000 
    191 H191       -4.5706  -25.0258  -43.9005 H         1 UNK         0.0600 
    192 H192       -1.9311  -24.6213  -42.3996 H         1 UNK         0.0600 
    193 H193       -3.3672  -25.4326  -41.7936 H         1 UNK         0.0600 
    194 H194       -3.4090  -23.7036  -42.1070 H         1 UNK         0.0600 
    195 H195       -1.3930  -25.2996  -45.3677 H         1 UNK         0.3000 
    196 H196       -1.4913  -28.2927  -45.3182 H         1 UNK         0.0600 
    197 H197        0.9327  -28.1251  -45.8486 H         1 UNK         0.0600 
    198 H198        0.5608  -27.3013  -44.3420 H         1 UNK         0.0600 
    199 H199        0.8426  -26.3675  -45.8097 H         1 UNK         0.0600 
    200 H200       -0.9754  -25.4225  -47.4267 H         1 UNK         0.3000 
    201 H201       -0.8756  -27.0765  -49.8439 H         1 UNK         0.0600 
    202 H202        0.7747  -25.2760  -49.4162 H         1 UNK         0.0600 
    203 H203       -0.5082  -24.0745  -49.3858 H         1 UNK         0.0600 
    204 H204       -0.1398  -24.9497  -50.8735 H         1 UNK         0.0600 
    205 H205       -3.4684  -26.1971  -48.1903 H         1 UNK         0.3000 
    206 H206       -5.6336  -26.0451  -48.5454 H         1 UNK         0.0600 
    207 H207       -5.2943  -27.6721  -50.4703 H         1 UNK         0.0600 
    208 H208       -6.6820  -26.6222  -50.6776 H         1 UNK         0.0600 
    209 H209       -5.2071  -26.3003  -51.5732 H         1 UNK         0.0600 
    210 H210       -7.3854  -24.6835  -49.8774 H         1 UNK         0.3000 
    211 H211       -7.0196  -22.0881  -48.9929 H         1 UNK         0.0600 
    212 H212       -9.0574  -23.1676  -51.0099 H         1 UNK         0.0600 
    213 H213       -9.2097  -21.6540  -50.1259 H         1 UNK         0.0600 
    214 H214       -9.2226  -23.1769  -49.2531 H         1 UNK         0.0600 
    215 H215       -6.2250  -23.3103  -52.1846 H         1 UNK         0.3000 
    216 H216       -5.9038  -20.6519  -53.4017 H         1 UNK         0.0600 
    217 H217       -5.1685  -21.9775  -55.3683 H         1 UNK         0.0600 
    218 H218       -6.6944  -22.5936  -54.7556 H         1 UNK         0.0600 
    219 H219       -5.1921  -23.4564  -54.4176 H         1 UNK         0.0600 
    220 H220       -4.0504  -22.5987  -51.3084 H         1 UNK         0.3000 
    221 H221       -1.9713  -22.9967  -50.7901 H         1 UNK         0.0600 
    222 H222       -1.5316  -20.0865  -51.5582 H         1 UNK         0.0600 
    223 H223       -2.0366  -20.6921  -49.9836 H         1 UNK         0.0600 
    224 H224       -0.4280  -21.0525  -50.5922 H         1 UNK         0.0600 
    225 H225       -2.1222  -24.4642  -52.6026 H         1 UNK         0.3000 
    226 H226       -1.5282  -25.5602  -54.4031 H         1 UNK         0.0600 
    227 H227        0.8482  -25.2512  -53.8026 H         1 UNK         0.0600 
    228 H228        0.6411  -25.2196  -55.5464 H         1 UNK         0.0600 
    229 H229        0.9162  -23.7228  -54.6720 H         1 UNK         0.0600 
    230 H230       -0.5682  -22.2564  -55.4034 H         1 UNK         0.3000 
    231 H231       -2.9575  -21.7244  -56.8702 H         1 UNK         0.0600 
    232 H232       -1.9883  -21.6791  -59.1776 H         1 UNK         0.0600 
    233 H233       -1.9542  -23.3086  -58.5409 H         1 UNK         0.0600 
    234 H234       -0.4767  -22.3490  -58.5726 H         1 UNK         0.0600 
    235 H235       -1.2499  -20.5253  -54.7746 H         1 UNK         0.3000 
    236 H236        0.1958  -18.3030  -55.9493 H         1 UNK         0.0600 
    237 H237        0.8018  -19.3286  -53.7332 H         1 UNK         0.0600 
    238 H238        0.5131  -17.5972  -53.6239 H         1 UNK         0.0600 
    239 H239       -0.7118  -18.7208  -53.0634 H         1 UNK         0.0600 
    240 H240       -3.0762  -18.8130  -54.6543 H         1 UNK         0.3000 
    241 H241       -3.8226  -15.9724  -55.1701 H         1 UNK         0.0600 
    242 H242       -5.7165  -16.6156  -58.0959 H         1 UNK         0.3800 
    243 H243       -5.0847  -15.4260  -56.9940 H         1 UNK         0.3800 
    244 H244       -6.0067  -16.5795  -54.1284 H         1 UNK         0.0800 
    245 H245       -5.4357  -18.1954  -53.8283 H         1 UNK         0.0800 
    246 H246       -3.0911  -18.5450  -52.2852 H         1 UNK         0.0800 
    247 H247       -4.7015  -18.8478  -51.6806 H         1 UNK         0.0800 
@<TRIPOS>BOND
     1    1    2 1    
     2    1  127 1    
     3    1  128 1    
     4    1  129 1    
     5    2    3 2    
     6    2    4 am   BACKBONE|DICT|INTERRES
     7    4    5 1    
     8    4  130 1    
     9    5    6 1    
    10    5   65 1    
    11    5  131 1    
    12    6    7 1    
    13    6  132 1    
    14    6  133 1    
    15    7    8 1    
    16    8    9 1    
    17    8  134 1    
    18    8  135 1    
    19    9   10 ar   
    20    9   14 ar   
    21   10   11 ar   
    22   10  136 1    
    23   11   12 ar   
    24   11  126 1    
    25   12   13 ar   
    26   12  137 1    
    27   13   14 ar   
    28   13   15 1    
    29   14  138 1    
    30   15   16 1    
    31   15  139 1    
    32   15  140 1    
    33   16   17 1    
    34   17   18 1    
    35   17  141 1    
    36   17  142 1    
    37   18   19 1    
    38   18   67 1    
    39   18  143 1    
    40   19   20 am   BACKBONE|DICT|INTERRES
    41   19  144 1    
    42   20   21 2    
    43   20   22 1    
    44   22   23 1    
    45   22   24 1    
    46   22  145 1    
    47   23  146 1    
    48   23  147 1    
    49   23  148 1    
    50   24   25 am   BACKBONE|DICT|INTERRES
    51   24  149 1    
    52   25   26 2    
    53   25   27 1    
    54   27   28 1    
    55   27   29 1    
    56   27  150 1    
    57   28  151 1    
    58   28  152 1    
    59   28  153 1    
    60   29   30 am   BACKBONE|DICT|INTERRES
    61   29  154 1    
    62   30   31 2    
    63   30   32 1    
    64   32   33 1    
    65   32   34 1    
    66   32  155 1    
    67   33  156 1    
    68   33  157 1    
    69   33  158 1    
    70   34   35 am   BACKBONE|DICT|INTERRES
    71   34  159 1    
    72   35   36 2    
    73   35   37 1    
    74   37   38 1    
    75   37   39 1    
    76   37  160 1    
    77   38  161 1    
    78   38  162 1    
    79   38  163 1    
    80   39   40 am   BACKBONE|DICT|INTERRES
    81   39  164 1    
    82   40   41 2    
    83   40   42 1    
    84   42   43 1    
    85   42   44 1    
    86   42  165 1    
    87   43  166 1    
    88   43  167 1    
    89   43  168 1    
    90   44   45 am   BACKBONE|DICT|INTERRES
    91   44  169 1    
    92   45   46 2    
    93   45   47 1    
    94   47   48 1    
    95   47   49 1    
    96   47  170 1    
    97   48  171 1    
    98   48  172 1    
    99   48  173 1    
   100   49   50 am   BACKBONE|DICT|INTERRES
   101   49  174 1    
   102   50   51 2    
   103   50   52 1    
   104   52   53 1    
   105   52   54 1    
   106   52  175 1    
   107   53  176 1    
   108   53  177 1    
   109   53  178 1    
   110   54   55 am   BACKBONE|DICT|INTERRES
   111   54  179 1    
   112   55   56 2    
   113   55   57 1    
   114   57   58 1    
   115   57   59 1    
   116   57  180 1    
   117   58  181 1    
   118   58  182 1    
   119   58  183 1    
   120   59   60 am   BACKBONE|DICT|INTERRES
   121   59  184 1    
   122   60   61 2    
   123   60   62 1    
   124   62   63 1    
   125   62   64 1    
   126   62  185 1    
   127   63  186 1    
   128   63  187 1    
   129   63  188 1    
   130   64   65 am   BACKBONE|DICT|INTERRES
   131   64  189 1    
   132   65   66 2    
   133   67   68 2    
   134   67   69 am   BACKBONE|DICT|INTERRES
   135   69   70 1    
   136   69  190 1    
   137   70   71 1    
   138   70   72 1    
   139   70  191 1    
   140   71  192 1    
   141   71  193 1    
   142   71  194 1    
   143   72   73 2    
   144   72   74 am   BACKBONE|DICT|INTERRES
   145   74   75 1    
   146   74  195 1    
   147   75   76 1    
   148   75   77 1    
   149   75  196 1    
   150   76  197 1    
   151   76  198 1    
   152   76  199 1    
   153   77   78 2    
   154   77   79 am   BACKBONE|DICT|INTERRES
   155   79   80 1    
   156   79  200 1    
   157   80   81 1    
   158   80   82 1    
   159   80  201 1    
   160   81  202 1    
   161   81  203 1    
   162   81  204 1    
   163   82   83 2    
   164   82   84 am   BACKBONE|DICT|INTERRES
   165   84   85 1    
   166   84  205 1    
   167   85   86 1    
   168   85   87 1    
   169   85  206 1    
   170   86  207 1    
   171   86  208 1    
   172   86  209 1    
   173   87   88 2    
   174   87   89 am   BACKBONE|DICT|INTERRES
   175   89   90 1    
   176   89  210 1    
   177   90   91 1    
   178   90   92 1    
   179   90  211 1    
   180   91  212 1    
   181   91  213 1    
   182   91  214 1    
   183   92   93 2    
   184   92   94 am   BACKBONE|DICT|INTERRES
   185   94   95 1    
   186   94  215 1    
   187   95   96 1    
   188   95   97 1    
   189   95  216 1    
   190   96  217 1    
   191   96  218 1    
   192   96  219 1    
   193   97   98 2    
   194   97   99 am   BACKBONE|DICT|INTERRES
   195   99  100 1    
   196   99  220 1    
   197  100  101 1    
   198  100  102 1    
   199  100  221 1    
   200  101  222 1    
   201  101  223 1    
   202  101  224 1    
   203  102  103 2    
   204  102  104 am   BACKBONE|DICT|INTERRES
   205  104  105 1    
   206  104  225 1    
   207  105  106 1    
   208  105  107 1    
   209  105  226 1    
   210  106  227 1    
   211  106  228 1    
   212  106  229 1    
   213  107  108 2    
   214  107  109 am   BACKBONE|DICT|INTERRES
   215  109  110 1    
   216  109  230 1    
   217  110  111 1    
   218  110  112 1    
   219  110  231 1    
   220  111  232 1    
   221  111  233 1    
   222  111  234 1    
   223  112  113 2    
   224  112  114 am   BACKBONE|DICT|INTERRES
   225  114  115 1    
   226  114  235 1    
   227  115  116 1    
   228  115  117 1    
   229  115  236 1    
   230  116  237 1    
   231  116  238 1    
   232  116  239 1    
   233  117  118 2    
   234  117  119 am   BACKBONE|DICT|INTERRES
   235  119  120 1    
   236  119  240 1    
   237  120  121 1    
   238  120  124 1    
   239  120  241 1    
   240  121  122 am   BACKBONE|DICT|INTERRES
   241  121  123 2    
   242  122  242 1    
   243  122  243 1    
   244  124  125 1    
   245  124  244 1    
   246  124  245 1    
   247  125  126 1    
   248  126  246 1    
   249  126  247 1    
@<TRIPOS>SUBSTRUCTURE
     1 UNK         1 GROUP             0       ****    0 ROOT    
