@<TRIPOS>MOLECULE
3R540
247   249    1
SMALL
USER_CHARGES


@<TRIPOS>ATOM
      1 CA          1.3007  -11.9521  -49.1041 C.3       0 UNK        -0.1800 
      2 C           1.0857  -13.4253  -49.4420 C.2       0 UNK         0.5000 
      3 O          -0.0578  -13.8684  -49.5000 O.2       0 UNK        -0.5000 
      4 N           2.1385  -14.2190  -49.6810 N.am      1 UNK        -0.5000 
      5 CA          3.5568  -13.8272  -49.6796 C.3       1 UNK         0.1400 
      6 C6          4.4138  -14.7597  -50.5691 C.3       23 UNK        -0.0398 
      7 S7          3.8129  -14.8145  -52.2901 S.3       23 UNK        -0.2404 
      8 C8          3.7823  -16.6087  -52.6098 C.3       23 UNK        -0.0205 
      9 C9          2.7791  -17.3872  -51.7620 C.ar      23 UNK        -0.0193 
     10 C10         1.4560  -16.9532  -51.6219 C.ar      23 UNK        -0.1150 
     11 C11         0.5190  -17.7334  -50.9364 C.ar      23 UNK        -0.0193 
     12 C12         0.9155  -18.9523  -50.3790 C.ar      23 UNK        -0.1150 
     13 C13         2.2355  -19.3945  -50.5021 C.ar      23 UNK        -0.0193 
     14 C14         3.1626  -18.6024  -51.1854 C.ar      23 UNK        -0.1150 
     15 C15         2.6402  -20.7679  -49.9839 C.3       23 UNK        -0.0205 
     16 S16         3.3250  -20.7400  -48.2925 S.3       23 UNK        -0.2404 
     17 C17         1.8613  -20.4204  -47.2493 C.3       23 UNK        -0.0398 
     18 CA          1.1374  -21.7038  -46.7619 C.3       11 UNK         0.1400 
     19 N           0.3249  -21.4502  -45.5672 N.am      11 UNK        -0.5000 
     20 C          -0.3528  -22.3776  -44.8740 C.2       10 UNK         0.5000 
     21 O          -0.3002  -23.5843  -45.1115 O.2       10 UNK        -0.5000 
     22 CA         -1.2934  -21.8666  -43.7655 C.3       10 UNK         0.1400 
     23 CB         -0.5218  -21.6034  -42.4643 C.3       10 UNK        -0.1800 
     24 N          -2.0316  -20.6649  -44.1641 N.am      10 UNK        -0.5000 
     25 C          -2.9350  -20.6315  -45.1551 C.2       9 UNK         0.5000 
     26 O          -3.2830  -21.6248  -45.7891 O.2       9 UNK        -0.5000 
     27 CA         -3.5118  -19.2598  -45.5457 C.3       9 UNK         0.1400 
     28 CB         -4.6658  -18.8619  -44.6143 C.3       9 UNK        -0.1800 
     29 N          -2.4963  -18.2090  -45.5597 N.am      9 UNK        -0.5000 
     30 C          -1.4447  -18.1796  -46.3906 C.2       8 UNK         0.5000 
     31 O          -1.2608  -19.0016  -47.2884 O.2       8 UNK        -0.5000 
     32 CA         -0.3899  -17.0885  -46.1316 C.3       8 UNK         0.1400 
     33 CB         -0.8102  -15.7549  -46.7624 C.3       8 UNK        -0.1800 
     34 N          -0.1286  -16.9010  -44.7028 N.am      8 UNK        -0.5000 
     35 C           0.4328  -17.8264  -43.9116 C.2       7 UNK         0.5000 
     36 O           0.8461  -18.9089  -44.3234 O.2       7 UNK        -0.5000 
     37 CA          0.4911  -17.5203  -42.4043 C.3       7 UNK         0.1400 
     38 CB          1.7373  -16.7023  -42.0370 C.3       7 UNK        -0.1800 
     39 N          -0.7081  -16.8232  -41.9442 N.am      7 UNK        -0.5000 
     40 C          -1.9103  -17.4016  -41.8187 C.2       6 UNK         0.5000 
     41 O          -2.1187  -18.5946  -42.0365 O.2       6 UNK        -0.5000 
     42 CA         -3.0806  -16.4816  -41.4253 C.3       6 UNK         0.1400 
     43 CB         -3.1510  -16.3182  -39.8999 C.3       6 UNK        -0.1800 
     44 N          -2.9888  -15.1611  -42.0509 N.am      6 UNK        -0.5000 
     45 C          -3.1004  -14.9389  -43.3683 C.2       5 UNK         0.5000 
     46 O          -3.3407  -15.8217  -44.1899 O.2       5 UNK        -0.5000 
     47 CA         -2.8477  -13.4997  -43.8537 C.3       5 UNK         0.1400 
     48 CB         -4.1474  -12.6825  -43.8192 C.3       5 UNK        -0.1800 
     49 N          -1.8141  -12.8055  -43.0804 N.am      5 UNK        -0.5000 
     50 C          -0.5289  -13.1774  -43.0251 C.2       4 UNK         0.5000 
     51 O          -0.0714  -14.1604  -43.6147 O.2       4 UNK        -0.5000 
     52 CA          0.3792  -12.3476  -42.1115 C.3       4 UNK         0.1400 
     53 CB          0.2948  -12.8523  -40.6609 C.3       4 UNK        -0.1800 
     54 N           1.7552  -12.4543  -42.5816 N.am      4 UNK        -0.5000 
     55 C           2.6710  -11.4812  -42.5193 C.2       3 UNK         0.5000 
     56 O           2.4546  -10.3790  -42.0128 O.2       3 UNK        -0.5000 
     57 CA          4.0703  -11.7728  -43.1032 C.3       3 UNK         0.1400 
     58 CB          5.1023  -11.9120  -41.9723 C.3       3 UNK        -0.1800 
     59 N           4.1475  -12.9665  -43.9511 N.am      3 UNK        -0.5000 
     60 C           3.6003  -13.0872  -45.1667 C.2       2 UNK         0.5000 
     61 O           2.9131  -12.2110  -45.6966 O.2       2 UNK        -0.5000 
     62 CA          3.8509  -14.4309  -45.8799 C.3       2 UNK         0.1400 
     63 CB          3.0692  -15.5605  -45.1974 C.3       2 UNK        -0.1800 
     64 N           3.4673  -14.3948  -47.2885 N.am      2 UNK        -0.5000 
     65 C           4.1527  -13.7746  -48.2569 C.2       1 UNK         0.5000 
     66 O           5.2196  -13.1880  -48.0692 O.2       1 UNK        -0.5000 
     67 C           0.2910  -22.3396  -47.8841 C.2       11 UNK         0.5000 
     68 O           0.6812  -23.3682  -48.4374 O.2       11 UNK        -0.5000 
     69 N          -0.8709  -21.7360  -48.1708 N.am      12 UNK        -0.5000 
     70 CA         -1.8324  -22.2272  -49.1545 C.3       12 UNK         0.1400 
     71 CB         -2.9538  -21.2003  -49.3357 C.3       12 UNK        -0.1800 
     72 C          -2.4095  -23.6040  -48.7844 C.2       12 UNK         0.5000 
     73 O          -2.4867  -24.4725  -49.6498 O.2       12 UNK        -0.5000 
     74 N          -2.7573  -23.8026  -47.5054 N.am      13 UNK        -0.5000 
     75 CA         -3.2556  -25.0693  -46.9676 C.3       13 UNK         0.1400 
     76 CB         -3.7071  -24.8789  -45.5125 C.3       13 UNK        -0.1800 
     77 C          -2.2286  -26.2103  -47.0766 C.2       13 UNK         0.5000 
     78 O          -2.6055  -27.3262  -47.4338 O.2       13 UNK        -0.5000 
     79 N          -0.9459  -25.9050  -46.8315 N.am      14 UNK        -0.5000 
     80 CA          0.1779  -26.8255  -47.0283 C.3       14 UNK         0.1400 
     81 CB          1.4516  -26.2173  -46.4223 C.3       14 UNK        -0.1800 
     82 C           0.3970  -27.2023  -48.5085 C.2       14 UNK         0.5000 
     83 O           0.8098  -28.3266  -48.7938 O.2       14 UNK        -0.5000 
     84 N           0.0769  -26.2751  -49.4210 N.am      15 UNK        -0.5000 
     85 CA          0.0647  -26.4795  -50.8715 C.3       15 UNK         0.1400 
     86 CB          0.3137  -25.1269  -51.5609 C.3       15 UNK        -0.1800 
     87 C          -1.2386  -27.1342  -51.3866 C.2       15 UNK         0.5000 
     88 O          -1.3408  -27.3918  -52.5868 O.2       15 UNK        -0.5000 
     89 N          -2.2020  -27.3903  -50.4869 N.am      16 UNK        -0.5000 
     90 CA         -3.5380  -27.9480  -50.7240 C.3       16 UNK         0.1400 
     91 CB         -3.4475  -29.3978  -51.2453 C.3       16 UNK        -0.1800 
     92 C          -4.4362  -27.0399  -51.5929 C.2       16 UNK         0.5000 
     93 O          -5.2218  -27.5390  -52.4015 O.2       16 UNK        -0.5000 
     94 N          -4.3104  -25.7225  -51.4030 N.am      17 UNK        -0.5000 
     95 CA         -5.0668  -24.6786  -52.0874 C.3       17 UNK         0.1400 
     96 CB         -4.0681  -23.8008  -52.8578 C.3       17 UNK        -0.1800 
     97 C          -5.8475  -23.8244  -51.0740 C.2       17 UNK         0.5000 
     98 O          -5.6005  -23.8965  -49.8678 O.2       17 UNK        -0.5000 
     99 N          -6.7670  -23.0013  -51.5916 N.am      18 UNK        -0.5000 
    100 CA        -7.4362  -21.9396  -50.8396 C.3       18 UNK         0.1400 
    101 CB        -8.6888  -21.4982  -51.6122 C.3       18 UNK        -0.1800 
    102 C         -6.4889  -20.7431  -50.6391 C.2       18 UNK         0.5000 
    103 O         -5.6140  -20.5135  -51.4775 O.2       18 UNK        -0.5000 
    104 N         -6.7075  -19.9668  -49.5700 N.am      19 UNK        -0.5000 
    105 CA        -5.8846  -18.8122  -49.1833 C.3       19 UNK         0.1400 
    106 CB        -6.4144  -18.2401  -47.8601 C.3       19 UNK        -0.1800 
    107 C         -5.7868  -17.7027  -50.2502 C.2       19 UNK         0.5000 
    108 O         -4.7638  -17.0236  -50.3229 O.2       19 UNK        -0.5000 
    109 N         -6.8408  -17.5536  -51.0632 N.am      20 UNK        -0.5000 
    110 CA        -6.8918  -16.6214  -52.1902 C.3       20 UNK         0.1400 
    111 CB        -8.3587  -16.2372  -52.4409 C.3       20 UNK        -0.1800 
    112 C         -6.2631  -17.1935  -53.4774 C.2       20 UNK         0.5000 
    113 O         -5.9206  -16.4175  -54.3705 O.2       20 UNK        -0.5000 
    114 N         -6.1481  -18.5255  -53.5701 N.am      21 UNK        -0.5000 
    115 CA        -5.6125  -19.2351  -54.7324 C.3       21 UNK         0.1400 
    116 CB        -6.3551  -20.5710  -54.8943 C.3       21 UNK        -0.1800 
    117 C         -4.0984  -19.4750  -54.6160 C.2       21 UNK         0.5000 
    118 O         -3.4115  -19.4809  -55.6378 O.2       21 UNK        -0.5000 
    119 N         -3.6125  -19.6881  -53.3862 N.am      22 UNK        -0.5000 
    120 CA        -2.2096  -19.9165  -52.9886 C.3       22 UNK         0.1400 
    121 C         -1.5713  -21.2490  -53.4790 C.2       22 UNK         0.5000 
    122 N         -1.9737  -21.8057  -54.6126 N.am      22 UNK        -0.7600 
    123 O         -0.7024  -21.7926  -52.8048 O.2       22 UNK        -0.5000 
    124 C124       -1.2712  -18.7274  -53.3207 C.3       23 UNK        -0.0398 
    125 S125       -1.7427  -17.1671  -52.4923 S.3       23 UNK        -0.2404 
    126 C126       -0.9395  -17.3009  -50.8555 C.3       23 UNK        -0.0205 
    127 H127        1.7060  -11.4165  -49.9623 H         1 UNK         0.0600 
    128 H128        1.9794  -11.8326  -48.2607 H         1 UNK         0.0600 
    129 H129        0.3552  -11.4816  -48.8336 H         1 UNK         0.0600 
    130 H130        1.9640  -15.1799  -49.9391 H         1 UNK         0.3000 
    131 H131        3.6416  -12.8213  -50.0945 H         1 UNK         0.0600 
    132 H132        5.4504  -14.4186  -50.5952 H         1 UNK         0.0800 
    133 H133        4.4374  -15.7686  -50.1531 H         1 UNK         0.0800 
    134 H134        4.7913  -17.0006  -52.4716 H         1 UNK         0.0800 
    135 H135        3.5355  -16.7672  -53.6603 H         1 UNK         0.0800 
    136 H136        1.1401  -16.0288  -52.0855 H         1 UNK         0.1150 
    137 H137        0.1860  -19.5746  -49.8798 H         1 UNK         0.1150 
    138 H138        4.1764  -18.9581  -51.3058 H         1 UNK         0.1150 
    139 H139        1.7962  -21.4536  -50.0464 H         1 UNK         0.0800 
    140 H140        3.3982  -21.1892  -50.6460 H         1 UNK         0.0800 
    141 H141        1.1823  -19.7335  -47.7504 H         1 UNK         0.0800 
    142 H142        2.2344  -19.8703  -46.3848 H         1 UNK         0.0800 
    143 H143        1.8952  -22.4333  -46.4685 H         1 UNK         0.0600 
    144 H144        0.2755  -20.4854  -45.2519 H         1 UNK         0.3000 
    145 H145       -2.0254  -22.6513  -43.5652 H         1 UNK         0.0600 
    146 H146       -1.1920  -21.2853  -41.6656 H         1 UNK         0.0600 
    147 H147       -0.0156  -22.5075  -42.1238 H         1 UNK         0.0600 
    148 H148        0.2376  -20.8328  -42.5910 H         1 UNK         0.0600 
    149 H149       -1.8459  -19.8169  -43.6394 H         1 UNK         0.3000 
    150 H150       -3.9088  -19.3468  -46.5586 H         1 UNK         0.0600 
    151 H151       -5.4509  -19.6190  -44.6213 H         1 UNK         0.0600 
    152 H152       -5.1182  -17.9207  -44.9269 H         1 UNK         0.0600 
    153 H153       -4.3320  -18.7452  -43.5836 H         1 UNK         0.0600 
    154 H154       -2.6165  -17.4502  -44.8946 H         1 UNK         0.3000 
    155 H155        0.5414  -17.4067  -46.6049 H         1 UNK         0.0600 
    156 H156       -1.7432  -15.3833  -46.3404 H         1 UNK         0.0600 
    157 H157       -0.9613  -15.8674  -47.8364 H         1 UNK         0.0600 
    158 H158       -0.0485  -14.9885  -46.6183 H         1 UNK         0.0600 
    159 H159       -0.3892  -16.0072  -44.2988 H         1 UNK         0.3000 
    160 H160        0.5551  -18.4745  -41.8774 H         1 UNK         0.0600 
    161 H161        1.7246  -15.7128  -42.4915 H         1 UNK         0.0600 
    162 H162        2.6453  -17.2086  -42.3668 H         1 UNK         0.0600 
    163 H163        1.8149  -16.5702  -40.9578 H         1 UNK         0.0600 
    164 H164       -0.6290  -15.8282  -41.7989 H         1 UNK         0.3000 
    165 H165       -4.0052  -16.9550  -41.7623 H         1 UNK         0.0600 
    166 H166       -4.0200  -15.7289  -39.6064 H         1 UNK         0.0600 
    167 H167       -3.2362  -17.2879  -39.4076 H         1 UNK         0.0600 
    168 H168       -2.2617  -15.8259  -39.5043 H         1 UNK         0.0600 
    169 H169       -2.7969  -14.3781  -41.4440 H         1 UNK         0.3000 
    170 H170       -2.5081  -13.5555  -44.8899 H         1 UNK         0.0600 
    171 H171       -4.9289  -13.1680  -44.4053 H         1 UNK         0.0600 
    172 H172       -4.5243  -12.5655  -42.8024 H         1 UNK         0.0600 
    173 H173       -3.9991  -11.6876  -44.2396 H         1 UNK         0.0600 
    174 H174       -2.1130  -11.9931  -42.5601 H         1 UNK         0.3000 
    175 H175        0.0487  -11.3077  -42.1576 H         1 UNK         0.0600 
    176 H176        0.6189  -13.8904  -40.5765 H         1 UNK         0.0600 
    177 H177        0.9217  -12.2535  -39.9998 H         1 UNK         0.0600 
    178 H178       -0.7255  -12.7923  -40.2802 H         1 UNK         0.0600 
    179 H179        1.9709  -13.3092  -43.0758 H         1 UNK         0.3000 
    180 H180        4.3483  -10.9100  -43.7121 H         1 UNK         0.0600 
    181 H181        4.8854  -12.7696  -41.3342 H         1 UNK         0.0600 
    182 H182        5.1114  -11.0250  -41.3373 H         1 UNK         0.0600 
    183 H183        6.1104  -12.0334  -42.3693 H         1 UNK         0.0600 
    184 H184        4.6855  -13.7366  -43.5804 H         1 UNK         0.3000 
    185 H185        4.9173  -14.6589  -45.8204 H         1 UNK         0.0600 
    186 H186        3.4479  -15.7404  -44.1920 H         1 UNK         0.0600 
    187 H187        2.0119  -15.3113  -45.1163 H         1 UNK         0.0600 
    188 H188        3.1550  -16.4996  -45.7448 H         1 UNK         0.0600 
    189 H189        2.5809  -14.8123  -47.5284 H         1 UNK         0.3000 
    190 H190       -1.1098  -20.8724  -47.6903 H         1 UNK         0.3000 
    191 H191       -1.3068  -22.3272  -50.1064 H         1 UNK         0.0600 
    192 H192       -3.5714  -21.1162  -48.4417 H         1 UNK         0.0600 
    193 H193       -3.6032  -21.4978  -50.1577 H         1 UNK         0.0600 
    194 H194       -2.5594  -20.2110  -49.5654 H         1 UNK         0.0600 
    195 H195       -2.7279  -23.0157  -46.8610 H         1 UNK         0.3000 
    196 H196       -4.1290  -25.3529  -47.5589 H         1 UNK         0.0600 
    197 H197       -4.1081  -25.8070  -45.1035 H         1 UNK         0.0600 
    198 H198       -4.4916  -24.1256  -45.4389 H         1 UNK         0.0600 
    199 H199       -2.8817  -24.5674  -44.8726 H         1 UNK         0.0600 
    200 H200       -0.7195  -24.9736  -46.4949 H         1 UNK         0.3000 
    201 H201       -0.0474  -27.7459  -46.4857 H         1 UNK         0.0600 
    202 H202        1.3228  -26.0120  -45.3595 H         1 UNK         0.0600 
    203 H203        1.7256  -25.2826  -46.9114 H         1 UNK         0.0600 
    204 H204        2.2962  -26.9001  -46.5225 H         1 UNK         0.0600 
    205 H205       -0.2258  -25.3643  -49.0965 H         1 UNK         0.3000 
    206 H206        0.8867  -27.1464  -51.1388 H         1 UNK         0.0600 
    207 H207        1.2355  -24.6652  -51.2064 H         1 UNK         0.0600 
    208 H208        0.4056  -25.2475  -52.6408 H         1 UNK         0.0600 
    209 H209       -0.4997  -24.4237  -51.3823 H         1 UNK         0.0600 
    210 H210       -2.0221  -27.1205  -49.5281 H         1 UNK         0.3000 
    211 H211       -4.0200  -27.9873  -49.7464 H         1 UNK         0.0600 
    212 H212       -3.0372  -29.4425  -52.2543 H         1 UNK         0.0600 
    213 H213       -4.4325  -29.8648  -51.2732 H         1 UNK         0.0600 
    214 H214       -2.8183  -30.0099  -50.5990 H         1 UNK         0.0600 
    215 H215       -3.6630  -25.3815  -50.6928 H         1 UNK         0.3000 
    216 H216       -5.7808  -25.1112  -52.7908 H         1 UNK         0.0600 
    217 H217       -4.5721  -23.0063  -53.4086 H         1 UNK         0.0600 
    218 H218       -3.5029  -24.3887  -53.5811 H         1 UNK         0.0600 
    219 H219       -3.3526  -23.3283  -52.1833 H         1 UNK         0.0600 
    220 H220       -6.8954  -22.9840  -52.5921 H         1 UNK         0.3000 
    221 H221       -7.7376  -22.3250  -49.8633 H         1 UNK         0.0600 
    222 H222       -8.4382  -21.0888  -52.5917 H         1 UNK         0.0600 
    223 H223       -9.3720  -22.3340  -51.7641 H         1 UNK         0.0600 
    224 H224       -9.2364  -20.7292  -51.0660 H         1 UNK         0.0600 
    225 H225       -7.4617  -20.2049  -48.9420 H         1 UNK         0.3000 
    226 H226       -4.8709  -19.1742  -49.0104 H         1 UNK         0.0600 
    227 H227       -6.4266  -18.9989  -47.0779 H         1 UNK         0.0600 
    228 H228       -5.7844  -17.4216  -47.5084 H         1 UNK         0.0600 
    229 H229       -7.4283  -17.8526  -47.9668 H         1 UNK         0.0600 
    230 H230       -7.6473  -18.1432  -50.9202 H         1 UNK         0.3000 
    231 H231       -6.3438  -15.7129  -51.9313 H         1 UNK         0.0600 
    232 H232       -8.8022  -15.7768  -51.5578 H         1 UNK         0.0600 
    233 H233       -8.9629  -17.1054  -52.7073 H         1 UNK         0.0600 
    234 H234       -8.4407  -15.5175  -53.2565 H         1 UNK         0.0600 
    235 H235       -6.3640  -19.0922  -52.7602 H         1 UNK         0.3000 
    236 H236       -5.7877  -18.6455  -55.6349 H         1 UNK         0.0600 
    237 H237       -5.9978  -21.1119  -55.7715 H         1 UNK         0.0600 
    238 H238       -6.2138  -21.2198  -54.0304 H         1 UNK         0.0600 
    239 H239       -7.4258  -20.4130  -55.0239 H         1 UNK         0.0600 
    240 H240       -4.2855  -19.7637  -52.6294 H         1 UNK         0.3000 
    241 H241       -2.2413  -20.0023  -51.9032 H         1 UNK         0.0600 
    242 H242       -1.5591  -22.6689  -54.9235 H         1 UNK         0.3800 
    243 H243       -2.6226  -21.3030  -55.2047 H         1 UNK         0.3800 
    244 H244       -1.2668  -18.5413  -54.3951 H         1 UNK         0.0800 
    245 H245       -0.2368  -18.9700  -53.0782 H         1 UNK         0.0800 
    246 H246       -1.5156  -17.9928  -50.2390 H         1 UNK         0.0800 
    247 H247       -0.9969  -16.3327  -50.3573 H         1 UNK         0.0800 
@<TRIPOS>BOND
     1    1    2 1    
     2    1  127 1    
     3    1  128 1    
     4    1  129 1    
     5    2    3 2    
     6    2    4 am   BACKBONE|DICT|INTERRES
     7    4    5 1    
     8    4  130 1    
     9    5    6 1    
    10    5   65 1    
    11    5  131 1    
    12    6    7 1    
    13    6  132 1    
    14    6  133 1    
    15    7    8 1    
    16    8    9 1    
    17    8  134 1    
    18    8  135 1    
    19    9   10 ar   
    20    9   14 ar   
    21   10   11 ar   
    22   10  136 1    
    23   11   12 ar   
    24   11  126 1    
    25   12   13 ar   
    26   12  137 1    
    27   13   14 ar   
    28   13   15 1    
    29   14  138 1    
    30   15   16 1    
    31   15  139 1    
    32   15  140 1    
    33   16   17 1    
    34   17   18 1    
    35   17  141 1    
    36   17  142 1    
    37   18   19 1    
    38   18   67 1    
    39   18  143 1    
    40   19   20 am   BACKBONE|DICT|INTERRES
    41   19  144 1    
    42   20   21 2    
    43   20   22 1    
    44   22   23 1    
    45   22   24 1    
    46   22  145 1    
    47   23  146 1    
    48   23  147 1    
    49   23  148 1    
    50   24   25 am   BACKBONE|DICT|INTERRES
    51   24  149 1    
    52   25   26 2    
    53   25   27 1    
    54   27   28 1    
    55   27   29 1    
    56   27  150 1    
    57   28  151 1    
    58   28  152 1    
    59   28  153 1    
    60   29   30 am   BACKBONE|DICT|INTERRES
    61   29  154 1    
    62   30   31 2    
    63   30   32 1    
    64   32   33 1    
    65   32   34 1    
    66   32  155 1    
    67   33  156 1    
    68   33  157 1    
    69   33  158 1    
    70   34   35 am   BACKBONE|DICT|INTERRES
    71   34  159 1    
    72   35   36 2    
    73   35   37 1    
    74   37   38 1    
    75   37   39 1    
    76   37  160 1    
    77   38  161 1    
    78   38  162 1    
    79   38  163 1    
    80   39   40 am   BACKBONE|DICT|INTERRES
    81   39  164 1    
    82   40   41 2    
    83   40   42 1    
    84   42   43 1    
    85   42   44 1    
    86   42  165 1    
    87   43  166 1    
    88   43  167 1    
    89   43  168 1    
    90   44   45 am   BACKBONE|DICT|INTERRES
    91   44  169 1    
    92   45   46 2    
    93   45   47 1    
    94   47   48 1    
    95   47   49 1    
    96   47  170 1    
    97   48  171 1    
    98   48  172 1    
    99   48  173 1    
   100   49   50 am   BACKBONE|DICT|INTERRES
   101   49  174 1    
   102   50   51 2    
   103   50   52 1    
   104   52   53 1    
   105   52   54 1    
   106   52  175 1    
   107   53  176 1    
   108   53  177 1    
   109   53  178 1    
   110   54   55 am   BACKBONE|DICT|INTERRES
   111   54  179 1    
   112   55   56 2    
   113   55   57 1    
   114   57   58 1    
   115   57   59 1    
   116   57  180 1    
   117   58  181 1    
   118   58  182 1    
   119   58  183 1    
   120   59   60 am   BACKBONE|DICT|INTERRES
   121   59  184 1    
   122   60   61 2    
   123   60   62 1    
   124   62   63 1    
   125   62   64 1    
   126   62  185 1    
   127   63  186 1    
   128   63  187 1    
   129   63  188 1    
   130   64   65 am   BACKBONE|DICT|INTERRES
   131   64  189 1    
   132   65   66 2    
   133   67   68 2    
   134   67   69 am   BACKBONE|DICT|INTERRES
   135   69   70 1    
   136   69  190 1    
   137   70   71 1    
   138   70   72 1    
   139   70  191 1    
   140   71  192 1    
   141   71  193 1    
   142   71  194 1    
   143   72   73 2    
   144   72   74 am   BACKBONE|DICT|INTERRES
   145   74   75 1    
   146   74  195 1    
   147   75   76 1    
   148   75   77 1    
   149   75  196 1    
   150   76  197 1    
   151   76  198 1    
   152   76  199 1    
   153   77   78 2    
   154   77   79 am   BACKBONE|DICT|INTERRES
   155   79   80 1    
   156   79  200 1    
   157   80   81 1    
   158   80   82 1    
   159   80  201 1    
   160   81  202 1    
   161   81  203 1    
   162   81  204 1    
   163   82   83 2    
   164   82   84 am   BACKBONE|DICT|INTERRES
   165   84   85 1    
   166   84  205 1    
   167   85   86 1    
   168   85   87 1    
   169   85  206 1    
   170   86  207 1    
   171   86  208 1    
   172   86  209 1    
   173   87   88 2    
   174   87   89 am   BACKBONE|DICT|INTERRES
   175   89   90 1    
   176   89  210 1    
   177   90   91 1    
   178   90   92 1    
   179   90  211 1    
   180   91  212 1    
   181   91  213 1    
   182   91  214 1    
   183   92   93 2    
   184   92   94 am   BACKBONE|DICT|INTERRES
   185   94   95 1    
   186   94  215 1    
   187   95   96 1    
   188   95   97 1    
   189   95  216 1    
   190   96  217 1    
   191   96  218 1    
   192   96  219 1    
   193   97   98 2    
   194   97   99 am   BACKBONE|DICT|INTERRES
   195   99  100 1    
   196   99  220 1    
   197  100  101 1    
   198  100  102 1    
   199  100  221 1    
   200  101  222 1    
   201  101  223 1    
   202  101  224 1    
   203  102  103 2    
   204  102  104 am   BACKBONE|DICT|INTERRES
   205  104  105 1    
   206  104  225 1    
   207  105  106 1    
   208  105  107 1    
   209  105  226 1    
   210  106  227 1    
   211  106  228 1    
   212  106  229 1    
   213  107  108 2    
   214  107  109 am   BACKBONE|DICT|INTERRES
   215  109  110 1    
   216  109  230 1    
   217  110  111 1    
   218  110  112 1    
   219  110  231 1    
   220  111  232 1    
   221  111  233 1    
   222  111  234 1    
   223  112  113 2    
   224  112  114 am   BACKBONE|DICT|INTERRES
   225  114  115 1    
   226  114  235 1    
   227  115  116 1    
   228  115  117 1    
   229  115  236 1    
   230  116  237 1    
   231  116  238 1    
   232  116  239 1    
   233  117  118 2    
   234  117  119 am   BACKBONE|DICT|INTERRES
   235  119  120 1    
   236  119  240 1    
   237  120  121 1    
   238  120  124 1    
   239  120  241 1    
   240  121  122 am   BACKBONE|DICT|INTERRES
   241  121  123 2    
   242  122  242 1    
   243  122  243 1    
   244  124  125 1    
   245  124  244 1    
   246  124  245 1    
   247  125  126 1    
   248  126  246 1    
   249  126  247 1    
@<TRIPOS>SUBSTRUCTURE
     1 UNK         1 GROUP             0       ****    0 ROOT    
