@<TRIPOS>MOLECULE
3R540
247   249    1
SMALL
USER_CHARGES


@<TRIPOS>ATOM
      1 CA         -1.9518  -13.5387  -46.4276 C.3       0 UNK        -0.1800 
      2 C          -0.9934  -12.8634  -47.3959 C.2       0 UNK         0.5000 
      3 O          -1.3221  -11.8178  -47.9583 O.2       0 UNK        -0.5000 
      4 N           0.2014  -13.4409  -47.5789 N.am      1 UNK        -0.5000 
      5 CA          1.2814  -12.9021  -48.4166 C.3       1 UNK         0.1400 
      6 C6          2.2571  -13.9988  -48.9206 C.3       23 UNK        -0.0398 
      7 S7          1.4300  -15.3038  -49.8923 S.3       23 UNK        -0.2404 
      8 C8          1.5933  -16.7092  -48.7477 C.3       23 UNK        -0.0205 
      9 C9          0.8258  -17.9392  -49.2098 C.ar      23 UNK        -0.0193 
     10 C10        -0.5592  -17.8826  -49.3886 C.ar      23 UNK        -0.1150 
     11 C11        -1.2815  -19.0280  -49.7330 C.ar      23 UNK        -0.0193 
     12 C12        -0.6086  -20.2434  -49.8861 C.ar      23 UNK        -0.1150 
     13 C13         0.7764  -20.3161  -49.7109 C.ar      23 UNK        -0.0193 
     14 C14         1.4899  -19.1550  -49.3938 C.ar      23 UNK        -0.1150 
     15 C15         1.4843  -21.6624  -49.8243 C.3       23 UNK        -0.0205 
     16 S16         2.5729  -22.0467  -48.4057 S.3       23 UNK        -0.2404 
     17 C17         1.5183  -21.6775  -46.9584 C.3       23 UNK        -0.0398 
     18 CA          0.8288  -22.9149  -46.3442 C.3       11 UNK         0.1400 
     19 N           0.3464  -22.6304  -44.9920 N.am      11 UNK        -0.5000 
     20 C          -0.1745  -23.5300  -44.1471 C.2       10 UNK         0.5000 
     21 O          -0.2719  -24.7304  -44.3981 O.2       10 UNK        -0.5000 
     22 CA         -0.7389  -22.9803  -42.8252 C.3       10 UNK         0.1400 
     23 CB          0.3864  -22.6666  -41.8276 C.3       10 UNK        -0.1800 
     24 N          -1.5567  -21.7860  -43.0409 N.am      10 UNK        -0.5000 
     25 C          -2.7182  -21.7803  -43.7112 C.2       9 UNK         0.5000 
     26 O          -3.2565  -22.7939  -44.1573 O.2       9 UNK        -0.5000 
     27 CA         -3.3596  -20.4047  -43.9643 C.3       9 UNK         0.1400 
     28 CB         -4.1998  -19.9602  -42.7578 C.3       9 UNK        -0.1800 
     29 N          -2.3628  -19.3787  -44.2753 N.am      9 UNK        -0.5000 
     30 C          -1.6529  -19.3416  -45.4127 C.2       8 UNK         0.5000 
     31 O          -1.7730  -20.1629  -46.3179 O.2       8 UNK        -0.5000 
     32 CA         -0.5996  -18.2289  -45.5433 C.3       8 UNK         0.1400 
     33 CB         -1.2605  -16.9298  -46.0191 C.3       8 UNK        -0.1800 
     34 N           0.1160  -17.9814  -44.2917 N.am      8 UNK        -0.5000 
     35 C           0.8896  -18.8868  -43.6721 C.2       7 UNK         0.5000 
     36 O           1.1289  -20.0020  -44.1333 O.2       7 UNK        -0.5000 
     37 CA          1.4497  -18.5173  -42.2854 C.3       7 UNK         0.1400 
     38 CB          2.9153  -18.0749  -42.3977 C.3       7 UNK        -0.1800 
     39 N           0.6624  -17.4868  -41.6020 N.am      7 UNK        -0.5000 
     40 C          -0.6016  -17.6683  -41.1865 C.2       6 UNK         0.5000 
     41 O          -1.2003  -18.7386  -41.3060 O.2       6 UNK        -0.5000 
     42 CA         -1.3452  -16.4636  -40.5745 C.3       6 UNK         0.1400 
     43 CB         -1.3830  -16.5819  -39.0436 C.3       6 UNK        -0.1800 
     44 N          -0.7985  -15.1528  -40.9344 N.am      6 UNK        -0.5000 
     45 C          -0.7135  -14.6486  -42.1733 C.2       5 UNK         0.5000 
     46 O          -1.0652  -15.2623  -43.1816 O.2       5 UNK        -0.5000 
     47 CA         -0.0914  -13.2417  -42.3250 C.3       5 UNK         0.1400 
     48 CB          0.1476  -12.5087  -40.9864 C.3       5 UNK        -0.1800 
     49 N           1.1524  -13.2623  -43.1000 N.am      5 UNK        -0.5000 
     50 C           2.2139  -14.0618  -42.9059 C.2       4 UNK         0.5000 
     51 O           2.2787  -14.9272  -42.0318 O.2       4 UNK        -0.5000 
     52 CA          3.4186  -13.8402  -43.8404 C.3       4 UNK         0.1400 
     53 CB          3.2233  -14.6221  -45.1482 C.3       4 UNK        -0.1800 
     54 N           3.6554  -12.4255  -44.1455 N.am      4 UNK        -0.5000 
     55 C           3.9843  -11.4987  -43.2305 C.2       3 UNK         0.5000 
     56 O           4.1920  -11.7605  -42.0449 O.2       3 UNK        -0.5000 
     57 CA          4.1053  -10.0322  -43.6946 C.3       3 UNK         0.1400 
     58 CB          5.5818   -9.6107  -43.7624 C.3       3 UNK        -0.1800 
     59 N           3.4779   -9.7407  -44.9844 N.am      3 UNK        -0.5000 
     60 C           2.1697   -9.8163  -45.2617 C.2       2 UNK         0.5000 
     61 O           1.3163  -10.1790  -44.4499 O.2       2 UNK        -0.5000 
     62 CA          1.7409   -9.4659  -46.7019 C.3       2 UNK         0.1400 
     63 CB          2.8059   -8.6882  -47.5081 C.3       2 UNK        -0.1800 
     64 N           1.3172  -10.6579  -47.4395 N.am      2 UNK        -0.5000 
     65 C           2.0178  -11.7810  -47.6513 C.2       1 UNK         0.5000 
     66 O           3.1619  -11.9656  -47.2299 O.2       1 UNK        -0.5000 
     67 C          -0.2942  -23.4615  -47.2498 C.2       11 UNK         0.5000 
     68 O          -0.0829  -24.4704  -47.9202 O.2       11 UNK        -0.5000 
     69 N          -1.4795  -22.8334  -47.2109 N.am      12 UNK        -0.5000 
     70 CA         -2.6713  -23.2585  -47.9478 C.3       12 UNK         0.1400 
     71 CB         -3.8085  -22.2491  -47.7360 C.3       12 UNK        -0.1800 
     72 C          -3.1456  -24.6763  -47.5818 C.2       12 UNK         0.5000 
     73 O          -3.6061  -25.4029  -48.4609 O.2       12 UNK        -0.5000 
     74 N          -3.0106  -25.0525  -46.3041 N.am      13 UNK        -0.5000 
     75 CA         -3.3013  -26.3982  -45.8176 C.3       13 UNK         0.1400 
     76 CB         -3.4844  -26.3613  -44.2921 C.3       13 UNK        -0.1800 
     77 C          -2.2120  -27.4109  -46.2189 C.2       13 UNK         0.5000 
     78 O          -2.5412  -28.5057  -46.6771 O.2       13 UNK        -0.5000 
     79 N          -0.9403  -27.0392  -46.0215 N.am      14 UNK        -0.5000 
     80 CA          0.2119  -27.9249  -46.1880 C.3       14 UNK         0.1400 
     81 CB          1.3976  -27.3589  -45.3906 C.3       14 UNK        -0.1800 
     82 C           0.6257  -28.1612  -47.6514 C.2       14 UNK         0.5000 
     83 O           0.9778  -29.2894  -47.9991 O.2       14 UNK        -0.5000 
     84 N           0.6219  -27.0993  -48.4655 N.am      15 UNK        -0.5000 
     85 CA          1.2290  -27.0651  -49.7995 C.3       15 UNK         0.1400 
     86 CB          2.4354  -26.1092  -49.7513 C.3       15 UNK        -0.1800 
     87 C           0.2398  -26.6505  -50.9047 C.2       15 UNK         0.5000 
     88 O           0.6702  -26.4711  -52.0454 O.2       15 UNK        -0.5000 
     89 N          -1.0494  -26.5181  -50.5569 N.am      16 UNK        -0.5000 
     90 CA         -2.1611  -26.0019  -51.3676 C.3       16 UNK         0.1400 
     91 CB         -2.3005  -26.7509  -52.7099 C.3       16 UNK        -0.1800 
     92 C          -2.0904  -24.4735  -51.5695 C.2       16 UNK         0.5000 
     93 O          -1.0473  -23.8500  -51.3612 O.2       16 UNK        -0.5000 
     94 N          -3.2295  -23.8810  -51.9480 N.am      17 UNK        -0.5000 
     95 CA         -3.3559  -22.4525  -52.2370 C.3       17 UNK         0.1400 
     96 CB         -4.8449  -22.0896  -52.3203 C.3       17 UNK        -0.1800 
     97 C          -2.6191  -22.0584  -53.5324 C.2       17 UNK         0.5000 
     98 O          -2.5200  -22.8686  -54.4572 O.2       17 UNK        -0.5000 
     99 N          -2.1385  -20.8097  -53.5840 N.am      18 UNK        -0.5000 
    100 CA        -1.3802  -20.2537  -54.7102 C.3       18 UNK         0.1400 
    101 CB        -0.6265  -19.0062  -54.2212 C.3       18 UNK        -0.1800 
    102 C         -2.2454  -19.9143  -55.9436 C.2       18 UNK         0.5000 
    103 O         -1.6979  -19.6815  -57.0223 O.2       18 UNK        -0.5000 
    104 N         -3.5691  -19.8852  -55.7658 N.am      19 UNK        -0.5000 
    105 CA        -4.5903  -19.6036  -56.7683 C.3       19 UNK         0.1400 
    106 CB        -4.6481  -18.0880  -57.0448 C.3       19 UNK        -0.1800 
    107 C         -5.9304  -20.1368  -56.2347 C.2       19 UNK         0.5000 
    108 O         -5.9724  -20.6666  -55.1193 O.2       19 UNK        -0.5000 
    109 N         -7.0096  -19.9671  -57.0108 N.am      20 UNK        -0.5000 
    110 CA        -8.3862  -20.2891  -56.6193 C.3       20 UNK         0.1400 
    111 CB        -9.3309  -19.9849  -57.7926 C.3       20 UNK        -0.1800 
    112 C         -8.7996  -19.5109  -55.3541 C.2       20 UNK         0.5000 
    113 O         -8.8587  -18.2793  -55.3913 O.2       20 UNK        -0.5000 
    114 N         -8.9739  -20.2402  -54.2408 N.am      21 UNK        -0.5000 
    115 CA        -9.1825  -19.7369  -52.8726 C.3       21 UNK         0.1400 
    116 CB       -10.5668  -19.0668  -52.7491 C.3       21 UNK        -0.1800 
    117 C         -8.0371  -18.8263  -52.3639 C.2       21 UNK         0.5000 
    118 O         -8.2485  -18.0113  -51.4645 O.2       21 UNK        -0.5000 
    119 N         -6.8496  -18.9702  -52.9679 N.am      22 UNK        -0.5000 
    120 CA        -5.6799  -18.0916  -52.8326 C.3       22 UNK         0.1400 
    121 C         -5.8913  -16.6388  -53.3671 C.2       22 UNK         0.5000 
    122 N         -6.8829  -16.3825  -54.2143 N.am      22 UNK        -0.7600 
    123 O         -5.1344  -15.7301  -53.0378 O.2       22 UNK        -0.5000 
    124 C124       -5.0314  -18.1630  -51.4202 C.3       23 UNK        -0.0398 
    125 S125       -3.2103  -18.2099  -51.5207 S.3       23 UNK        -0.2404 
    126 C126       -2.7883  -18.9476  -49.9157 C.3       23 UNK        -0.0205 
    127 H127       -2.5071  -14.3285  -46.9331 H         1 UNK         0.0600 
    128 H128       -2.6671  -12.8174  -46.0320 H         1 UNK         0.0600 
    129 H129       -1.4151  -13.9700  -45.5830 H         1 UNK         0.0600 
    130 H130        0.4156  -14.2938  -47.0866 H         1 UNK         0.3000 
    131 H131        0.8367  -12.4431  -49.3026 H         1 UNK         0.0600 
    132 H132        2.7998  -14.4517  -48.0902 H         1 UNK         0.0800 
    133 H133        3.0187  -13.5515  -49.5617 H         1 UNK         0.0800 
    134 H134        1.2273  -16.4214  -47.7627 H         1 UNK         0.0800 
    135 H135        2.6529  -16.9404  -48.6263 H         1 UNK         0.0800 
    136 H136       -1.0778  -16.9438  -49.2545 H         1 UNK         0.1150 
    137 H137       -1.1617  -21.1399  -50.1241 H         1 UNK         0.1150 
    138 H138        2.5592  -19.2113  -49.2463 H         1 UNK         0.1150 
    139 H139        0.7582  -22.4703  -49.9251 H         1 UNK         0.0800 
    140 H140        2.0785  -21.6718  -50.7385 H         1 UNK         0.0800 
    141 H141        0.7897  -20.8976  -47.1775 H         1 UNK         0.0800 
    142 H142        2.1879  -21.2390  -46.2179 H         1 UNK         0.0800 
    143 H143        1.5785  -23.7031  -46.2457 H         1 UNK         0.0600 
    144 H144        0.4271  -21.6648  -44.6837 H         1 UNK         0.3000 
    145 H145       -1.3762  -23.7515  -42.3872 H         1 UNK         0.0600 
    146 H146       -0.0155  -22.3104  -40.8789 H         1 UNK         0.0600 
    147 H147        1.0688  -21.9068  -42.2086 H         1 UNK         0.0600 
    148 H148        0.9768  -23.5592  -41.6164 H         1 UNK         0.0600 
    149 H149       -1.1889  -20.9066  -42.7054 H         1 UNK         0.3000 
    150 H150       -4.0268  -20.5008  -44.8236 H         1 UNK         0.0600 
    151 H151       -4.9816  -20.6889  -42.5396 H         1 UNK         0.0600 
    152 H152       -4.6900  -19.0052  -42.9484 H         1 UNK         0.0600 
    153 H153       -3.5932  -19.8529  -41.8582 H         1 UNK         0.0600 
    154 H154       -2.1683  -18.6982  -43.5544 H         1 UNK         0.3000 
    155 H155        0.1287  -18.5422  -46.2942 H         1 UNK         0.0600 
    156 H156       -1.7832  -17.0769  -46.9640 H         1 UNK         0.0600 
    157 H157       -0.5193  -16.1467  -46.1682 H         1 UNK         0.0600 
    158 H158       -1.9955  -16.5658  -45.3006 H         1 UNK         0.0600 
    159 H159       -0.0640  -17.0948  -43.8346 H         1 UNK         0.3000 
    160 H160        1.4184  -19.4185  -41.6697 H         1 UNK         0.0600 
    161 H161        3.0305  -17.2281  -43.0731 H         1 UNK         0.0600 
    162 H162        3.5351  -18.8845  -42.7852 H         1 UNK         0.0600 
    163 H163        3.3206  -17.7902  -41.4266 H         1 UNK         0.0600 
    164 H164        1.0911  -16.5713  -41.5110 H         1 UNK         0.3000 
    165 H165       -2.3717  -16.5021  -40.9447 H         1 UNK         0.0600 
    166 H166       -1.9912  -15.7928  -38.6008 H         1 UNK         0.0600 
    167 H167       -1.8157  -17.5346  -38.7347 H         1 UNK         0.0600 
    168 H168       -0.3835  -16.5198  -38.6114 H         1 UNK         0.0600 
    169 H169       -0.4470  -14.5926  -40.1717 H         1 UNK         0.3000 
    170 H170       -0.8071  -12.6546  -42.9021 H         1 UNK         0.0600 
    171 H171       -0.7744  -12.4216  -40.4101 H         1 UNK         0.0600 
    172 H172        0.8887  -13.0148  -40.3665 H         1 UNK         0.0600 
    173 H173        0.5090  -11.4952  -41.1625 H         1 UNK         0.0600 
    174 H174        1.2184  -12.5646  -43.8288 H         1 UNK         0.3000 
    175 H175        4.3070  -14.2285  -43.3381 H         1 UNK         0.0600 
    176 H176        2.3334  -14.2891  -45.6813 H         1 UNK         0.0600 
    177 H177        4.0794  -14.5022  -45.8124 H         1 UNK         0.0600 
    178 H178        3.1075  -15.6891  -44.9558 H         1 UNK         0.0600 
    179 H179        3.5296  -12.1355  -45.1088 H         1 UNK         0.3000 
    180 H180        3.6091   -9.4173  -42.9409 H         1 UNK         0.0600 
    181 H181        5.6804   -8.5513  -43.9999 H         1 UNK         0.0600 
    182 H182        6.1264  -10.1778  -44.5185 H         1 UNK         0.0600 
    183 H183        6.0812   -9.7744  -42.8065 H         1 UNK         0.0600 
    184 H184        4.1021   -9.4784  -45.7334 H         1 UNK         0.3000 
    185 H185        0.8626   -8.8254  -46.6112 H         1 UNK         0.0600 
    186 H186        3.7000   -9.2824  -47.6996 H         1 UNK         0.0600 
    187 H187        2.4079   -8.3787  -48.4746 H         1 UNK         0.0600 
    188 H188        3.1118   -7.7814  -46.9845 H         1 UNK         0.0600 
    189 H189        0.3491  -10.6633  -47.7450 H         1 UNK         0.3000 
    190 H190       -1.5657  -21.9689  -46.6811 H         1 UNK         0.3000 
    191 H191       -2.4106  -23.2541  -49.0057 H         1 UNK         0.0600 
    192 H192       -3.5014  -21.2412  -48.0077 H         1 UNK         0.0600 
    193 H193       -4.1367  -22.2260  -46.6967 H         1 UNK         0.0600 
    194 H194       -4.6741  -22.5027  -48.3493 H         1 UNK         0.0600 
    195 H195       -2.6639  -24.3814  -45.6292 H         1 UNK         0.3000 
    196 H196       -4.2446  -26.7298  -46.2575 H         1 UNK         0.0600 
    197 H197       -4.2987  -25.6932  -44.0105 H         1 UNK         0.0600 
    198 H198       -2.5833  -26.0191  -43.7825 H         1 UNK         0.0600 
    199 H199       -3.7257  -27.3515  -43.9038 H         1 UNK         0.0600 
    200 H200       -0.7538  -26.1288  -45.6087 H         1 UNK         0.3000 
    201 H201       -0.0411  -28.8964  -45.7577 H         1 UNK         0.0600 
    202 H202        1.1547  -27.2731  -44.3312 H         1 UNK         0.0600 
    203 H203        1.6858  -26.3693  -45.7481 H         1 UNK         0.0600 
    204 H204        2.2716  -28.0064  -45.4727 H         1 UNK         0.0600 
    205 H205        0.3071  -26.1957  -48.1110 H         1 UNK         0.3000 
    206 H206        1.5964  -28.0545  -50.0784 H         1 UNK         0.0600 
    207 H207        2.1256  -25.0863  -49.5330 H         1 UNK         0.0600 
    208 H208        3.1497  -26.4130  -48.9860 H         1 UNK         0.0600 
    209 H209        2.9682  -26.0947  -50.7028 H         1 UNK         0.0600 
    210 H210       -1.2700  -26.6711  -49.5830 H         1 UNK         0.3000 
    211 H211       -3.0637  -26.2119  -50.7951 H         1 UNK         0.0600 
    212 H212       -1.5135  -26.4815  -53.4146 H         1 UNK         0.0600 
    213 H213       -3.2505  -26.5137  -53.1898 H         1 UNK         0.0600 
    214 H214       -2.2718  -27.8311  -52.5668 H         1 UNK         0.0600 
    215 H215       -4.0444  -24.4491  -52.1264 H         1 UNK         0.3000 
    216 H216       -2.9181  -21.8985  -51.4055 H         1 UNK         0.0600 
    217 H217       -4.9728  -21.0237  -52.5033 H         1 UNK         0.0600 
    218 H218       -5.3629  -22.3222  -51.3896 H         1 UNK         0.0600 
    219 H219       -5.3459  -22.6229  -53.1295 H         1 UNK         0.0600 
    220 H220       -2.2740  -20.1902  -52.7963 H         1 UNK         0.3000 
    221 H221       -0.6418  -20.9941  -55.0246 H         1 UNK         0.0600 
    222 H222       -1.3124  -18.2106  -53.9284 H         1 UNK         0.0600 
    223 H223        0.0069  -19.2355  -53.3635 H         1 UNK         0.0600 
    224 H224        0.0197  -18.6080  -55.0045 H         1 UNK         0.0600 
    225 H225       -3.9478  -20.1791  -54.8748 H         1 UNK         0.3000 
    226 H226       -4.3514  -20.1419  -57.6876 H         1 UNK         0.0600 
    227 H227       -3.6916  -17.7137  -57.4100 H         1 UNK         0.0600 
    228 H228       -5.3929  -17.8479  -57.8040 H         1 UNK         0.0600 
    229 H229       -4.9019  -17.5262  -56.1457 H         1 UNK         0.0600 
    230 H230       -6.8997  -19.5055  -57.9018 H         1 UNK         0.3000 
    231 H231       -8.4355  -21.3602  -56.4122 H         1 UNK         0.0600 
    232 H232      -10.3639  -20.2194  -57.5318 H         1 UNK         0.0600 
    233 H233       -9.0749  -20.5792  -58.6700 H         1 UNK         0.0600 
    234 H234       -9.2952  -18.9325  -58.0778 H         1 UNK         0.0600 
    235 H235       -8.8557  -21.2417  -54.3120 H         1 UNK         0.3000 
    236 H236       -9.1800  -20.6124  -52.2217 H         1 UNK         0.0600 
    237 H237      -10.6204  -18.1401  -53.3214 H         1 UNK         0.0600 
    238 H238      -11.3577  -19.7272  -53.1050 H         1 UNK         0.0600 
    239 H239      -10.7939  -18.8227  -51.7106 H         1 UNK         0.0600 
    240 H240       -6.7663  -19.6781  -53.6921 H         1 UNK         0.3000 
    241 H241       -4.9711  -18.5195  -53.5415 H         1 UNK         0.0600 
    242 H242       -7.0025  -15.4421  -54.5557 H         1 UNK         0.3800 
    243 H243       -7.5290  -17.1056  -54.5155 H         1 UNK         0.3800 
    244 H244       -5.3556  -19.0662  -50.9012 H         1 UNK         0.0800 
    245 H245       -5.3465  -17.3302  -50.7891 H         1 UNK         0.0800 
    246 H246       -3.2357  -19.9394  -49.8530 H         1 UNK         0.0800 
    247 H247       -3.2245  -18.3543  -49.1098 H         1 UNK         0.0800 
@<TRIPOS>BOND
     1    1    2 1    
     2    1  127 1    
     3    1  128 1    
     4    1  129 1    
     5    2    3 2    
     6    2    4 am   BACKBONE|DICT|INTERRES
     7    4    5 1    
     8    4  130 1    
     9    5    6 1    
    10    5   65 1    
    11    5  131 1    
    12    6    7 1    
    13    6  132 1    
    14    6  133 1    
    15    7    8 1    
    16    8    9 1    
    17    8  134 1    
    18    8  135 1    
    19    9   10 ar   
    20    9   14 ar   
    21   10   11 ar   
    22   10  136 1    
    23   11   12 ar   
    24   11  126 1    
    25   12   13 ar   
    26   12  137 1    
    27   13   14 ar   
    28   13   15 1    
    29   14  138 1    
    30   15   16 1    
    31   15  139 1    
    32   15  140 1    
    33   16   17 1    
    34   17   18 1    
    35   17  141 1    
    36   17  142 1    
    37   18   19 1    
    38   18   67 1    
    39   18  143 1    
    40   19   20 am   BACKBONE|DICT|INTERRES
    41   19  144 1    
    42   20   21 2    
    43   20   22 1    
    44   22   23 1    
    45   22   24 1    
    46   22  145 1    
    47   23  146 1    
    48   23  147 1    
    49   23  148 1    
    50   24   25 am   BACKBONE|DICT|INTERRES
    51   24  149 1    
    52   25   26 2    
    53   25   27 1    
    54   27   28 1    
    55   27   29 1    
    56   27  150 1    
    57   28  151 1    
    58   28  152 1    
    59   28  153 1    
    60   29   30 am   BACKBONE|DICT|INTERRES
    61   29  154 1    
    62   30   31 2    
    63   30   32 1    
    64   32   33 1    
    65   32   34 1    
    66   32  155 1    
    67   33  156 1    
    68   33  157 1    
    69   33  158 1    
    70   34   35 am   BACKBONE|DICT|INTERRES
    71   34  159 1    
    72   35   36 2    
    73   35   37 1    
    74   37   38 1    
    75   37   39 1    
    76   37  160 1    
    77   38  161 1    
    78   38  162 1    
    79   38  163 1    
    80   39   40 am   BACKBONE|DICT|INTERRES
    81   39  164 1    
    82   40   41 2    
    83   40   42 1    
    84   42   43 1    
    85   42   44 1    
    86   42  165 1    
    87   43  166 1    
    88   43  167 1    
    89   43  168 1    
    90   44   45 am   BACKBONE|DICT|INTERRES
    91   44  169 1    
    92   45   46 2    
    93   45   47 1    
    94   47   48 1    
    95   47   49 1    
    96   47  170 1    
    97   48  171 1    
    98   48  172 1    
    99   48  173 1    
   100   49   50 am   BACKBONE|DICT|INTERRES
   101   49  174 1    
   102   50   51 2    
   103   50   52 1    
   104   52   53 1    
   105   52   54 1    
   106   52  175 1    
   107   53  176 1    
   108   53  177 1    
   109   53  178 1    
   110   54   55 am   BACKBONE|DICT|INTERRES
   111   54  179 1    
   112   55   56 2    
   113   55   57 1    
   114   57   58 1    
   115   57   59 1    
   116   57  180 1    
   117   58  181 1    
   118   58  182 1    
   119   58  183 1    
   120   59   60 am   BACKBONE|DICT|INTERRES
   121   59  184 1    
   122   60   61 2    
   123   60   62 1    
   124   62   63 1    
   125   62   64 1    
   126   62  185 1    
   127   63  186 1    
   128   63  187 1    
   129   63  188 1    
   130   64   65 am   BACKBONE|DICT|INTERRES
   131   64  189 1    
   132   65   66 2    
   133   67   68 2    
   134   67   69 am   BACKBONE|DICT|INTERRES
   135   69   70 1    
   136   69  190 1    
   137   70   71 1    
   138   70   72 1    
   139   70  191 1    
   140   71  192 1    
   141   71  193 1    
   142   71  194 1    
   143   72   73 2    
   144   72   74 am   BACKBONE|DICT|INTERRES
   145   74   75 1    
   146   74  195 1    
   147   75   76 1    
   148   75   77 1    
   149   75  196 1    
   150   76  197 1    
   151   76  198 1    
   152   76  199 1    
   153   77   78 2    
   154   77   79 am   BACKBONE|DICT|INTERRES
   155   79   80 1    
   156   79  200 1    
   157   80   81 1    
   158   80   82 1    
   159   80  201 1    
   160   81  202 1    
   161   81  203 1    
   162   81  204 1    
   163   82   83 2    
   164   82   84 am   BACKBONE|DICT|INTERRES
   165   84   85 1    
   166   84  205 1    
   167   85   86 1    
   168   85   87 1    
   169   85  206 1    
   170   86  207 1    
   171   86  208 1    
   172   86  209 1    
   173   87   88 2    
   174   87   89 am   BACKBONE|DICT|INTERRES
   175   89   90 1    
   176   89  210 1    
   177   90   91 1    
   178   90   92 1    
   179   90  211 1    
   180   91  212 1    
   181   91  213 1    
   182   91  214 1    
   183   92   93 2    
   184   92   94 am   BACKBONE|DICT|INTERRES
   185   94   95 1    
   186   94  215 1    
   187   95   96 1    
   188   95   97 1    
   189   95  216 1    
   190   96  217 1    
   191   96  218 1    
   192   96  219 1    
   193   97   98 2    
   194   97   99 am   BACKBONE|DICT|INTERRES
   195   99  100 1    
   196   99  220 1    
   197  100  101 1    
   198  100  102 1    
   199  100  221 1    
   200  101  222 1    
   201  101  223 1    
   202  101  224 1    
   203  102  103 2    
   204  102  104 am   BACKBONE|DICT|INTERRES
   205  104  105 1    
   206  104  225 1    
   207  105  106 1    
   208  105  107 1    
   209  105  226 1    
   210  106  227 1    
   211  106  228 1    
   212  106  229 1    
   213  107  108 2    
   214  107  109 am   BACKBONE|DICT|INTERRES
   215  109  110 1    
   216  109  230 1    
   217  110  111 1    
   218  110  112 1    
   219  110  231 1    
   220  111  232 1    
   221  111  233 1    
   222  111  234 1    
   223  112  113 2    
   224  112  114 am   BACKBONE|DICT|INTERRES
   225  114  115 1    
   226  114  235 1    
   227  115  116 1    
   228  115  117 1    
   229  115  236 1    
   230  116  237 1    
   231  116  238 1    
   232  116  239 1    
   233  117  118 2    
   234  117  119 am   BACKBONE|DICT|INTERRES
   235  119  120 1    
   236  119  240 1    
   237  120  121 1    
   238  120  124 1    
   239  120  241 1    
   240  121  122 am   BACKBONE|DICT|INTERRES
   241  121  123 2    
   242  122  242 1    
   243  122  243 1    
   244  124  125 1    
   245  124  244 1    
   246  124  245 1    
   247  125  126 1    
   248  126  246 1    
   249  126  247 1    
@<TRIPOS>SUBSTRUCTURE
     1 UNK         1 GROUP             0       ****    0 ROOT    
