@<TRIPOS>MOLECULE
3R540
247   249    1
SMALL
USER_CHARGES


@<TRIPOS>ATOM
      1 CA          4.0600  -15.0355  -44.3917 C.3       0 UNK        -0.1800 
      2 C           2.8211  -14.2223  -44.7345 C.2       0 UNK         0.5000 
      3 O           2.4956  -13.2660  -44.0301 O.2       0 UNK        -0.5000 
      4 N           2.1275  -14.5830  -45.8230 N.am      1 UNK        -0.5000 
      5 CA          0.8573  -13.9783  -46.2472 C.3       1 UNK         0.1400 
      6 C6          0.1584  -14.8154  -47.3472 C.3       23 UNK        -0.0398 
      7 S7         -1.6577  -14.6445  -47.2781 S.3       23 UNK        -0.2404 
      8 C8         -2.2123  -16.3663  -47.4911 C.3       23 UNK        -0.0205 
      9 C9         -1.8895  -16.9250  -48.8709 C.ar      23 UNK        -0.0193 
     10 C10        -2.3403  -16.2726  -50.0225 C.ar      23 UNK        -0.1150 
     11 C11        -2.0701  -16.7981  -51.2877 C.ar      23 UNK        -0.0193 
     12 C12        -1.3555  -17.9941  -51.3967 C.ar      23 UNK        -0.1150 
     13 C13        -0.8998  -18.6627  -50.2563 C.ar      23 UNK        -0.0193 
     14 C14        -1.1697  -18.1173  -48.9951 C.ar      23 UNK        -0.1150 
     15 C15        -0.1868  -20.0012  -50.4271 C.3       23 UNK        -0.0205 
     16 S16         1.0099  -20.4233  -49.1166 S.3       23 UNK        -0.2404 
     17 C17         0.9985  -22.2521  -49.2299 C.3       23 UNK        -0.0398 
     18 CA          0.2140  -22.9513  -48.0930 C.3       11 UNK         0.1400 
     19 N           0.7832  -22.6196  -46.7829 N.am      11 UNK        -0.5000 
     20 C           0.4345  -23.1341  -45.5996 C.2       10 UNK         0.5000 
     21 O          -0.4564  -23.9717  -45.4684 O.2       10 UNK        -0.5000 
     22 CA          1.1439  -22.5940  -44.3448 C.3       10 UNK         0.1400 
     23 CB          2.2847  -23.5298  -43.9073 C.3       10 UNK        -0.1800 
     24 N           1.6010  -21.2014  -44.4393 N.am      10 UNK        -0.5000 
     25 C           2.5776  -20.6673  -45.1888 C.2       9 UNK         0.5000 
     26 O           3.2181  -21.2886  -46.0364 O.2       9 UNK        -0.5000 
     27 CA          2.8855  -19.1789  -44.9402 C.3       9 UNK         0.1400 
     28 CB          1.9436  -18.2941  -45.7712 C.3       9 UNK        -0.1800 
     29 N           2.7716  -18.8218  -43.5239 N.am      9 UNK        -0.5000 
     30 C           3.5564  -19.3092  -42.5496 C.2       8 UNK         0.5000 
     31 O           4.5458  -20.0137  -42.7523 O.2       8 UNK        -0.5000 
     32 CA          3.1437  -18.9876  -41.1034 C.3       8 UNK         0.1400 
     33 CB          3.7631  -17.6603  -40.6403 C.3       8 UNK        -0.1800 
     34 N           1.6868  -18.9367  -40.9615 N.am      8 UNK        -0.5000 
     35 C           0.9021  -20.0196  -40.8516 C.2       7 UNK         0.5000 
     36 O           1.3331  -21.1709  -40.7901 O.2       7 UNK        -0.5000 
     37 CA         -0.6218  -19.7864  -40.8223 C.3       7 UNK         0.1400 
     38 CB         -1.1126  -19.6236  -39.3759 C.3       7 UNK        -0.1800 
     39 N          -1.0395  -18.6213  -41.6030 N.am      7 UNK        -0.5000 
     40 C          -1.0028  -18.5478  -42.9406 C.2       6 UNK         0.5000 
     41 O          -0.6658  -19.4844  -43.6650 O.2       6 UNK        -0.5000 
     42 CA         -1.3449  -17.1807  -43.5691 C.3       6 UNK         0.1400 
     43 CB         -2.8401  -17.0927  -43.9051 C.3       6 UNK        -0.1800 
     44 N          -0.9770  -16.0348  -42.7313 N.am      6 UNK        -0.5000 
     45 C           0.2645  -15.7527  -42.3174 C.2       5 UNK         0.5000 
     46 O           1.2431  -16.4456  -42.6009 O.2       5 UNK        -0.5000 
     47 CA          0.4198  -14.4890  -41.4549 C.3       5 UNK         0.1400 
     48 CB          1.8176  -14.3586  -40.8251 C.3       5 UNK        -0.1800 
     49 N           0.1488  -13.3042  -42.2627 N.am      5 UNK        -0.5000 
     50 C          -1.0541  -12.7362  -42.4193 C.2       4 UNK         0.5000 
     51 O          -2.0765  -13.1866  -41.8992 O.2       4 UNK        -0.5000 
     52 CA         -1.1496  -11.4918  -43.3295 C.3       4 UNK         0.1400 
     53 CB         -2.1350  -10.4371  -42.7850 C.3       4 UNK        -0.1800 
     54 N           0.1456  -10.8865  -43.6638 N.am      4 UNK        -0.5000 
     55 C           1.0145  -10.2689  -42.8460 C.2       3 UNK         0.5000 
     56 O           0.8020  -10.0737  -41.6488 O.2       3 UNK        -0.5000 
     57 CA          2.3583   -9.8165  -43.4593 C.3       3 UNK         0.1400 
     58 CB          3.5419  -10.2042  -42.5552 C.3       3 UNK        -0.1800 
     59 N           2.5723  -10.4152  -44.7778 N.am      3 UNK        -0.5000 
     60 C           2.4652   -9.7839  -45.9550 C.2       2 UNK         0.5000 
     61 O           2.2582   -8.5754  -46.0672 O.2       2 UNK        -0.5000 
     62 CA          2.5768  -10.6541  -47.2272 C.3       2 UNK         0.1400 
     63 CB          4.0030  -10.5940  -47.7944 C.3       2 UNK        -0.1800 
     64 N           2.2100  -12.0580  -47.0119 N.am      2 UNK        -0.5000 
     65 C           0.9935  -12.4890  -46.6451 C.2       1 UNK         0.5000 
     66 O           0.0231  -11.7402  -46.5350 O.2       1 UNK        -0.5000 
     67 C          -1.3085  -22.6933  -48.1973 C.2       11 UNK         0.5000 
     68 O          -1.9867  -23.3506  -48.9915 O.2       11 UNK        -0.5000 
     69 N          -1.8095  -21.7533  -47.3831 N.am      12 UNK        -0.5000 
     70 CA         -3.2269  -21.4385  -47.2241 C.3       12 UNK         0.1400 
     71 CB         -3.3617  -20.0817  -46.5192 C.3       12 UNK        -0.1800 
     72 C          -3.9949  -22.5164  -46.4368 C.2       12 UNK         0.5000 
     73 O          -5.1827  -22.7166  -46.6828 O.2       12 UNK        -0.5000 
     74 N          -3.3148  -23.1876  -45.5000 N.am      13 UNK        -0.5000 
     75 CA         -3.8831  -24.2619  -44.6885 C.3       13 UNK         0.1400 
     76 CB         -3.2162  -24.2578  -43.3034 C.3       13 UNK        -0.1800 
     77 C          -3.7044  -25.6239  -45.3761 C.2       13 UNK         0.5000 
     78 O          -4.6236  -26.4427  -45.3566 O.2       13 UNK        -0.5000 
     79 N          -2.5223  -25.8379  -45.9687 N.am      14 UNK        -0.5000 
     80 CA         -2.1124  -27.0944  -46.5896 C.3       14 UNK         0.1400 
     81 CB         -0.5985  -27.0532  -46.8482 C.3       14 UNK        -0.1800 
     82 C          -2.8667  -27.4250  -47.8885 C.2       14 UNK         0.5000 
     83 O          -3.1298  -28.6021  -48.1399 O.2       14 UNK        -0.5000 
     84 N          -3.1826  -26.4039  -48.6975 N.am      15 UNK        -0.5000 
     85 CA         -3.7600  -26.5827  -50.0304 C.3       15 UNK         0.1400 
     86 CB         -2.6411  -26.9142  -51.0389 C.3       15 UNK        -0.1800 
     87 C          -4.6106  -25.3755  -50.4573 C.2       15 UNK         0.5000 
     88 O          -4.5792  -24.9959  -51.6295 O.2       15 UNK        -0.5000 
     89 N          -5.3415  -24.7740  -49.5064 N.am      16 UNK        -0.5000 
     90 CA         -6.2830  -23.6450  -49.6415 C.3       16 UNK         0.1400 
     91 CB         -7.4443  -24.0026  -50.5893 C.3       16 UNK        -0.1800 
     92 C          -5.6480  -22.2955  -50.0446 C.2       16 UNK         0.5000 
     93 O          -6.0242  -21.2594  -49.4972 O.2       16 UNK        -0.5000 
     94 N          -4.6953  -22.3428  -50.9767 N.am      17 UNK        -0.5000 
     95 CA         -3.8805  -21.2634  -51.5185 C.3       17 UNK         0.1400 
     96 CB         -4.7501  -20.1676  -52.1642 C.3       17 UNK        -0.1800 
     97 C          -2.8984  -21.8979  -52.5180 C.2       17 UNK         0.5000 
     98 O          -2.9345  -21.5802  -53.7093 O.2       17 UNK        -0.5000 
     99 N          -2.0873  -22.8502  -52.0254 N.am      18 UNK        -0.5000 
    100 CA        -1.0666  -23.6131  -52.7678 C.3       18 UNK         0.1400 
    101 CB         0.0766  -22.6778  -53.2200 C.3       18 UNK        -0.1800 
    102 C         -1.6147  -24.4362  -53.9590 C.2       18 UNK         0.5000 
    103 O         -0.8647  -24.7267  -54.8920 O.2       18 UNK        -0.5000 
    104 N         -2.9182  -24.7552  -53.9332 N.am      19 UNK        -0.5000 
    105 CA        -3.7277  -25.3285  -55.0167 C.3       19 UNK         0.1400 
    106 CB        -3.2738  -26.7666  -55.3424 C.3       19 UNK        -0.1800 
    107 C         -3.8146  -24.4375  -56.2805 C.2       19 UNK         0.5000 
    108 O         -4.2377  -24.9192  -57.3327 O.2       19 UNK        -0.5000 
    109 N         -3.4232  -23.1609  -56.1632 N.am      20 UNK        -0.5000 
    110 CA        -3.3350  -22.1964  -57.2594 C.3       20 UNK         0.1400 
    111 CB        -1.9642  -21.5041  -57.1773 C.3       20 UNK        -0.1800 
    112 C         -4.4578  -21.1463  -57.2115 C.2       20 UNK         0.5000 
    113 O         -4.5957  -20.3776  -58.1646 O.2       20 UNK        -0.5000 
    114 N         -5.2087  -21.0922  -56.0985 N.am      21 UNK        -0.5000 
    115 CA        -6.2933  -20.1405  -55.8083 C.3       21 UNK         0.1400 
    116 CB        -7.4997  -20.4015  -56.7341 C.3       21 UNK        -0.1800 
    117 C         -5.8357  -18.6626  -55.8303 C.2       21 UNK         0.5000 
    118 O         -6.6390  -17.7734  -56.1175 O.2       21 UNK        -0.5000 
    119 N         -4.5422  -18.4401  -55.5565 N.am      22 UNK        -0.5000 
    120 CA        -3.8201  -17.1625  -55.6947 C.3       22 UNK         0.1400 
    121 C         -3.6831  -16.6526  -57.1645 C.2       22 UNK         0.5000 
    122 N         -3.9037  -17.4766  -58.1834 N.am      22 UNK        -0.7600 
    123 O         -3.3360  -15.4970  -57.3934 O.2       22 UNK        -0.5000 
    124 C124       -4.3136  -16.0546  -54.7184 C.3       23 UNK        -0.0398 
    125 S125       -4.2442  -16.5760  -52.9716 S.3       23 UNK        -0.2404 
    126 C126       -2.5503  -16.0784  -52.5371 C.3       23 UNK        -0.0205 
    127 H127        3.9024  -15.5745  -43.4578 H         1 UNK         0.0600 
    128 H128        4.2952  -15.7636  -45.1681 H         1 UNK         0.0600 
    129 H129        4.9196  -14.3772  -44.2677 H         1 UNK         0.0600 
    130 H130        2.4633  -15.3490  -46.3883 H         1 UNK         0.3000 
    131 H131        0.2205  -13.9992  -45.3594 H         1 UNK         0.0600 
    132 H132        0.5116  -14.5512  -48.3457 H         1 UNK         0.0800 
    133 H133        0.3986  -15.8716  -47.2183 H         1 UNK         0.0800 
    134 H134       -3.2919  -16.4088  -47.3413 H         1 UNK         0.0800 
    135 H135       -1.7696  -16.9831  -46.7090 H         1 UNK         0.0800 
    136 H136       -2.9050  -15.3551  -49.9332 H         1 UNK         0.1150 
    137 H137       -1.1657  -18.4121  -52.3756 H         1 UNK         0.1150 
    138 H138       -0.8391  -18.6306  -48.1041 H         1 UNK         0.1150 
    139 H139       -0.9509  -20.7739  -50.4740 H         1 UNK         0.0800 
    140 H140        0.3401  -20.0178  -51.3817 H         1 UNK         0.0800 
    141 H141        2.0368  -22.5857  -49.2057 H         1 UNK         0.0800 
    142 H142        0.6202  -22.5723  -50.1997 H         1 UNK         0.0800 
    143 H143        0.3462  -24.0267  -48.2227 H         1 UNK         0.0600 
    144 H144        1.5609  -21.9668  -46.7873 H         1 UNK         0.3000 
    145 H145        0.3972  -22.5970  -43.5490 H         1 UNK         0.0600 
    146 H146        2.7423  -23.1826  -42.9806 H         1 UNK         0.0600 
    147 H147        1.9120  -24.5392  -43.7283 H         1 UNK         0.0600 
    148 H148        3.0673  -23.6013  -44.6630 H         1 UNK         0.0600 
    149 H149        1.0680  -20.5534  -43.8690 H         1 UNK         0.3000 
    150 H150        3.9127  -18.9833  -45.2544 H         1 UNK         0.0600 
    151 H151        2.1403  -18.4119  -46.8375 H         1 UNK         0.0600 
    152 H152        2.0761  -17.2438  -45.5246 H         1 UNK         0.0600 
    153 H153        0.8959  -18.5437  -45.6062 H         1 UNK         0.0600 
    154 H154        2.0304  -18.1794  -43.2657 H         1 UNK         0.3000 
    155 H155        3.5314  -19.7794  -40.4586 H         1 UNK         0.0600 
    156 H156        3.4850  -16.8324  -41.2914 H         1 UNK         0.0600 
    157 H157        4.8519  -17.7210  -40.6433 H         1 UNK         0.0600 
    158 H158        3.4540  -17.4110  -39.6252 H         1 UNK         0.0600 
    159 H159        1.2583  -18.0284  -41.0743 H         1 UNK         0.3000 
    160 H160       -1.1002  -20.6715  -41.2477 H         1 UNK         0.0600 
    161 H161       -2.1981  -19.5314  -39.3357 H         1 UNK         0.0600 
    162 H162       -0.6818  -18.7414  -38.9006 H         1 UNK         0.0600 
    163 H163       -0.8387  -20.4892  -38.7711 H         1 UNK         0.0600 
    164 H164       -1.3357  -17.8072  -41.0853 H         1 UNK         0.3000 
    165 H165       -0.7779  -17.0991  -44.4979 H         1 UNK         0.0600 
    166 H166       -3.1466  -17.9112  -44.5557 H         1 UNK         0.0600 
    167 H167       -3.4576  -17.1385  -43.0073 H         1 UNK         0.0600 
    168 H168       -3.0727  -16.1630  -44.4251 H         1 UNK         0.0600 
    169 H169       -1.7210  -15.3990  -42.4720 H         1 UNK         0.3000 
    170 H170       -0.3007  -14.5540  -40.6370 H         1 UNK         0.0600 
    171 H171        2.0209  -15.1957  -40.1571 H         1 UNK         0.0600 
    172 H172        1.8974  -13.4465  -40.2335 H         1 UNK         0.0600 
    173 H173        2.6069  -14.3362  -41.5762 H         1 UNK         0.0600 
    174 H174        0.9379  -12.9423  -42.7882 H         1 UNK         0.3000 
    175 H175       -1.5569  -11.8544  -44.2741 H         1 UNK         0.0600 
    176 H176       -2.1920   -9.5722  -43.4460 H         1 UNK         0.0600 
    177 H177       -3.1421  -10.8477  -42.7044 H         1 UNK         0.0600 
    178 H178       -1.8487  -10.0853  -41.7938 H         1 UNK         0.0600 
    179 H179        0.4077  -10.9810  -44.6381 H         1 UNK         0.3000 
    180 H180        2.3276   -8.7280  -43.5339 H         1 UNK         0.0600 
    181 H181        3.5863  -11.2817  -42.3914 H         1 UNK         0.0600 
    182 H182        3.4656   -9.7257  -41.5782 H         1 UNK         0.0600 
    183 H183        4.4902   -9.8927  -42.9934 H         1 UNK         0.0600 
    184 H184        2.7168  -11.4201  -44.7706 H         1 UNK         0.3000 
    185 H185        1.8930  -10.2385  -47.9703 H         1 UNK         0.0600 
    186 H186        4.7301  -11.0172  -47.1001 H         1 UNK         0.0600 
    187 H187        4.0776  -11.1404  -48.7349 H         1 UNK         0.0600 
    188 H188        4.3010   -9.5639  -47.9944 H         1 UNK         0.0600 
    189 H189        2.9591  -12.7330  -47.0623 H         1 UNK         0.3000 
    190 H190       -1.1655  -21.2561  -46.7858 H         1 UNK         0.3000 
    191 H191       -3.6709  -21.3547  -48.2151 H         1 UNK         0.0600 
    192 H192       -2.9269  -19.2825  -47.1153 H         1 UNK         0.0600 
    193 H193       -2.8692  -20.0860  -45.5460 H         1 UNK         0.0600 
    194 H194       -4.4100  -19.8261  -46.3584 H         1 UNK         0.0600 
    195 H195       -2.3228  -23.0201  -45.3942 H         1 UNK         0.3000 
    196 H196       -4.9524  -24.0926  -44.5440 H         1 UNK         0.0600 
    197 H197       -3.6380  -25.0363  -42.6665 H         1 UNK         0.0600 
    198 H198       -3.3692  -23.3049  -42.7966 H         1 UNK         0.0600 
    199 H199       -2.1418  -24.4334  -43.3670 H         1 UNK         0.0600 
    200 H200       -1.8034  -25.1228  -45.8840 H         1 UNK         0.3000 
    201 H201       -2.3117  -27.8990  -45.8785 H         1 UNK         0.0600 
    202 H202       -0.0442  -26.8873  -45.9241 H         1 UNK         0.0600 
    203 H203       -0.3320  -26.2585  -47.5452 H         1 UNK         0.0600 
    204 H204       -0.2480  -27.9946  -47.2734 H         1 UNK         0.0600 
    205 H205       -2.9224  -25.4598  -48.4394 H         1 UNK         0.3000 
    206 H206       -4.4544  -27.4251  -50.0094 H         1 UNK         0.0600 
    207 H207       -2.1118  -27.8254  -50.7607 H         1 UNK         0.0600 
    208 H208       -3.0425  -27.0746  -52.0395 H         1 UNK         0.0600 
    209 H209       -1.9095  -26.1092  -51.0967 H         1 UNK         0.0600 
    210 H210       -5.2668  -25.1447  -48.5694 H         1 UNK         0.3000 
    211 H211       -6.7161  -23.5022  -48.6510 H         1 UNK         0.0600 
    212 H212       -7.1071  -24.1437  -51.6166 H         1 UNK         0.0600 
    213 H213       -8.1932  -23.2098  -50.6008 H         1 UNK         0.0600 
    214 H214       -7.9449  -24.9172  -50.2718 H         1 UNK         0.0600 
    215 H215       -4.5049  -23.2672  -51.3600 H         1 UNK         0.3000 
    216 H216       -3.2999  -20.8197  -50.7088 H         1 UNK         0.0600 
    217 H217       -4.1353  -19.4590  -52.7184 H         1 UNK         0.0600 
    218 H218       -5.2965  -19.5938  -51.4163 H         1 UNK         0.0600 
    219 H219       -5.4737  -20.5949  -52.8554 H         1 UNK         0.0600 
    220 H220       -2.1637  -23.0760  -51.0380 H         1 UNK         0.3000 
    221 H221       -0.6465  -24.3322  -52.0643 H         1 UNK         0.0600 
    222 H222       -0.2547  -21.9761  -53.9863 H         1 UNK         0.0600 
    223 H223        0.4779  -22.0990  -52.3929 H         1 UNK         0.0600 
    224 H224        0.9080  -23.2462  -53.6384 H         1 UNK         0.0600 
    225 H225       -3.4420  -24.5493  -53.0880 H         1 UNK         0.3000 
    226 H226       -4.7440  -25.3877  -54.6247 H         1 UNK         0.0600 
    227 H227       -3.2333  -27.3818  -54.4441 H         1 UNK         0.0600 
    228 H228       -3.9677  -27.2499  -56.0309 H         1 UNK         0.0600 
    229 H229       -2.2882  -26.7863  -55.8079 H         1 UNK         0.0600 
    230 H230       -3.1053  -22.8287  -55.2578 H         1 UNK         0.3000 
    231 H231       -3.4035  -22.7040  -58.2236 H         1 UNK         0.0600 
    232 H232       -1.1535  -22.2302  -57.2425 H         1 UNK         0.0600 
    233 H233       -1.8449  -20.9553  -56.2421 H         1 UNK         0.0600 
    234 H234       -1.8311  -20.7945  -57.9949 H         1 UNK         0.0600 
    235 H235       -4.9858  -21.7443  -55.3600 H         1 UNK         0.3000 
    236 H236       -6.6224  -20.3417  -54.7895 H         1 UNK         0.0600 
    237 H237       -8.3619  -19.8058  -56.4321 H         1 UNK         0.0600 
    238 H238       -7.2769  -20.1502  -57.7714 H         1 UNK         0.0600 
    239 H239       -7.8034  -21.4478  -56.7002 H         1 UNK         0.0600 
    240 H240       -3.9707  -19.2392  -55.3236 H         1 UNK         0.3000 
    241 H241       -2.7941  -17.3956  -55.4093 H         1 UNK         0.0600 
    242 H242       -3.7986  -17.1311  -59.1241 H         1 UNK         0.3800 
    243 H243       -4.1840  -18.4412  -58.0378 H         1 UNK         0.3800 
    244 H244       -3.7189  -15.1461  -54.8266 H         1 UNK         0.0800 
    245 H245       -5.3392  -15.7677  -54.9524 H         1 UNK         0.0800 
    246 H246       -2.5168  -14.9982  -52.3875 H         1 UNK         0.0800 
    247 H247       -1.8755  -16.2953  -53.3664 H         1 UNK         0.0800 
@<TRIPOS>BOND
     1    1    2 1    
     2    1  127 1    
     3    1  128 1    
     4    1  129 1    
     5    2    3 2    
     6    2    4 am   BACKBONE|DICT|INTERRES
     7    4    5 1    
     8    4  130 1    
     9    5    6 1    
    10    5   65 1    
    11    5  131 1    
    12    6    7 1    
    13    6  132 1    
    14    6  133 1    
    15    7    8 1    
    16    8    9 1    
    17    8  134 1    
    18    8  135 1    
    19    9   10 ar   
    20    9   14 ar   
    21   10   11 ar   
    22   10  136 1    
    23   11   12 ar   
    24   11  126 1    
    25   12   13 ar   
    26   12  137 1    
    27   13   14 ar   
    28   13   15 1    
    29   14  138 1    
    30   15   16 1    
    31   15  139 1    
    32   15  140 1    
    33   16   17 1    
    34   17   18 1    
    35   17  141 1    
    36   17  142 1    
    37   18   19 1    
    38   18   67 1    
    39   18  143 1    
    40   19   20 am   BACKBONE|DICT|INTERRES
    41   19  144 1    
    42   20   21 2    
    43   20   22 1    
    44   22   23 1    
    45   22   24 1    
    46   22  145 1    
    47   23  146 1    
    48   23  147 1    
    49   23  148 1    
    50   24   25 am   BACKBONE|DICT|INTERRES
    51   24  149 1    
    52   25   26 2    
    53   25   27 1    
    54   27   28 1    
    55   27   29 1    
    56   27  150 1    
    57   28  151 1    
    58   28  152 1    
    59   28  153 1    
    60   29   30 am   BACKBONE|DICT|INTERRES
    61   29  154 1    
    62   30   31 2    
    63   30   32 1    
    64   32   33 1    
    65   32   34 1    
    66   32  155 1    
    67   33  156 1    
    68   33  157 1    
    69   33  158 1    
    70   34   35 am   BACKBONE|DICT|INTERRES
    71   34  159 1    
    72   35   36 2    
    73   35   37 1    
    74   37   38 1    
    75   37   39 1    
    76   37  160 1    
    77   38  161 1    
    78   38  162 1    
    79   38  163 1    
    80   39   40 am   BACKBONE|DICT|INTERRES
    81   39  164 1    
    82   40   41 2    
    83   40   42 1    
    84   42   43 1    
    85   42   44 1    
    86   42  165 1    
    87   43  166 1    
    88   43  167 1    
    89   43  168 1    
    90   44   45 am   BACKBONE|DICT|INTERRES
    91   44  169 1    
    92   45   46 2    
    93   45   47 1    
    94   47   48 1    
    95   47   49 1    
    96   47  170 1    
    97   48  171 1    
    98   48  172 1    
    99   48  173 1    
   100   49   50 am   BACKBONE|DICT|INTERRES
   101   49  174 1    
   102   50   51 2    
   103   50   52 1    
   104   52   53 1    
   105   52   54 1    
   106   52  175 1    
   107   53  176 1    
   108   53  177 1    
   109   53  178 1    
   110   54   55 am   BACKBONE|DICT|INTERRES
   111   54  179 1    
   112   55   56 2    
   113   55   57 1    
   114   57   58 1    
   115   57   59 1    
   116   57  180 1    
   117   58  181 1    
   118   58  182 1    
   119   58  183 1    
   120   59   60 am   BACKBONE|DICT|INTERRES
   121   59  184 1    
   122   60   61 2    
   123   60   62 1    
   124   62   63 1    
   125   62   64 1    
   126   62  185 1    
   127   63  186 1    
   128   63  187 1    
   129   63  188 1    
   130   64   65 am   BACKBONE|DICT|INTERRES
   131   64  189 1    
   132   65   66 2    
   133   67   68 2    
   134   67   69 am   BACKBONE|DICT|INTERRES
   135   69   70 1    
   136   69  190 1    
   137   70   71 1    
   138   70   72 1    
   139   70  191 1    
   140   71  192 1    
   141   71  193 1    
   142   71  194 1    
   143   72   73 2    
   144   72   74 am   BACKBONE|DICT|INTERRES
   145   74   75 1    
   146   74  195 1    
   147   75   76 1    
   148   75   77 1    
   149   75  196 1    
   150   76  197 1    
   151   76  198 1    
   152   76  199 1    
   153   77   78 2    
   154   77   79 am   BACKBONE|DICT|INTERRES
   155   79   80 1    
   156   79  200 1    
   157   80   81 1    
   158   80   82 1    
   159   80  201 1    
   160   81  202 1    
   161   81  203 1    
   162   81  204 1    
   163   82   83 2    
   164   82   84 am   BACKBONE|DICT|INTERRES
   165   84   85 1    
   166   84  205 1    
   167   85   86 1    
   168   85   87 1    
   169   85  206 1    
   170   86  207 1    
   171   86  208 1    
   172   86  209 1    
   173   87   88 2    
   174   87   89 am   BACKBONE|DICT|INTERRES
   175   89   90 1    
   176   89  210 1    
   177   90   91 1    
   178   90   92 1    
   179   90  211 1    
   180   91  212 1    
   181   91  213 1    
   182   91  214 1    
   183   92   93 2    
   184   92   94 am   BACKBONE|DICT|INTERRES
   185   94   95 1    
   186   94  215 1    
   187   95   96 1    
   188   95   97 1    
   189   95  216 1    
   190   96  217 1    
   191   96  218 1    
   192   96  219 1    
   193   97   98 2    
   194   97   99 am   BACKBONE|DICT|INTERRES
   195   99  100 1    
   196   99  220 1    
   197  100  101 1    
   198  100  102 1    
   199  100  221 1    
   200  101  222 1    
   201  101  223 1    
   202  101  224 1    
   203  102  103 2    
   204  102  104 am   BACKBONE|DICT|INTERRES
   205  104  105 1    
   206  104  225 1    
   207  105  106 1    
   208  105  107 1    
   209  105  226 1    
   210  106  227 1    
   211  106  228 1    
   212  106  229 1    
   213  107  108 2    
   214  107  109 am   BACKBONE|DICT|INTERRES
   215  109  110 1    
   216  109  230 1    
   217  110  111 1    
   218  110  112 1    
   219  110  231 1    
   220  111  232 1    
   221  111  233 1    
   222  111  234 1    
   223  112  113 2    
   224  112  114 am   BACKBONE|DICT|INTERRES
   225  114  115 1    
   226  114  235 1    
   227  115  116 1    
   228  115  117 1    
   229  115  236 1    
   230  116  237 1    
   231  116  238 1    
   232  116  239 1    
   233  117  118 2    
   234  117  119 am   BACKBONE|DICT|INTERRES
   235  119  120 1    
   236  119  240 1    
   237  120  121 1    
   238  120  124 1    
   239  120  241 1    
   240  121  122 am   BACKBONE|DICT|INTERRES
   241  121  123 2    
   242  122  242 1    
   243  122  243 1    
   244  124  125 1    
   245  124  244 1    
   246  124  245 1    
   247  125  126 1    
   248  126  246 1    
   249  126  247 1    
@<TRIPOS>SUBSTRUCTURE
     1 UNK         1 GROUP             0       ****    0 ROOT    
