@<TRIPOS>MOLECULE
3R540
247   249    1
SMALL
USER_CHARGES


@<TRIPOS>ATOM
      1 CA          2.5661   -9.6205  -45.6620 C.3       0 UNK        -0.1800 
      2 C           1.6481  -10.8273  -45.5267 C.2       0 UNK         0.5000 
      3 O           2.1302  -11.9573  -45.5665 O.2       0 UNK        -0.5000 
      4 N           0.3385  -10.5744  -45.3886 N.am      1 UNK        -0.5000 
      5 CA         -0.8031  -11.4897  -45.2047 C.3       1 UNK         0.1400 
      6 C6         -0.8624  -12.1827  -43.8102 C.3       23 UNK        -0.0398 
      7 S7          0.2391  -13.6226  -43.5565 S.3       23 UNK        -0.2404 
      8 C8         -0.6979  -14.6243  -42.3484 C.3       23 UNK        -0.0205 
      9 C9         -1.8164  -15.5121  -42.9040 C.ar      23 UNK        -0.0193 
     10 C10        -2.2887  -15.4248  -44.2201 C.ar      23 UNK        -0.1150 
     11 C11        -3.3395  -16.2329  -44.6628 C.ar      23 UNK        -0.0193 
     12 C12        -3.9214  -17.1481  -43.7816 C.ar      23 UNK        -0.1150 
     13 C13        -3.4545  -17.2612  -42.4688 C.ar      23 UNK        -0.0193 
     14 C14        -2.4071  -16.4405  -42.0405 C.ar      23 UNK        -0.1150 
     15 C15        -4.0960  -18.2451  -41.4995 C.3       23 UNK        -0.0205 
     16 S16        -3.1287  -19.7808  -41.3294 S.3       23 UNK        -0.2404 
     17 C17        -3.4201  -20.5857  -42.9417 C.3       23 UNK        -0.0398 
     18 CA         -2.2264  -20.3895  -43.9213 C.3       11 UNK         0.1400 
     19 N          -0.9523  -20.9326  -43.4334 N.am      11 UNK        -0.5000 
     20 C          -0.6928  -22.2072  -43.1145 C.2       10 UNK         0.5000 
     21 O          -1.5452  -23.0972  -43.1075 O.2       10 UNK        -0.5000 
     22 CA          0.7597  -22.5660  -42.7483 C.3       10 UNK         0.1400 
     23 CB          1.2858  -23.6979  -43.6445 C.3       10 UNK        -0.1800 
     24 N           1.6842  -21.4328  -42.8505 N.am      10 UNK        -0.5000 
     25 C           2.1335  -20.7266  -41.8057 C.2       9 UNK         0.5000 
     26 O           1.7315  -20.8783  -40.6514 O.2       9 UNK        -0.5000 
     27 CA          3.2416  -19.6973  -42.0897 C.3       9 UNK         0.1400 
     28 CB          4.5827  -20.4023  -42.3479 C.3       9 UNK        -0.1800 
     29 N           2.9378  -18.8127  -43.2121 N.am      9 UNK        -0.5000 
     30 C           2.0270  -17.8304  -43.1811 C.2       8 UNK         0.5000 
     31 O           1.3162  -17.5906  -42.2056 O.2       8 UNK        -0.5000 
     32 CA          1.8963  -16.9723  -44.4537 C.3       8 UNK         0.1400 
     33 CB          3.0080  -15.9121  -44.5124 C.3       8 UNK        -0.1800 
     34 N           1.9229  -17.7903  -45.6665 N.am      8 UNK        -0.5000 
     35 C           0.9188  -18.5981  -46.0310 C.2       7 UNK         0.5000 
     36 O          -0.1510  -18.6402  -45.4341 O.2       7 UNK        -0.5000 
     37 CA          1.1506  -19.5485  -47.2205 C.3       7 UNK         0.1400 
     38 CB          0.6428  -18.9543  -48.5427 C.3       7 UNK        -0.1800 
     39 N           2.5517  -19.9369  -47.3685 N.am      7 UNK        -0.5000 
     40 C           3.2053  -20.7475  -46.5254 C.2       6 UNK         0.5000 
     41 O           2.6900  -21.2797  -45.5432 O.2       6 UNK        -0.5000 
     42 CA          4.7052  -20.9484  -46.8024 C.3       6 UNK         0.1400 
     43 CB          4.9171  -21.9793  -47.9213 C.3       6 UNK        -0.1800 
     44 N           5.3722  -19.6934  -47.1562 N.am      6 UNK        -0.5000 
     45 C           5.5201  -18.6590  -46.3159 C.2       5 UNK         0.5000 
     46 O           5.1538  -18.6789  -45.1417 O.2       5 UNK        -0.5000 
     47 CA          6.1354  -17.3716  -46.8947 C.3       5 UNK         0.1400 
     48 CB          7.6669  -17.4110  -46.7873 C.3       5 UNK        -0.1800 
     49 N           5.7515  -17.1132  -48.2859 N.am      5 UNK        -0.5000 
     50 C           4.4999  -16.8790  -48.7011 C.2       4 UNK         0.5000 
     51 O           3.5149  -16.8980  -47.9601 O.2       4 UNK        -0.5000 
     52 CA          4.3158  -16.6300  -50.2019 C.3       4 UNK         0.1400 
     53 CB          4.2277  -17.9624  -50.9659 C.3       4 UNK        -0.1800 
     54 N           3.0918  -15.8660  -50.4200 N.am      4 UNK        -0.5000 
     55 C           2.9016  -14.9763  -51.4013 C.2       3 UNK         0.5000 
     56 O           3.7616  -14.6964  -52.2381 O.2       3 UNK        -0.5000 
     57 CA          1.5229  -14.2915  -51.4914 C.3       3 UNK         0.1400 
     58 CB          0.7281  -14.8581  -52.6782 C.3       3 UNK        -0.1800 
     59 N           0.7139  -14.4335  -50.2802 N.am      3 UNK        -0.5000 
     60 C           0.8630  -13.7075  -49.1678 C.2       2 UNK         0.5000 
     61 O           1.7196  -12.8300  -49.0305 O.2       2 UNK        -0.5000 
     62 CA         -0.1055  -14.0419  -48.0241 C.3       2 UNK         0.1400 
     63 CB          0.2715  -15.3811  -47.3800 C.3       2 UNK        -0.1800 
     64 N          -0.0469  -13.0152  -46.9922 N.am      2 UNK        -0.5000 
     65 C          -1.0907  -12.4587  -46.3756 C.2       1 UNK         0.5000 
     66 O          -2.2613  -12.6831  -46.6871 O.2       1 UNK        -0.5000 
     67 C          -2.5285  -20.8626  -45.3656 C.2       11 UNK         0.5000 
     68 O          -1.6957  -21.5148  -46.0050 O.2       11 UNK        -0.5000 
     69 N          -3.7212  -20.5144  -45.8727 N.am      12 UNK        -0.5000 
     70 CA         -4.1648  -20.7446  -47.2513 C.3       12 UNK         0.1400 
     71 CB         -5.5451  -20.1015  -47.4517 C.3       12 UNK        -0.1800 
     72 C          -4.1853  -22.2188  -47.6984 C.2       12 UNK         0.5000 
     73 O          -4.1762  -22.4735  -48.9003 O.2       12 UNK        -0.5000 
     74 N          -4.1547  -23.1657  -46.7507 N.am      13 UNK        -0.5000 
     75 CA         -4.0083  -24.6014  -46.9982 C.3       13 UNK         0.1400 
     76 CB         -3.9936  -25.3445  -45.6547 C.3       13 UNK        -0.1800 
     77 C          -2.7573  -24.9604  -47.8283 C.2       13 UNK         0.5000 
     78 O          -2.8313  -25.8460  -48.6813 O.2       13 UNK        -0.5000 
     79 N          -1.6523  -24.2320  -47.6082 N.am      14 UNK        -0.5000 
     80 CA         -0.4145  -24.3689  -48.3797 C.3       14 UNK         0.1400 
     81 CB          0.7533  -23.7756  -47.5799 C.3       14 UNK        -0.1800 
     82 C          -0.4970  -23.7375  -49.7831 C.2       14 UNK         0.5000 
     83 O           0.2840  -24.1117  -50.6584 O.2       14 UNK        -0.5000 
     84 N          -1.4544  -22.8259  -49.9986 N.am      15 UNK        -0.5000 
     85 CA         -1.7361  -22.1762  -51.2775 C.3       15 UNK         0.1400 
     86 CB         -2.2440  -20.7503  -51.0069 C.3       15 UNK        -0.1800 
     87 C          -2.7223  -23.0299  -52.0991 C.2       15 UNK         0.5000 
     88 O          -3.8081  -22.5659  -52.4585 O.2       15 UNK        -0.5000 
     89 N          -2.3134  -24.2805  -52.3584 N.am      16 UNK        -0.5000 
     90 CA         -3.0094  -25.3078  -53.1374 C.3       16 UNK         0.1400 
     91 CB         -3.0390  -24.9092  -54.6287 C.3       16 UNK        -0.1800 
     92 C          -4.4070  -25.6427  -52.5778 C.2       16 UNK         0.5000 
     93 O          -5.3794  -25.6618  -53.3314 O.2       16 UNK        -0.5000 
     94 N          -4.4952  -25.8630  -51.2560 N.am      17 UNK        -0.5000 
     95 CA         -5.7356  -26.1117  -50.5057 C.3       17 UNK         0.1400 
     96 CB         -6.3405  -27.4816  -50.8785 C.3       17 UNK        -0.1800 
     97 C          -6.7417  -24.9460  -50.6354 C.2       17 UNK         0.5000 
     98 O          -7.9412  -25.1684  -50.8056 O.2       17 UNK        -0.5000 
     99 N          -6.2028  -23.7205  -50.5853 N.am      18 UNK        -0.5000 
    100 CA        -6.8561  -22.4220  -50.7526 C.3       18 UNK         0.1400 
    101 CB        -7.9551  -22.2005  -49.6939 C.3       18 UNK        -0.1800 
    102 C         -7.3374  -22.1173  -52.1849 C.2       18 UNK         0.5000 
    103 O         -7.9670  -21.0776  -52.3850 O.2       18 UNK        -0.5000 
    104 N         -6.9984  -22.9590  -53.1745 N.am      19 UNK        -0.5000 
    105 CA        -7.3240  -22.7301  -54.5866 C.3       19 UNK         0.1400 
    106 CB        -7.0661  -24.0030  -55.4046 C.3       19 UNK        -0.1800 
    107 C         -6.5636  -21.5362  -55.1946 C.2       19 UNK         0.5000 
    108 O         -7.0848  -20.8967  -56.1088 O.2       19 UNK        -0.5000 
    109 N         -5.3725  -21.2316  -54.6580 N.am      20 UNK        -0.5000 
    110 CA        -4.5863  -20.0467  -55.0082 C.3       20 UNK         0.1400 
    111 CB        -3.0939  -20.4158  -55.0341 C.3       20 UNK        -0.1800 
    112 C         -4.8784  -18.8484  -54.0776 C.2       20 UNK         0.5000 
    113 O         -4.1724  -17.8427  -54.1583 O.2       20 UNK        -0.5000 
    114 N         -5.9063  -18.9615  -53.2185 N.am      21 UNK        -0.5000 
    115 CA        -6.4898  -17.9098  -52.3738 C.3       21 UNK         0.1400 
    116 CB        -7.2778  -16.9153  -53.2510 C.3       21 UNK        -0.1800 
    117 C         -5.4784  -17.2097  -51.4404 C.2       21 UNK         0.5000 
    118 O         -5.5270  -15.9893  -51.2772 O.2       21 UNK        -0.5000 
    119 N         -4.5707  -18.0022  -50.8553 N.am      22 UNK        -0.5000 
    120 CA        -3.4396  -17.5479  -50.0249 C.3       22 UNK         0.1400 
    121 C         -2.2774  -16.8822  -50.8274 C.2       22 UNK         0.5000 
    122 N         -2.2777  -16.8995  -52.1552 N.am      22 UNK        -0.7600 
    123 O         -1.3341  -16.3620  -50.2421 O.2       22 UNK        -0.5000 
    124 C124       -3.8874  -16.7143  -48.7869 C.3       23 UNK        -0.0398 
    125 S125       -2.9738  -17.1289  -47.2638 S.3       23 UNK        -0.2404 
    126 C126       -3.8725  -16.0826  -46.0797 C.3       23 UNK        -0.0205 
    127 H127        2.0146   -8.6811  -45.6156 H         1 UNK         0.0600 
    128 H128        3.0949   -9.6576  -46.6145 H         1 UNK         0.0600 
    129 H129        3.3050   -9.6206  -44.8607 H         1 UNK         0.0600 
    130 H130        0.0636   -9.6021  -45.4083 H         1 UNK         0.3000 
    131 H131       -1.6527  -10.8046  -45.2159 H         1 UNK         0.0600 
    132 H132       -1.8878  -12.5054  -43.6225 H         1 UNK         0.0800 
    133 H133       -0.6445  -11.4526  -43.0300 H         1 UNK         0.0800 
    134 H134       -1.1152  -13.9625  -41.5883 H         1 UNK         0.0800 
    135 H135        0.0202  -15.2622  -41.8321 H         1 UNK         0.0800 
    136 H136       -1.8558  -14.7223  -44.9122 H         1 UNK         0.1150 
    137 H137       -4.7429  -17.7646  -44.1169 H         1 UNK         0.1150 
    138 H138       -2.0519  -16.5233  -41.0227 H         1 UNK         0.1150 
    139 H139       -4.1803  -17.7775  -40.5174 H         1 UNK         0.0800 
    140 H140       -5.1161  -18.4818  -41.8058 H         1 UNK         0.0800 
    141 H141       -4.3458  -20.1822  -43.3512 H         1 UNK         0.0800 
    142 H142       -3.6184  -21.6435  -42.7689 H         1 UNK         0.0800 
    143 H143       -2.0692  -19.3150  -44.0018 H         1 UNK         0.0600 
    144 H144       -0.1773  -20.2857  -43.4555 H         1 UNK         0.3000 
    145 H145        0.7397  -22.9424  -41.7237 H         1 UNK         0.0600 
    146 H146        2.2946  -23.9937  -43.3563 H         1 UNK         0.0600 
    147 H147        0.6551  -24.5852  -43.5789 H         1 UNK         0.0600 
    148 H148        1.3133  -23.3886  -44.6876 H         1 UNK         0.0600 
    149 H149        2.0665  -21.2531  -43.7773 H         1 UNK         0.3000 
    150 H150        3.3570  -19.0805  -41.1958 H         1 UNK         0.0600 
    151 H151        4.8392  -21.0711  -41.5254 H         1 UNK         0.0600 
    152 H152        5.3938  -19.6803  -42.4450 H         1 UNK         0.0600 
    153 H153        4.5564  -20.9977  -43.2614 H         1 UNK         0.0600 
    154 H154        3.5232  -18.9082  -44.0361 H         1 UNK         0.3000 
    155 H155        0.9361  -16.4539  -44.4121 H         1 UNK         0.0600 
    156 H156        3.9994  -16.3623  -44.5398 H         1 UNK         0.0600 
    157 H157        2.9691  -15.2644  -43.6360 H         1 UNK         0.0600 
    158 H158        2.9067  -15.2724  -45.3885 H         1 UNK         0.0600 
    159 H159        2.7439  -17.7289  -46.2572 H         1 UNK         0.3000 
    160 H160        0.5687  -20.4490  -47.0202 H         1 UNK         0.0600 
    161 H161        0.6814  -19.6928  -49.3433 H         1 UNK         0.0600 
    162 H162        1.2350  -18.0948  -48.8552 H         1 UNK         0.0600 
    163 H163       -0.3943  -18.6283  -48.4516 H         1 UNK         0.0600 
    164 H164        3.0669  -19.4945  -48.1139 H         1 UNK         0.3000 
    165 H165        5.1649  -21.3341  -45.8898 H         1 UNK         0.0600 
    166 H166        5.9770  -22.1855  -48.0710 H         1 UNK         0.0600 
    167 H167        4.4342  -22.9260  -47.6748 H         1 UNK         0.0600 
    168 H168        4.5037  -21.6378  -48.8711 H         1 UNK         0.0600 
    169 H169        5.7058  -19.5988  -48.1038 H         1 UNK         0.3000 
    170 H170        5.7743  -16.5362  -46.2914 H         1 UNK         0.0600 
    171 H171        7.9814  -17.5813  -45.7566 H         1 UNK         0.0600 
    172 H172        8.0940  -18.2081  -47.3969 H         1 UNK         0.0600 
    173 H173        8.1094  -16.4678  -47.1083 H         1 UNK         0.0600 
    174 H174        6.5029  -17.0922  -48.9604 H         1 UNK         0.3000 
    175 H175        5.1769  -16.0604  -50.5577 H         1 UNK         0.0600 
    176 H176        3.3745  -18.5578  -50.6378 H         1 UNK         0.0600 
    177 H177        4.1236  -17.7947  -52.0380 H         1 UNK         0.0600 
    178 H178        5.1261  -18.5629  -50.8187 H         1 UNK         0.0600 
    179 H179        2.3719  -16.0007  -49.7226 H         1 UNK         0.3000 
    180 H180        1.6949  -13.2286  -51.6736 H         1 UNK         0.0600 
    181 H181        0.5576  -15.9295  -52.5671 H         1 UNK         0.0600 
    182 H182        1.2638  -14.7069  -53.6163 H         1 UNK         0.0600 
    183 H183       -0.2410  -14.3682  -52.7752 H         1 UNK         0.0600 
    184 H184       -0.0127  -15.1500  -50.3001 H         1 UNK         0.3000 
    185 H185       -1.1134  -14.1123  -48.4388 H         1 UNK         0.0600 
    186 H186       -0.3443  -15.5973  -46.5080 H         1 UNK         0.0600 
    187 H187        0.1313  -16.2024  -48.0784 H         1 UNK         0.0600 
    188 H188        1.3142  -15.3904  -47.0658 H         1 UNK         0.0600 
    189 H189        0.8861  -12.7468  -46.6858 H         1 UNK         0.3000 
    190 H190       -4.3496  -19.9694  -45.3031 H         1 UNK         0.3000 
    191 H191       -3.4548  -20.2314  -47.9024 H         1 UNK         0.0600 
    192 H192       -5.8685  -20.1849  -48.4899 H         1 UNK         0.0600 
    193 H193       -5.5273  -19.0397  -47.2065 H         1 UNK         0.0600 
    194 H194       -6.3046  -20.5778  -46.8307 H         1 UNK         0.0600 
    195 H195       -4.1420  -22.8699  -45.7863 H         1 UNK         0.3000 
    196 H196       -4.8860  -24.9247  -47.5591 H         1 UNK         0.0600 
    197 H197       -3.8998  -26.4211  -45.8040 H         1 UNK         0.0600 
    198 H198       -4.9158  -25.1739  -45.0989 H         1 UNK         0.0600 
    199 H199       -3.1596  -25.0251  -45.0277 H         1 UNK         0.0600 
    200 H200       -1.6816  -23.4858  -46.9210 H         1 UNK         0.3000 
    201 H201       -0.2109  -25.4322  -48.5232 H         1 UNK         0.0600 
    202 H202        0.5496  -22.7536  -47.2624 H         1 UNK         0.0600 
    203 H203        1.6735  -23.7625  -48.1656 H         1 UNK         0.0600 
    204 H204        0.9484  -24.3745  -46.6917 H         1 UNK         0.0600 
    205 H205       -2.1324  -22.6553  -49.2668 H         1 UNK         0.3000 
    206 H206       -0.8135  -22.0909  -51.8552 H         1 UNK         0.0600 
    207 H207       -1.5578  -20.2128  -50.3534 H         1 UNK         0.0600 
    208 H208       -2.3222  -20.1741  -51.9274 H         1 UNK         0.0600 
    209 H209       -3.2266  -20.7502  -50.5377 H         1 UNK         0.0600 
    210 H210       -1.4096  -24.5497  -51.9879 H         1 UNK         0.3000 
    211 H211       -2.4189  -26.2208  -53.0501 H         1 UNK         0.0600 
    212 H212       -2.0328  -24.7322  -55.0083 H         1 UNK         0.0600 
    213 H213       -3.6216  -24.0026  -54.7953 H         1 UNK         0.0600 
    214 H214       -3.4800  -25.6990  -55.2380 H         1 UNK         0.0600 
    215 H215       -3.6541  -25.8138  -50.6921 H         1 UNK         0.3000 
    216 H216       -5.4580  -26.1600  -49.4536 H         1 UNK         0.0600 
    217 H217       -7.1839  -27.7241  -50.2310 H         1 UNK         0.0600 
    218 H218       -5.6065  -28.2794  -50.7659 H         1 UNK         0.0600 
    219 H219       -6.7033  -27.5018  -51.9065 H         1 UNK         0.0600 
    220 H220       -5.2039  -23.6496  -50.4310 H         1 UNK         0.3000 
    221 H221       -6.0759  -21.6847  -50.5615 H         1 UNK         0.0600 
    222 H222       -8.8182  -22.8446  -49.8623 H         1 UNK         0.0600 
    223 H223       -7.5783  -22.3959  -48.6899 H         1 UNK         0.0600 
    224 H224       -8.3112  -21.1699  -49.7096 H         1 UNK         0.0600 
    225 H225       -6.4554  -23.7873  -52.9596 H         1 UNK         0.3000 
    226 H226       -8.3911  -22.5059  -54.6477 H         1 UNK         0.0600 
    227 H227       -7.4222  -23.8847  -56.4286 H         1 UNK         0.0600 
    228 H228       -6.0035  -24.2395  -55.4568 H         1 UNK         0.0600 
    229 H229       -7.5836  -24.8619  -54.9769 H         1 UNK         0.0600 
    230 H230       -5.0056  -21.8061  -53.9037 H         1 UNK         0.3000 
    231 H231       -4.8490  -19.7195  -56.0161 H         1 UNK         0.0600 
    232 H232       -2.9044  -21.2299  -55.7338 H         1 UNK         0.0600 
    233 H233       -2.7356  -20.7300  -54.0576 H         1 UNK         0.0600 
    234 H234       -2.4832  -19.5694  -55.3504 H         1 UNK         0.0600 
    235 H235       -6.4231  -19.8325  -53.2197 H         1 UNK         0.3000 
    236 H236       -7.2065  -18.4072  -51.7187 H         1 UNK         0.0600 
    237 H237       -8.0121  -17.4323  -53.8689 H         1 UNK         0.0600 
    238 H238       -7.8219  -16.1951  -52.6389 H         1 UNK         0.0600 
    239 H239       -6.6187  -16.3529  -53.9134 H         1 UNK         0.0600 
    240 H240       -4.5919  -18.9865  -51.0750 H         1 UNK         0.3000 
    241 H241       -3.0071  -18.4711  -49.6453 H         1 UNK         0.0600 
    242 H242       -3.0499  -17.2854  -52.6893 H         1 UNK         0.3800 
    243 H243       -1.5124  -16.4713  -52.6465 H         1 UNK         0.3800 
    244 H244       -3.8073  -15.6428  -48.9797 H         1 UNK         0.0800 
    245 H245       -4.9414  -16.8967  -48.5739 H         1 UNK         0.0800 
    246 H246       -3.7961  -15.0403  -46.3938 H         1 UNK         0.0800 
    247 H247       -4.9336  -16.3347  -46.1063 H         1 UNK         0.0800 
@<TRIPOS>BOND
     1    1    2 1    
     2    1  127 1    
     3    1  128 1    
     4    1  129 1    
     5    2    3 2    
     6    2    4 am   BACKBONE|DICT|INTERRES
     7    4    5 1    
     8    4  130 1    
     9    5    6 1    
    10    5   65 1    
    11    5  131 1    
    12    6    7 1    
    13    6  132 1    
    14    6  133 1    
    15    7    8 1    
    16    8    9 1    
    17    8  134 1    
    18    8  135 1    
    19    9   10 ar   
    20    9   14 ar   
    21   10   11 ar   
    22   10  136 1    
    23   11   12 ar   
    24   11  126 1    
    25   12   13 ar   
    26   12  137 1    
    27   13   14 ar   
    28   13   15 1    
    29   14  138 1    
    30   15   16 1    
    31   15  139 1    
    32   15  140 1    
    33   16   17 1    
    34   17   18 1    
    35   17  141 1    
    36   17  142 1    
    37   18   19 1    
    38   18   67 1    
    39   18  143 1    
    40   19   20 am   BACKBONE|DICT|INTERRES
    41   19  144 1    
    42   20   21 2    
    43   20   22 1    
    44   22   23 1    
    45   22   24 1    
    46   22  145 1    
    47   23  146 1    
    48   23  147 1    
    49   23  148 1    
    50   24   25 am   BACKBONE|DICT|INTERRES
    51   24  149 1    
    52   25   26 2    
    53   25   27 1    
    54   27   28 1    
    55   27   29 1    
    56   27  150 1    
    57   28  151 1    
    58   28  152 1    
    59   28  153 1    
    60   29   30 am   BACKBONE|DICT|INTERRES
    61   29  154 1    
    62   30   31 2    
    63   30   32 1    
    64   32   33 1    
    65   32   34 1    
    66   32  155 1    
    67   33  156 1    
    68   33  157 1    
    69   33  158 1    
    70   34   35 am   BACKBONE|DICT|INTERRES
    71   34  159 1    
    72   35   36 2    
    73   35   37 1    
    74   37   38 1    
    75   37   39 1    
    76   37  160 1    
    77   38  161 1    
    78   38  162 1    
    79   38  163 1    
    80   39   40 am   BACKBONE|DICT|INTERRES
    81   39  164 1    
    82   40   41 2    
    83   40   42 1    
    84   42   43 1    
    85   42   44 1    
    86   42  165 1    
    87   43  166 1    
    88   43  167 1    
    89   43  168 1    
    90   44   45 am   BACKBONE|DICT|INTERRES
    91   44  169 1    
    92   45   46 2    
    93   45   47 1    
    94   47   48 1    
    95   47   49 1    
    96   47  170 1    
    97   48  171 1    
    98   48  172 1    
    99   48  173 1    
   100   49   50 am   BACKBONE|DICT|INTERRES
   101   49  174 1    
   102   50   51 2    
   103   50   52 1    
   104   52   53 1    
   105   52   54 1    
   106   52  175 1    
   107   53  176 1    
   108   53  177 1    
   109   53  178 1    
   110   54   55 am   BACKBONE|DICT|INTERRES
   111   54  179 1    
   112   55   56 2    
   113   55   57 1    
   114   57   58 1    
   115   57   59 1    
   116   57  180 1    
   117   58  181 1    
   118   58  182 1    
   119   58  183 1    
   120   59   60 am   BACKBONE|DICT|INTERRES
   121   59  184 1    
   122   60   61 2    
   123   60   62 1    
   124   62   63 1    
   125   62   64 1    
   126   62  185 1    
   127   63  186 1    
   128   63  187 1    
   129   63  188 1    
   130   64   65 am   BACKBONE|DICT|INTERRES
   131   64  189 1    
   132   65   66 2    
   133   67   68 2    
   134   67   69 am   BACKBONE|DICT|INTERRES
   135   69   70 1    
   136   69  190 1    
   137   70   71 1    
   138   70   72 1    
   139   70  191 1    
   140   71  192 1    
   141   71  193 1    
   142   71  194 1    
   143   72   73 2    
   144   72   74 am   BACKBONE|DICT|INTERRES
   145   74   75 1    
   146   74  195 1    
   147   75   76 1    
   148   75   77 1    
   149   75  196 1    
   150   76  197 1    
   151   76  198 1    
   152   76  199 1    
   153   77   78 2    
   154   77   79 am   BACKBONE|DICT|INTERRES
   155   79   80 1    
   156   79  200 1    
   157   80   81 1    
   158   80   82 1    
   159   80  201 1    
   160   81  202 1    
   161   81  203 1    
   162   81  204 1    
   163   82   83 2    
   164   82   84 am   BACKBONE|DICT|INTERRES
   165   84   85 1    
   166   84  205 1    
   167   85   86 1    
   168   85   87 1    
   169   85  206 1    
   170   86  207 1    
   171   86  208 1    
   172   86  209 1    
   173   87   88 2    
   174   87   89 am   BACKBONE|DICT|INTERRES
   175   89   90 1    
   176   89  210 1    
   177   90   91 1    
   178   90   92 1    
   179   90  211 1    
   180   91  212 1    
   181   91  213 1    
   182   91  214 1    
   183   92   93 2    
   184   92   94 am   BACKBONE|DICT|INTERRES
   185   94   95 1    
   186   94  215 1    
   187   95   96 1    
   188   95   97 1    
   189   95  216 1    
   190   96  217 1    
   191   96  218 1    
   192   96  219 1    
   193   97   98 2    
   194   97   99 am   BACKBONE|DICT|INTERRES
   195   99  100 1    
   196   99  220 1    
   197  100  101 1    
   198  100  102 1    
   199  100  221 1    
   200  101  222 1    
   201  101  223 1    
   202  101  224 1    
   203  102  103 2    
   204  102  104 am   BACKBONE|DICT|INTERRES
   205  104  105 1    
   206  104  225 1    
   207  105  106 1    
   208  105  107 1    
   209  105  226 1    
   210  106  227 1    
   211  106  228 1    
   212  106  229 1    
   213  107  108 2    
   214  107  109 am   BACKBONE|DICT|INTERRES
   215  109  110 1    
   216  109  230 1    
   217  110  111 1    
   218  110  112 1    
   219  110  231 1    
   220  111  232 1    
   221  111  233 1    
   222  111  234 1    
   223  112  113 2    
   224  112  114 am   BACKBONE|DICT|INTERRES
   225  114  115 1    
   226  114  235 1    
   227  115  116 1    
   228  115  117 1    
   229  115  236 1    
   230  116  237 1    
   231  116  238 1    
   232  116  239 1    
   233  117  118 2    
   234  117  119 am   BACKBONE|DICT|INTERRES
   235  119  120 1    
   236  119  240 1    
   237  120  121 1    
   238  120  124 1    
   239  120  241 1    
   240  121  122 am   BACKBONE|DICT|INTERRES
   241  121  123 2    
   242  122  242 1    
   243  122  243 1    
   244  124  125 1    
   245  124  244 1    
   246  124  245 1    
   247  125  126 1    
   248  126  246 1    
   249  126  247 1    
@<TRIPOS>SUBSTRUCTURE
     1 UNK         1 GROUP             0       ****    0 ROOT    
