@<TRIPOS>MOLECULE
3R540
247   249    1
SMALL
USER_CHARGES


@<TRIPOS>ATOM
      1 CA         -3.7562  -14.0698  -45.5954 C.3       0 UNK        -0.1800 
      2 C          -2.9785  -13.7094  -46.8526 C.2       0 UNK         0.5000 
      3 O          -2.4956  -12.5837  -46.9680 O.2       0 UNK        -0.5000 
      4 N          -2.8462  -14.6607  -47.7884 N.am      1 UNK        -0.5000 
      5 CA         -2.1861  -14.4965  -49.0935 C.3       1 UNK         0.1400 
      6 C6         -2.3297  -15.7775  -49.9540 C.3       23 UNK        -0.0398 
      7 S7         -2.1932  -15.4614  -51.7467 S.3       23 UNK        -0.2404 
      8 C8         -0.4822  -15.9785  -52.1031 C.3       23 UNK        -0.0205 
      9 C9         -0.2841  -17.4766  -51.9309 C.ar      23 UNK        -0.0193 
     10 C10        -0.8638  -18.3652  -52.8391 C.ar      23 UNK        -0.1150 
     11 C11        -0.6824  -19.7429  -52.6980 C.ar      23 UNK        -0.0193 
     12 C12         0.0796  -20.2316  -51.6333 C.ar      23 UNK        -0.1150 
     13 C13         0.6777  -19.3534  -50.7245 C.ar      23 UNK        -0.0193 
     14 C14         0.4930  -17.9753  -50.8805 C.ar      23 UNK        -0.1150 
     15 C15         1.5639  -19.8967  -49.6102 C.3       23 UNK        -0.0205 
     16 S16         1.0425  -19.3685  -47.9473 S.3       23 UNK        -0.2404 
     17 C17        -0.5117  -20.2906  -47.7173 C.3       23 UNK        -0.0398 
     18 CA         -0.3193  -21.6866  -47.0736 C.3       11 UNK         0.1400 
     19 N           0.4161  -21.6541  -45.7976 N.am      11 UNK        -0.5000 
     20 C           0.7898  -22.7402  -45.1010 C.2       10 UNK         0.5000 
     21 O           0.5763  -23.8923  -45.4735 O.2       10 UNK        -0.5000 
     22 CA          1.4380  -22.5176  -43.7245 C.3       10 UNK         0.1400 
     23 CB          2.9280  -22.1638  -43.8475 C.3       10 UNK        -0.1800 
     24 N           0.7215  -21.4950  -42.9642 N.am      10 UNK        -0.5000 
     25 C          -0.4802  -21.6955  -42.4027 C.2       9 UNK         0.5000 
     26 O          -1.0458  -22.7890  -42.3854 O.2       9 UNK        -0.5000 
     27 CA         -1.1900  -20.4744  -41.7850 C.3       9 UNK         0.1400 
     28 CB         -0.8565  -20.3570  -40.2906 C.3       9 UNK        -0.1800 
     29 N          -0.8692  -19.2144  -42.4574 N.am      9 UNK        -0.5000 
     30 C          -1.1805  -18.9262  -43.7290 C.2       8 UNK         0.5000 
     31 O          -1.8381  -19.6711  -44.4546 O.2       8 UNK        -0.5000 
     32 CA         -0.6010  -17.6230  -44.3113 C.3       8 UNK         0.1400 
     33 CB         -1.5052  -16.4255  -43.9933 C.3       8 UNK        -0.1800 
     34 N           0.7592  -17.3467  -43.8463 N.am      8 UNK        -0.5000 
     35 C           1.8124  -18.1447  -44.0717 C.2       7 UNK         0.5000 
     36 O           1.7420  -19.1922  -44.7103 O.2       7 UNK        -0.5000 
     37 CA          3.1463  -17.7444  -43.4222 C.3       7 UNK         0.1400 
     38 CB          3.8555  -16.6449  -44.2235 C.3       7 UNK        -0.1800 
     39 N           2.9504  -17.3008  -42.0447 N.am      7 UNK        -0.5000 
     40 C           2.7144  -18.1282  -41.0177 C.2       6 UNK         0.5000 
     41 O           2.6947  -19.3552  -41.1175 O.2       6 UNK        -0.5000 
     42 CA          2.4257  -17.4703  -39.6557 C.3       6 UNK         0.1400 
     43 CB          3.7340  -17.2007  -38.8975 C.3       6 UNK        -0.1800 
     44 N           1.6707  -16.2210  -39.7759 N.am      6 UNK        -0.5000 
     45 C           0.4013  -16.1447  -40.1988 C.2       5 UNK         0.5000 
     46 O          -0.2696  -17.1216  -40.5279 O.2       5 UNK        -0.5000 
     47 CA         -0.2058  -14.7355  -40.3148 C.3       5 UNK         0.1400 
     48 CB         -0.7554  -14.2706  -38.9581 C.3       5 UNK        -0.1800 
     49 N           0.7280  -13.7313  -40.8326 N.am      5 UNK        -0.5000 
     50 C           1.2983  -13.7747  -42.0433 C.2       4 UNK         0.5000 
     51 O           1.1761  -14.7188  -42.8269 O.2       4 UNK        -0.5000 
     52 CA          2.1656  -12.5711  -42.4443 C.3       4 UNK         0.1400 
     53 CB          3.6555  -12.9443  -42.4286 C.3       4 UNK        -0.1800 
     54 N           1.7977  -12.1100  -43.7800 N.am      4 UNK        -0.5000 
     55 C           0.6712  -11.4536  -44.0793 C.2       3 UNK         0.5000 
     56 O          -0.1329  -11.0640  -43.2313 O.2       3 UNK        -0.5000 
     57 CA          0.3761  -11.1988  -45.5698 C.3       3 UNK         0.1400 
     58 CB          1.2053  -10.0216  -46.1182 C.3       3 UNK        -0.1800 
     59 N           0.4899  -12.3917  -46.4198 N.am      3 UNK        -0.5000 
     60 C           1.5832  -13.0909  -46.7633 C.2       2 UNK         0.5000 
     61 O           2.7190  -12.8049  -46.3818 O.2       2 UNK        -0.5000 
     62 CA          1.3884  -14.3322  -47.6613 C.3       2 UNK         0.1400 
     63 CB          1.9994  -15.5823  -47.0150 C.3       2 UNK        -0.1800 
     64 N          -0.0137  -14.6172  -47.9664 N.am      2 UNK        -0.5000 
     65 C          -0.7053  -14.0710  -48.9741 C.2       1 UNK         0.5000 
     66 O          -0.2328  -13.2517  -49.7624 O.2       1 UNK        -0.5000 
     67 C          -1.6899  -22.3843  -46.9389 C.2       11 UNK         0.5000 
     68 O          -2.0901  -23.1278  -47.8363 O.2       11 UNK        -0.5000 
     69 N          -2.3664  -22.1662  -45.8024 N.am      12 UNK        -0.5000 
     70 CA         -3.6340  -22.8017  -45.4440 C.3       12 UNK         0.1400 
     71 CB         -4.1708  -22.1893  -44.1428 C.3       12 UNK        -0.1800 
     72 C          -3.5553  -24.3367  -45.3384 C.2       12 UNK         0.5000 
     73 O          -4.5510  -25.0074  -45.6088 O.2       12 UNK        -0.5000 
     74 N          -2.3792  -24.8623  -44.9746 N.am      13 UNK        -0.5000 
     75 CA         -2.0961  -26.2926  -44.9265 C.3       13 UNK         0.1400 
     76 CB         -1.1197  -26.5771  -43.7733 C.3       13 UNK        -0.1800 
     77 C          -1.5286  -26.7905  -46.2663 C.2       13 UNK         0.5000 
     78 O          -2.0543  -27.7495  -46.8314 O.2       13 UNK        -0.5000 
     79 N          -0.4610  -26.1375  -46.7447 N.am      14 UNK        -0.5000 
     80 CA          0.3478  -26.5703  -47.8852 C.3       14 UNK         0.1400 
     81 CB          1.6620  -25.7740  -47.9005 C.3       14 UNK        -0.1800 
     82 C          -0.3607  -26.4496  -49.2438 C.2       14 UNK         0.5000 
     83 O          -0.1488  -27.3013  -50.1081 O.2       14 UNK        -0.5000 
     84 N          -1.1767  -25.4025  -49.4102 N.am      15 UNK        -0.5000 
     85 CA         -1.9094  -25.1021  -50.6409 C.3       15 UNK         0.1400 
     86 CB         -1.4461  -23.7368  -51.1761 C.3       15 UNK        -0.1800 
     87 C          -3.4314  -25.1374  -50.4185 C.2       15 UNK         0.5000 
     88 O          -4.1749  -24.6390  -51.2631 O.2       15 UNK        -0.5000 
     89 N          -3.8760  -25.6992  -49.2827 N.am      16 UNK        -0.5000 
     90 CA         -5.2761  -25.8805  -48.8734 C.3       16 UNK         0.1400 
     91 CB         -5.9508  -26.9499  -49.7575 C.3       16 UNK        -0.1800 
     92 C          -6.0917  -24.5674  -48.8113 C.2       16 UNK         0.5000 
     93 O          -7.3108  -24.5944  -48.9879 O.2       16 UNK        -0.5000 
     94 N          -5.3964  -23.4433  -48.5787 N.am      17 UNK        -0.5000 
     95 CA         -5.9080  -22.0687  -48.5447 C.3       17 UNK         0.1400 
     96 CB         -6.9567  -21.8858  -47.4248 C.3       17 UNK        -0.1800 
     97 C          -6.4108  -21.5509  -49.9101 C.2       17 UNK         0.5000 
     98 O          -7.1919  -20.5973  -49.9439 O.2       17 UNK        -0.5000 
     99 N          -5.9417  -22.1450  -51.0180 N.am      18 UNK        -0.5000 
    100 CA        -6.2348  -21.7129  -52.3865 C.3       18 UNK         0.1400 
    101 CB        -5.9965  -22.8885  -53.3509 C.3       18 UNK        -0.1800 
    102 C         -5.4083  -20.4662  -52.7627 C.2       18 UNK         0.5000 
    103 O         -4.4940  -20.5521  -53.5820 O.2       18 UNK        -0.5000 
    104 N         -5.7258  -19.3327  -52.1248 N.am      19 UNK        -0.5000 
    105 CA        -5.0860  -18.0300  -52.3123 C.3       19 UNK         0.1400 
    106 CB        -5.7548  -17.0138  -51.3742 C.3       19 UNK        -0.1800 
    107 C         -5.1426  -17.5338  -53.7704 C.2       19 UNK         0.5000 
    108 O         -6.1103  -17.8148  -54.4809 O.2       19 UNK        -0.5000 
    109 N         -4.0923  -16.8122  -54.1826 N.am      20 UNK        -0.5000 
    110 CA        -3.8403  -16.2120  -55.5019 C.3       20 UNK         0.1400 
    111 CB        -4.9311  -15.1859  -55.8629 C.3       20 UNK        -0.1800 
    112 C         -3.6115  -17.2076  -56.6612 C.2       20 UNK         0.5000 
    113 O         -2.9446  -16.8435  -57.6310 O.2       20 UNK        -0.5000 
    114 N         -4.1168  -18.4442  -56.5474 N.am      21 UNK        -0.5000 
    115 CA        -4.0348  -19.5076  -57.5567 C.3       21 UNK         0.1400 
    116 CB        -4.8659  -20.7096  -57.0821 C.3       21 UNK        -0.1800 
    117 C         -2.5982  -19.9512  -57.9007 C.2       21 UNK         0.5000 
    118 O         -2.3676  -20.4707  -58.9934 O.2       21 UNK        -0.5000 
    119 N         -1.6629  -19.7183  -56.9734 N.am      22 UNK        -0.5000 
    120 CA        -0.2177  -19.9223  -57.1497 C.3       22 UNK         0.1400 
    121 C          0.4734  -18.8368  -58.0300 C.2       22 UNK         0.5000 
    122 N         -0.1834  -17.7401  -58.3939 N.am      22 UNK        -0.7600 
    123 O          1.6335  -18.9975  -58.3989 O.2       22 UNK        -0.5000 
    124 C124        0.5077  -20.0635  -55.7862 C.3       23 UNK        -0.0398 
    125 S125       -0.0849  -21.4804  -54.7949 S.3       23 UNK        -0.2404 
    126 C126       -1.3118  -20.7010  -53.6963 C.3       23 UNK        -0.0205 
    127 H127       -4.6314  -13.4271  -45.5015 H         1 UNK         0.0600 
    128 H128       -3.1326  -13.9256  -44.7132 H         1 UNK         0.0600 
    129 H129       -4.0961  -15.1054  -45.6104 H         1 UNK         0.0600 
    130 H130       -3.2706  -15.5623  -47.6239 H         1 UNK         0.3000 
    131 H131       -2.7139  -13.6840  -49.5978 H         1 UNK         0.0600 
    132 H132       -1.6290  -16.5522  -49.6394 H         1 UNK         0.0800 
    133 H133       -3.3193  -16.2093  -49.8030 H         1 UNK         0.0800 
    134 H134        0.2110  -15.4196  -51.4734 H         1 UNK         0.0800 
    135 H135       -0.2411  -15.7049  -53.1312 H         1 UNK         0.0800 
    136 H136       -1.4515  -17.9811  -53.6600 H         1 UNK         0.1150 
    137 H137        0.2259  -21.2972  -51.5310 H         1 UNK         0.1150 
    138 H138        0.9592  -17.2930  -50.1833 H         1 UNK         0.1150 
    139 H139        1.6065  -20.9866  -49.6385 H         1 UNK         0.0800 
    140 H140        2.5832  -19.5477  -49.7799 H         1 UNK         0.0800 
    141 H141       -1.0133  -20.3794  -48.6828 H         1 UNK         0.0800 
    142 H142       -1.1643  -19.6737  -47.0977 H         1 UNK         0.0800 
    143 H143        0.2743  -22.2902  -47.7631 H         1 UNK         0.0600 
    144 H144        0.6730  -20.7372  -45.4437 H         1 UNK         0.3000 
    145 H145        1.3734  -23.4571  -43.1709 H         1 UNK         0.0600 
    146 H146        3.3644  -21.9453  -42.8726 H         1 UNK         0.0600 
    147 H147        3.4849  -22.9986  -44.2743 H         1 UNK         0.0600 
    148 H148        3.0995  -21.3033  -44.4921 H         1 UNK         0.0600 
    149 H149        1.1168  -20.5642  -42.9659 H         1 UNK         0.3000 
    150 H150       -2.2654  -20.6371  -41.8809 H         1 UNK         0.0600 
    151 H151       -1.0936  -21.2814  -39.7623 H         1 UNK         0.0600 
    152 H152       -1.4308  -19.5587  -39.8204 H         1 UNK         0.0600 
    153 H153        0.2015  -20.1479  -40.1302 H         1 UNK         0.0600 
    154 H154       -0.3883  -18.5133  -41.9014 H         1 UNK         0.3000 
    155 H155       -0.5593  -17.7382  -45.3964 H         1 UNK         0.0600 
    156 H156       -1.5703  -16.2462  -42.9202 H         1 UNK         0.0600 
    157 H157       -2.5179  -16.5955  -44.3597 H         1 UNK         0.0600 
    158 H158       -1.1320  -15.5149  -44.4626 H         1 UNK         0.0600 
    159 H159        0.9009  -16.4753  -43.3402 H         1 UNK         0.3000 
    160 H160        3.7936  -18.6242  -43.4173 H         1 UNK         0.0600 
    161 H161        3.2523  -15.7399  -44.2924 H         1 UNK         0.0600 
    162 H162        4.0644  -16.9833  -45.2389 H         1 UNK         0.0600 
    163 H163        4.8094  -16.3777  -43.7687 H         1 UNK         0.0600 
    164 H164        2.8943  -16.3051  -41.8896 H         1 UNK         0.3000 
    165 H165        1.8289  -18.1722  -39.0691 H         1 UNK         0.0600 
    166 H166        3.5379  -16.8066  -37.9002 H         1 UNK         0.0600 
    167 H167        4.3101  -18.1190  -38.7753 H         1 UNK         0.0600 
    168 H168        4.3657  -16.4843  -39.4243 H         1 UNK         0.0600 
    169 H169        2.1505  -15.3677  -39.5299 H         1 UNK         0.3000 
    170 H170       -1.0421  -14.7965  -41.0139 H         1 UNK         0.0600 
    171 H171       -1.4683  -14.9928  -38.5575 H         1 UNK         0.0600 
    172 H172        0.0388  -14.1494  -38.2205 H         1 UNK         0.0600 
    173 H173       -1.2777  -13.3181  -39.0495 H         1 UNK         0.0600 
    174 H174        0.8834  -12.9223  -40.2484 H         1 UNK         0.3000 
    175 H175        2.0054  -11.7563  -41.7352 H         1 UNK         0.0600 
    176 H176        3.8850  -13.7242  -43.1549 H         1 UNK         0.0600 
    177 H177        4.2782  -12.0804  -42.6616 H         1 UNK         0.0600 
    178 H178        3.9587  -13.3083  -41.4462 H         1 UNK         0.0600 
    179 H179        2.3719  -12.4275  -44.5559 H         1 UNK         0.3000 
    180 H180       -0.6729  -10.9048  -45.6299 H         1 UNK         0.0600 
    181 H181        2.2771  -10.2148  -46.0703 H         1 UNK         0.0600 
    182 H182        1.0148   -9.1143  -45.5439 H         1 UNK         0.0600 
    183 H183        0.9483   -9.8093  -47.1560 H         1 UNK         0.0600 
    184 H184       -0.3996  -12.7181  -46.7798 H         1 UNK         0.3000 
    185 H185        1.9264  -14.1411  -48.5922 H         1 UNK         0.0600 
    186 H186        3.0659  -15.4459  -46.8352 H         1 UNK         0.0600 
    187 H187        1.5242  -15.8068  -46.0607 H         1 UNK         0.0600 
    188 H188        1.8919  -16.4546  -47.6593 H         1 UNK         0.0600 
    189 H189       -0.4877  -15.2597  -47.3492 H         1 UNK         0.3000 
    190 H190       -2.0068  -21.4723  -45.1528 H         1 UNK         0.3000 
    191 H191       -4.3402  -22.5663  -46.2358 H         1 UNK         0.0600 
    192 H192       -3.5114  -22.3928  -43.2999 H         1 UNK         0.0600 
    193 H193       -5.1517  -22.5978  -43.8965 H         1 UNK         0.0600 
    194 H194       -4.2821  -21.1084  -44.2302 H         1 UNK         0.0600 
    195 H195       -1.6041  -24.2387  -44.7920 H         1 UNK         0.3000 
    196 H196       -3.0156  -26.8461  -44.7239 H         1 UNK         0.0600 
    197 H197       -0.8849  -27.6406  -43.7138 H         1 UNK         0.0600 
    198 H198       -1.5504  -26.2846  -42.8155 H         1 UNK         0.0600 
    199 H199       -0.1788  -26.0384  -43.8909 H         1 UNK         0.0600 
    200 H200       -0.1024  -25.3359  -46.2270 H         1 UNK         0.3000 
    201 H201        0.5942  -27.6238  -47.7363 H         1 UNK         0.0600 
    202 H202        2.2151  -25.9077  -46.9706 H         1 UNK         0.0600 
    203 H203        1.4829  -24.7060  -48.0319 H         1 UNK         0.0600 
    204 H204        2.3098  -26.1016  -48.7145 H         1 UNK         0.0600 
    205 H205       -1.3137  -24.7442  -48.6485 H         1 UNK         0.3000 
    206 H206       -1.6979  -25.8489  -51.4083 H         1 UNK         0.0600 
    207 H207       -0.3656  -23.7155  -51.3180 H         1 UNK         0.0600 
    208 H208       -1.9019  -23.5309  -52.1443 H         1 UNK         0.0600 
    209 H209       -1.7146  -22.9219  -50.5033 H         1 UNK         0.0600 
    210 H210       -3.1833  -26.0737  -48.6492 H         1 UNK         0.3000 
    211 H211       -5.2485  -26.2693  -47.8552 H         1 UNK         0.0600 
    212 H212       -6.0707  -26.6064  -50.7856 H         1 UNK         0.0600 
    213 H213       -6.9416  -27.2049  -49.3797 H         1 UNK         0.0600 
    214 H214       -5.3675  -27.8704  -49.7770 H         1 UNK         0.0600 
    215 H215       -4.3940  -23.5379  -48.4737 H         1 UNK         0.3000 
    216 H216       -5.0505  -21.4430  -48.2935 H         1 UNK         0.0600 
    217 H217       -7.1588  -20.8284  -47.2504 H         1 UNK         0.0600 
    218 H218       -6.6209  -22.3100  -46.4794 H         1 UNK         0.0600 
    219 H219       -7.9062  -22.3574  -47.6794 H         1 UNK         0.0600 
    220 H220       -5.3055  -22.9305  -50.9281 H         1 UNK         0.3000 
    221 H221       -7.2908  -21.4431  -52.4545 H         1 UNK         0.0600 
    222 H222       -4.9499  -23.1948  -53.3648 H         1 UNK         0.0600 
    223 H223       -6.5951  -23.7560  -53.0727 H         1 UNK         0.0600 
    224 H224       -6.2695  -22.6156  -54.3710 H         1 UNK         0.0600 
    225 H225       -6.4681  -19.3808  -51.4360 H         1 UNK         0.3000 
    226 H226       -4.0385  -18.1383  -52.0228 H         1 UNK         0.0600 
    227 H227       -5.6558  -17.3143  -50.3309 H         1 UNK         0.0600 
    228 H228       -5.3008  -16.0271  -51.4734 H         1 UNK         0.0600 
    229 H229       -6.8180  -16.9072  -51.5931 H         1 UNK         0.0600 
    230 H230       -3.3713  -16.6200  -53.4989 H         1 UNK         0.3000 
    231 H231       -2.9041  -15.6624  -55.3915 H         1 UNK         0.0600 
    232 H232       -5.0496  -14.4427  -55.0744 H         1 UNK         0.0600 
    233 H233       -5.8992  -15.6593  -56.0275 H         1 UNK         0.0600 
    234 H234       -4.6733  -14.6504  -56.7774 H         1 UNK         0.0600 
    235 H235       -4.6888  -18.6389  -55.7336 H         1 UNK         0.3000 
    236 H236       -4.4840  -19.1216  -58.4738 H         1 UNK         0.0600 
    237 H237       -4.9023  -21.4857  -57.8476 H         1 UNK         0.0600 
    238 H238       -4.4433  -21.1583  -56.1826 H         1 UNK         0.0600 
    239 H239       -5.8938  -20.4206  -56.8624 H         1 UNK         0.0600 
    240 H240       -1.9538  -19.2856  -56.1115 H         1 UNK         0.3000 
    241 H241       -0.0848  -20.8636  -57.6865 H         1 UNK         0.0600 
    242 H242        0.2843  -17.0564  -58.9677 H         1 UNK         0.3800 
    243 H243       -1.1445  -17.5774  -58.1130 H         1 UNK         0.3800 
    244 H244        1.5763  -20.2197  -55.9439 H         1 UNK         0.0800 
    245 H245        0.4275  -19.1410  -55.2112 H         1 UNK         0.0800 
    246 H246       -2.0580  -20.1880  -54.3011 H         1 UNK         0.0800 
    247 H247       -1.8527  -21.4759  -53.1548 H         1 UNK         0.0800 
@<TRIPOS>BOND
     1    1    2 1    
     2    1  127 1    
     3    1  128 1    
     4    1  129 1    
     5    2    3 2    
     6    2    4 am   BACKBONE|DICT|INTERRES
     7    4    5 1    
     8    4  130 1    
     9    5    6 1    
    10    5   65 1    
    11    5  131 1    
    12    6    7 1    
    13    6  132 1    
    14    6  133 1    
    15    7    8 1    
    16    8    9 1    
    17    8  134 1    
    18    8  135 1    
    19    9   10 ar   
    20    9   14 ar   
    21   10   11 ar   
    22   10  136 1    
    23   11   12 ar   
    24   11  126 1    
    25   12   13 ar   
    26   12  137 1    
    27   13   14 ar   
    28   13   15 1    
    29   14  138 1    
    30   15   16 1    
    31   15  139 1    
    32   15  140 1    
    33   16   17 1    
    34   17   18 1    
    35   17  141 1    
    36   17  142 1    
    37   18   19 1    
    38   18   67 1    
    39   18  143 1    
    40   19   20 am   BACKBONE|DICT|INTERRES
    41   19  144 1    
    42   20   21 2    
    43   20   22 1    
    44   22   23 1    
    45   22   24 1    
    46   22  145 1    
    47   23  146 1    
    48   23  147 1    
    49   23  148 1    
    50   24   25 am   BACKBONE|DICT|INTERRES
    51   24  149 1    
    52   25   26 2    
    53   25   27 1    
    54   27   28 1    
    55   27   29 1    
    56   27  150 1    
    57   28  151 1    
    58   28  152 1    
    59   28  153 1    
    60   29   30 am   BACKBONE|DICT|INTERRES
    61   29  154 1    
    62   30   31 2    
    63   30   32 1    
    64   32   33 1    
    65   32   34 1    
    66   32  155 1    
    67   33  156 1    
    68   33  157 1    
    69   33  158 1    
    70   34   35 am   BACKBONE|DICT|INTERRES
    71   34  159 1    
    72   35   36 2    
    73   35   37 1    
    74   37   38 1    
    75   37   39 1    
    76   37  160 1    
    77   38  161 1    
    78   38  162 1    
    79   38  163 1    
    80   39   40 am   BACKBONE|DICT|INTERRES
    81   39  164 1    
    82   40   41 2    
    83   40   42 1    
    84   42   43 1    
    85   42   44 1    
    86   42  165 1    
    87   43  166 1    
    88   43  167 1    
    89   43  168 1    
    90   44   45 am   BACKBONE|DICT|INTERRES
    91   44  169 1    
    92   45   46 2    
    93   45   47 1    
    94   47   48 1    
    95   47   49 1    
    96   47  170 1    
    97   48  171 1    
    98   48  172 1    
    99   48  173 1    
   100   49   50 am   BACKBONE|DICT|INTERRES
   101   49  174 1    
   102   50   51 2    
   103   50   52 1    
   104   52   53 1    
   105   52   54 1    
   106   52  175 1    
   107   53  176 1    
   108   53  177 1    
   109   53  178 1    
   110   54   55 am   BACKBONE|DICT|INTERRES
   111   54  179 1    
   112   55   56 2    
   113   55   57 1    
   114   57   58 1    
   115   57   59 1    
   116   57  180 1    
   117   58  181 1    
   118   58  182 1    
   119   58  183 1    
   120   59   60 am   BACKBONE|DICT|INTERRES
   121   59  184 1    
   122   60   61 2    
   123   60   62 1    
   124   62   63 1    
   125   62   64 1    
   126   62  185 1    
   127   63  186 1    
   128   63  187 1    
   129   63  188 1    
   130   64   65 am   BACKBONE|DICT|INTERRES
   131   64  189 1    
   132   65   66 2    
   133   67   68 2    
   134   67   69 am   BACKBONE|DICT|INTERRES
   135   69   70 1    
   136   69  190 1    
   137   70   71 1    
   138   70   72 1    
   139   70  191 1    
   140   71  192 1    
   141   71  193 1    
   142   71  194 1    
   143   72   73 2    
   144   72   74 am   BACKBONE|DICT|INTERRES
   145   74   75 1    
   146   74  195 1    
   147   75   76 1    
   148   75   77 1    
   149   75  196 1    
   150   76  197 1    
   151   76  198 1    
   152   76  199 1    
   153   77   78 2    
   154   77   79 am   BACKBONE|DICT|INTERRES
   155   79   80 1    
   156   79  200 1    
   157   80   81 1    
   158   80   82 1    
   159   80  201 1    
   160   81  202 1    
   161   81  203 1    
   162   81  204 1    
   163   82   83 2    
   164   82   84 am   BACKBONE|DICT|INTERRES
   165   84   85 1    
   166   84  205 1    
   167   85   86 1    
   168   85   87 1    
   169   85  206 1    
   170   86  207 1    
   171   86  208 1    
   172   86  209 1    
   173   87   88 2    
   174   87   89 am   BACKBONE|DICT|INTERRES
   175   89   90 1    
   176   89  210 1    
   177   90   91 1    
   178   90   92 1    
   179   90  211 1    
   180   91  212 1    
   181   91  213 1    
   182   91  214 1    
   183   92   93 2    
   184   92   94 am   BACKBONE|DICT|INTERRES
   185   94   95 1    
   186   94  215 1    
   187   95   96 1    
   188   95   97 1    
   189   95  216 1    
   190   96  217 1    
   191   96  218 1    
   192   96  219 1    
   193   97   98 2    
   194   97   99 am   BACKBONE|DICT|INTERRES
   195   99  100 1    
   196   99  220 1    
   197  100  101 1    
   198  100  102 1    
   199  100  221 1    
   200  101  222 1    
   201  101  223 1    
   202  101  224 1    
   203  102  103 2    
   204  102  104 am   BACKBONE|DICT|INTERRES
   205  104  105 1    
   206  104  225 1    
   207  105  106 1    
   208  105  107 1    
   209  105  226 1    
   210  106  227 1    
   211  106  228 1    
   212  106  229 1    
   213  107  108 2    
   214  107  109 am   BACKBONE|DICT|INTERRES
   215  109  110 1    
   216  109  230 1    
   217  110  111 1    
   218  110  112 1    
   219  110  231 1    
   220  111  232 1    
   221  111  233 1    
   222  111  234 1    
   223  112  113 2    
   224  112  114 am   BACKBONE|DICT|INTERRES
   225  114  115 1    
   226  114  235 1    
   227  115  116 1    
   228  115  117 1    
   229  115  236 1    
   230  116  237 1    
   231  116  238 1    
   232  116  239 1    
   233  117  118 2    
   234  117  119 am   BACKBONE|DICT|INTERRES
   235  119  120 1    
   236  119  240 1    
   237  120  121 1    
   238  120  124 1    
   239  120  241 1    
   240  121  122 am   BACKBONE|DICT|INTERRES
   241  121  123 2    
   242  122  242 1    
   243  122  243 1    
   244  124  125 1    
   245  124  244 1    
   246  124  245 1    
   247  125  126 1    
   248  126  246 1    
   249  126  247 1    
@<TRIPOS>SUBSTRUCTURE
     1 UNK         1 GROUP             0       ****    0 ROOT    
