@<TRIPOS>MOLECULE
3R540
247   249    1
SMALL
USER_CHARGES


@<TRIPOS>ATOM
      1 CA          8.0771  -10.6879  -50.2014 C.3       0 UNK        -0.1800 
      2 C           6.6725  -11.2745  -50.1569 C.2       0 UNK         0.5000 
      3 O           5.9693  -11.2350  -51.1666 O.2       0 UNK        -0.5000 
      4 N           6.2840  -11.8182  -48.9945 N.am      1 UNK        -0.5000 
      5 CA          4.9824  -12.4145  -48.6586 C.3       1 UNK         0.1400 
      6 C6          4.5589  -13.5911  -49.5858 C.3       23 UNK        -0.0398 
      7 S7          5.4607  -15.1272  -49.1968 S.3       23 UNK        -0.2404 
      8 C8          4.2063  -16.0536  -48.2514 C.3       23 UNK        -0.0205 
      9 C9          3.2852  -16.8682  -49.1494 C.ar      23 UNK        -0.0193 
     10 C10         2.1368  -16.2966  -49.7053 C.ar      23 UNK        -0.1150 
     11 C11         1.2881  -17.0482  -50.5225 C.ar      23 UNK        -0.0193 
     12 C12         1.5810  -18.3933  -50.7658 C.ar      23 UNK        -0.1150 
     13 C13         2.7260  -18.9787  -50.2147 C.ar      23 UNK        -0.0193 
     14 C14         3.5740  -18.2103  -49.4116 C.ar      23 UNK        -0.1150 
     15 C15         3.0687  -20.4327  -50.5064 C.3       23 UNK        -0.0205 
     16 S16         2.7688  -21.5114  -49.0715 S.3       23 UNK        -0.2404 
     17 C17         0.9519  -21.4488  -48.9685 C.3       23 UNK        -0.0398 
     18 CA          0.3828  -22.5459  -48.0385 C.3       11 UNK         0.1400 
     19 N           0.6726  -22.3030  -46.6201 N.am      11 UNK        -0.5000 
     20 C           0.3934  -23.1627  -45.6287 C.2       10 UNK         0.5000 
     21 O          -0.0858  -24.2816  -45.8101 O.2       10 UNK        -0.5000 
     22 CA          0.6344  -22.6797  -44.1874 C.3       10 UNK         0.1400 
     23 CB          2.1209  -22.7735  -43.8134 C.3       10 UNK        -0.1800 
     24 N           0.1416  -21.3210  -43.9584 N.am      10 UNK        -0.5000 
     25 C          -1.1470  -20.9579  -44.0385 C.2       9 UNK         0.5000 
     26 O          -2.0646  -21.7460  -44.2651 O.2       9 UNK        -0.5000 
     27 CA         -1.4633  -19.4575  -43.8918 C.3       9 UNK         0.1400 
     28 CB         -1.5067  -19.0425  -42.4140 C.3       9 UNK        -0.1800 
     29 N          -0.5156  -18.6094  -44.6133 N.am      9 UNK        -0.5000 
     30 C          -0.3311  -18.6350  -45.9411 C.2       8 UNK         0.5000 
     31 O          -0.9800  -19.3421  -46.7118 O.2       8 UNK        -0.5000 
     32 CA          0.8158  -17.7710  -46.4880 C.3       8 UNK         0.1400 
     33 CB          0.3869  -16.3021  -46.5974 C.3       8 UNK        -0.1800 
     34 N           2.0234  -17.8783  -45.6664 N.am      8 UNK        -0.5000 
     35 C           2.7388  -19.0040  -45.5269 C.2       7 UNK         0.5000 
     36 O           2.4725  -20.0562  -46.1032 O.2       7 UNK        -0.5000 
     37 CA          3.9121  -18.9671  -44.5307 C.3       7 UNK         0.1400 
     38 CB          5.1641  -18.3514  -45.1714 C.3       7 UNK        -0.1800 
     39 N           3.5849  -18.2342  -43.3087 N.am      7 UNK        -0.5000 
     40 C           2.6774  -18.6304  -42.4051 C.2       6 UNK         0.5000 
     41 O           2.0616  -19.6928  -42.4750 O.2       6 UNK        -0.5000 
     42 CA          2.3704  -17.6444  -41.2622 C.3       6 UNK         0.1400 
     43 CB          3.3414  -17.8529  -40.0908 C.3       6 UNK        -0.1800 
     44 N           2.4198  -16.2443  -41.6953 N.am      6 UNK        -0.5000 
     45 C           1.5928  -15.7085  -42.6028 C.2       5 UNK         0.5000 
     46 O           0.6893  -16.3402  -43.1550 O.2       5 UNK        -0.5000 
     47 CA          1.8799  -14.2516  -43.0096 C.3       5 UNK         0.1400 
     48 CB          2.9113  -14.2164  -44.1495 C.3       5 UNK        -0.1800 
     49 N           0.6732  -13.5367  -43.4296 N.am      5 UNK        -0.5000 
     50 C          -0.3275  -13.1979  -42.6018 C.2       4 UNK         0.5000 
     51 O          -0.3191  -13.4527  -41.3960 O.2       4 UNK        -0.5000 
     52 CA         -1.5221  -12.4105  -43.1808 C.3       4 UNK         0.1400 
     53 CB         -1.5693  -10.9924  -42.5877 C.3       4 UNK        -0.1800 
     54 N          -1.5023  -12.2950  -44.6380 N.am      4 UNK        -0.5000 
     55 C          -1.9513  -13.2221  -45.4934 C.2       3 UNK         0.5000 
     56 O          -2.4607  -14.2863  -45.1430 O.2       3 UNK        -0.5000 
     57 CA         -1.8060  -12.9026  -46.9971 C.3       3 UNK         0.1400 
     58 CB         -3.1299  -12.3533  -47.5495 C.3       3 UNK        -0.1800 
     59 N          -0.7310  -11.9537  -47.3198 N.am      3 UNK        -0.5000 
     60 C           0.5675  -12.1658  -47.0756 C.2       2 UNK         0.5000 
     61 O           0.9946  -13.1556  -46.4774 O.2       2 UNK        -0.5000 
     62 CA          1.5584  -11.0920  -47.5412 C.3       2 UNK         0.1400 
     63 CB          1.7146   -9.9893  -46.4798 C.3       2 UNK        -0.1800 
     64 N           2.8271  -11.7736  -47.7522 N.am      2 UNK        -0.5000 
     65 C           3.8458  -11.3761  -48.5184 C.2       1 UNK         0.5000 
     66 O           3.8884  -10.2822  -49.0856 O.2       1 UNK        -0.5000 
     67 C          -1.1255  -22.7318  -48.2901 C.2       11 UNK         0.5000 
     68 O          -1.5062  -23.6735  -48.9852 O.2       11 UNK        -0.5000 
     69 N          -1.9575  -21.8641  -47.6965 N.am      12 UNK        -0.5000 
     70 CA         -3.4151  -21.9410  -47.7759 C.3       12 UNK         0.1400 
     71 CB         -4.0426  -20.6968  -47.1311 C.3       12 UNK        -0.1800 
     72 C          -3.9805  -23.2295  -47.1561 C.2       12 UNK         0.5000 
     73 O          -4.8465  -23.8576  -47.7652 O.2       12 UNK        -0.5000 
     74 N          -3.4546  -23.6191  -45.9865 N.am      13 UNK        -0.5000 
     75 CA         -3.7944  -24.8609  -45.2933 C.3       13 UNK         0.1400 
     76 CB         -3.1602  -24.8655  -43.8944 C.3       13 UNK        -0.1800 
     77 C          -3.3838  -26.1131  -46.0876 C.2       13 UNK         0.5000 
     78 O          -4.1939  -27.0297  -46.2264 O.2       13 UNK        -0.5000 
     79 N          -2.1583  -26.1151  -46.6326 N.am      14 UNK        -0.5000 
     80 CA         -1.6215  -27.1864  -47.4774 C.3       14 UNK         0.1400 
     81 CB         -0.1367  -26.9184  -47.7657 C.3       14 UNK        -0.1800 
     82 C          -2.4048  -27.3673  -48.7913 C.2       14 UNK         0.5000 
     83 O          -2.6096  -28.4999  -49.2288 O.2       14 UNK        -0.5000 
     84 N          -2.8616  -26.2505  -49.3713 N.am      15 UNK        -0.5000 
     85 CA         -3.7170  -26.2062  -50.5566 C.3       15 UNK         0.1400 
     86 CB         -3.5418  -24.8387  -51.2328 C.3       15 UNK        -0.1800 
     87 C          -5.2079  -26.4644  -50.2546 C.2       15 UNK         0.5000 
     88 O          -6.0120  -26.4450  -51.1876 O.2       15 UNK        -0.5000 
     89 N          -5.5675  -26.6478  -48.9735 N.am      16 UNK        -0.5000 
     90 CA         -6.9232  -26.8493  -48.4444 C.3       16 UNK         0.1400 
     91 CB         -7.4500  -28.2416  -48.8479 C.3       16 UNK        -0.1800 
     92 C          -7.8986  -25.7102  -48.8177 C.2       16 UNK         0.5000 
     93 O          -9.0846  -25.9580  -49.0401 O.2       16 UNK        -0.5000 
     94 N          -7.3573  -24.4872  -48.9240 N.am      17 UNK        -0.5000 
     95 CA         -7.9832  -23.2436  -49.3862 C.3       17 UNK         0.1400 
     96 CB         -9.1216  -22.8186  -48.4371 C.3       17 UNK        -0.1800 
     97 C          -8.4351  -23.2460  -50.8665 C.2       17 UNK         0.5000 
     98 O          -9.0195  -22.2569  -51.3106 O.2       17 UNK        -0.5000 
     99 N          -8.1590  -24.3225  -51.6171 N.am      18 UNK        -0.5000 
    100 CA        -8.6103  -24.5059  -52.9986 C.3       18 UNK         0.1400 
    101 CB        -8.7534  -26.0097  -53.2796 C.3       18 UNK        -0.1800 
    102 C         -7.6711  -23.8561  -54.0298 C.2       18 UNK         0.5000 
    103 O         -8.1193  -23.5206  -55.1269 O.2       18 UNK        -0.5000 
    104 N         -6.3932  -23.6942  -53.6681 N.am      19 UNK        -0.5000 
    105 CA        -5.3378  -23.1443  -54.5204 C.3       19 UNK         0.1400 
    106 CB        -4.6595  -24.2833  -55.3061 C.3       19 UNK        -0.1800 
    107 C         -4.3517  -22.3119  -53.6822 C.2       19 UNK         0.5000 
    108 O         -3.1420  -22.3708  -53.9042 O.2       19 UNK        -0.5000 
    109 N         -4.8906  -21.5675  -52.7061 N.am      20 UNK        -0.5000 
    110 CA        -4.1319  -20.7421  -51.7620 C.3       20 UNK         0.1400 
    111 CB        -5.0822  -20.2776  -50.6480 C.3       20 UNK        -0.1800 
    112 C         -3.4453  -19.5211  -52.4040 C.2       20 UNK         0.5000 
    113 O         -2.4569  -19.0316  -51.8583 O.2       20 UNK        -0.5000 
    114 N         -4.0046  -19.0350  -53.5226 N.am      21 UNK        -0.5000 
    115 CA        -3.6183  -17.8606  -54.3177 C.3       21 UNK         0.1400 
    116 CB        -2.1721  -17.9692  -54.8397 C.3       21 UNK        -0.1800 
    117 C         -3.8661  -16.5187  -53.6013 C.2       21 UNK         0.5000 
    118 O         -4.5502  -15.6575  -54.1553 O.2       21 UNK        -0.5000 
    119 N         -3.3347  -16.3770  -52.3836 N.am      22 UNK        -0.5000 
    120 CA        -3.5257  -15.2264  -51.4868 C.3       22 UNK         0.1400 
    121 C         -4.6276  -15.4411  -50.4073 C.2       22 UNK         0.5000 
    122 N         -5.3219  -16.5723  -50.3799 N.am      22 UNK        -0.7600 
    123 O         -4.8819  -14.5535  -49.5987 O.2       22 UNK        -0.5000 
    124 C124       -2.1811  -14.7424  -50.8847 C.3       23 UNK        -0.0398 
    125 S125       -1.2364  -16.0234  -49.9834 S.3       23 UNK        -0.2404 
    126 C126        0.0889  -16.3812  -51.1783 C.3       23 UNK        -0.0205 
    127 H127        8.6688  -11.1890  -50.9676 H         1 UNK         0.0600 
    128 H128        8.5946  -10.7969  -49.2479 H         1 UNK         0.0600 
    129 H129        8.0324   -9.6262  -50.4440 H         1 UNK         0.0600 
    130 H130        6.9345  -11.7890  -48.2221 H         1 UNK         0.3000 
    131 H131        5.1200  -12.8186  -47.6537 H         1 UNK         0.0600 
    132 H132        4.7124  -13.3555  -50.6381 H         1 UNK         0.0800 
    133 H133        3.4928  -13.7911  -49.5020 H         1 UNK         0.0800 
    134 H134        4.7283  -16.7242  -47.5704 H         1 UNK         0.0800 
    135 H135        3.6268  -15.3777  -47.6208 H         1 UNK         0.0800 
    136 H136        1.8894  -15.2654  -49.5043 H         1 UNK         0.1150 
    137 H137        0.9265  -18.9783  -51.3969 H         1 UNK         0.1150 
    138 H138        4.4583  -18.6632  -48.9856 H         1 UNK         0.1150 
    139 H139        2.5051  -20.8010  -51.3650 H         1 UNK         0.0800 
    140 H140        4.1217  -20.5025  -50.7830 H         1 UNK         0.0800 
    141 H141        0.5617  -21.5621  -49.9820 H         1 UNK         0.0800 
    142 H142        0.6485  -20.4568  -48.6303 H         1 UNK         0.0800 
    143 H143        0.8591  -23.4921  -48.3042 H         1 UNK         0.0600 
    144 H144        1.1255  -21.4206  -46.3962 H         1 UNK         0.3000 
    145 H145        0.0810  -23.3449  -43.5214 H         1 UNK         0.0600 
    146 H146        2.4922  -23.7903  -43.9470 H         1 UNK         0.0600 
    147 H147        2.7361  -22.1173  -44.4282 H         1 UNK         0.0600 
    148 H148        2.2825  -22.5028  -42.7699 H         1 UNK         0.0600 
    149 H149        0.8340  -20.6216  -43.7092 H         1 UNK         0.3000 
    150 H150       -2.4519  -19.2836  -44.3212 H         1 UNK         0.0600 
    151 H151       -1.7752  -17.9911  -42.3076 H         1 UNK         0.0600 
    152 H152       -0.5453  -19.1924  -41.9235 H         1 UNK         0.0600 
    153 H153       -2.2483  -19.6263  -41.8676 H         1 UNK         0.0600 
    154 H154        0.0315  -17.9562  -44.0601 H         1 UNK         0.3000 
    155 H155        1.0533  -18.1317  -47.4910 H         1 UNK         0.0600 
    156 H156       -0.5284  -16.2068  -47.1799 H         1 UNK         0.0600 
    157 H157        1.1516  -15.7069  -47.0926 H         1 UNK         0.0600 
    158 H158        0.1910  -15.8526  -45.6251 H         1 UNK         0.0600 
    159 H159        2.2627  -17.0755  -45.1065 H         1 UNK         0.3000 
    160 H160        4.1443  -19.9987  -44.2578 H         1 UNK         0.0600 
    161 H161        5.3885  -18.8225  -46.1296 H         1 UNK         0.0600 
    162 H162        6.0365  -18.4863  -44.5319 H         1 UNK         0.0600 
    163 H163        5.0425  -17.2822  -45.3447 H         1 UNK         0.0600 
    164 H164        4.0515  -17.3513  -43.1652 H         1 UNK         0.3000 
    165 H165        1.3584  -17.8518  -40.9084 H         1 UNK         0.0600 
    166 H166        3.0835  -17.2137  -39.2462 H         1 UNK         0.0600 
    167 H167        3.3095  -18.8845  -39.7373 H         1 UNK         0.0600 
    168 H168        4.3715  -17.6352  -40.3756 H         1 UNK         0.0600 
    169 H169        3.1419  -15.6698  -41.2847 H         1 UNK         0.3000 
    170 H170        2.2985  -13.7257  -42.1490 H         1 UNK         0.0600 
    171 H171        3.1255  -13.1924  -44.4566 H         1 UNK         0.0600 
    172 H172        3.8558  -14.6654  -43.8404 H         1 UNK         0.0600 
    173 H173        2.5619  -14.7613  -45.0268 H         1 UNK         0.0600 
    174 H174        0.5864  -13.3415  -44.4202 H         1 UNK         0.3000 
    175 H175       -2.4315  -12.9342  -42.8786 H         1 UNK         0.0600 
    176 H176       -0.6794  -10.4179  -42.8481 H         1 UNK         0.0600 
    177 H177       -2.4407  -10.4437  -42.9458 H         1 UNK         0.0600 
    178 H178       -1.6334  -11.0230  -41.4992 H         1 UNK         0.0600 
    179 H179       -1.0976  -11.4528  -45.0192 H         1 UNK         0.3000 
    180 H180       -1.5838  -13.8418  -47.5083 H         1 UNK         0.0600 
    181 H181       -3.0768  -12.1926  -48.6260 H         1 UNK         0.0600 
    182 H182       -3.3988  -11.4057  -47.0812 H         1 UNK         0.0600 
    183 H183       -3.9476  -13.0524  -47.3686 H         1 UNK         0.0600 
    184 H184       -1.0088  -11.1084  -47.7976 H         1 UNK         0.3000 
    185 H185        1.2102  -10.6647  -48.4838 H         1 UNK         0.0600 
    186 H186        2.0550  -10.3957  -45.5263 H         1 UNK         0.0600 
    187 H187        2.4337   -9.2338  -46.7966 H         1 UNK         0.0600 
    188 H188        0.7671   -9.4796  -46.3019 H         1 UNK         0.0600 
    189 H189        2.8435  -12.6879  -47.3155 H         1 UNK         0.3000 
    190 H190       -1.5687  -21.0829  -47.1731 H         1 UNK         0.3000 
    191 H191       -3.6779  -21.9490  -48.8338 H         1 UNK         0.0600 
    192 H192       -3.8127  -20.6344  -46.0674 H         1 UNK         0.0600 
    193 H193       -5.1283  -20.7100  -47.2336 H         1 UNK         0.0600 
    194 H194       -3.6809  -19.7828  -47.6025 H         1 UNK         0.0600 
    195 H195       -2.7792  -23.0134  -45.5276 H         1 UNK         0.3000 
    196 H196       -4.8793  -24.8866  -45.1722 H         1 UNK         0.0600 
    197 H197       -3.4115  -25.7788  -43.3538 H         1 UNK         0.0600 
    198 H198       -3.5174  -24.0256  -43.2983 H         1 UNK         0.0600 
    199 H199       -2.0730  -24.8003  -43.9436 H         1 UNK         0.0600 
    200 H200       -1.5337  -25.3352  -46.4408 H         1 UNK         0.3000 
    201 H201       -1.6962  -28.1203  -46.9168 H         1 UNK         0.0600 
    202 H202        0.4421  -26.8762  -46.8429 H         1 UNK         0.0600 
    203 H203        0.0061  -25.9747  -48.2931 H         1 UNK         0.0600 
    204 H204        0.2917  -27.7092  -48.3827 H         1 UNK         0.0600 
    205 H205       -2.5885  -25.3531  -48.9812 H         1 UNK         0.3000 
    206 H206       -3.3889  -26.9763  -51.2576 H         1 UNK         0.0600 
    207 H207       -4.0909  -24.8029  -52.1719 H         1 UNK         0.0600 
    208 H208       -3.9043  -24.0258  -50.6020 H         1 UNK         0.0600 
    209 H209       -2.4954  -24.6411  -51.4661 H         1 UNK         0.0600 
    210 H210       -4.8383  -26.6151  -48.2717 H         1 UNK         0.3000 
    211 H211       -6.8340  -26.8284  -47.3575 H         1 UNK         0.0600 
    212 H212       -7.6147  -28.3150  -49.9234 H         1 UNK         0.0600 
    213 H213       -8.3978  -28.4610  -48.3550 H         1 UNK         0.0600 
    214 H214       -6.7484  -29.0252  -48.5617 H         1 UNK         0.0600 
    215 H215       -6.3775  -24.3939  -48.6599 H         1 UNK         0.3000 
    216 H216       -7.2046  -22.4850  -49.3138 H         1 UNK         0.0600 
    217 H217       -9.4824  -21.8187  -48.6808 H         1 UNK         0.0600 
    218 H218       -8.7827  -22.7951  -47.4014 H         1 UNK         0.0600 
    219 H219       -9.9746  -23.4947  -48.4969 H         1 UNK         0.0600 
    220 H220       -7.6444  -25.0933  -51.2057 H         1 UNK         0.3000 
    221 H221       -9.5959  -24.0498  -53.1149 H         1 UNK         0.0600 
    222 H222       -7.7949  -26.5258  -53.2159 H         1 UNK         0.0600 
    223 H223       -9.4349  -26.4804  -52.5706 H         1 UNK         0.0600 
    224 H224       -9.1525  -26.1836  -54.2797 H         1 UNK         0.0600 
    225 H225       -6.1151  -24.0045  -52.7477 H         1 UNK         0.3000 
    226 H226       -5.7751  -22.4492  -55.2401 H         1 UNK         0.0600 
    227 H227       -5.3815  -24.8237  -55.9185 H         1 UNK         0.0600 
    228 H228       -3.8934  -23.8962  -55.9789 H         1 UNK         0.0600 
    229 H229       -4.1822  -25.0025  -54.6400 H         1 UNK         0.0600 
    230 H230       -5.8953  -21.5691  -52.6030 H         1 UNK         0.3000 
    231 H231       -3.3503  -21.3617  -51.3168 H         1 UNK         0.0600 
    232 H232       -5.9136  -19.6929  -51.0434 H         1 UNK         0.0600 
    233 H233       -5.4999  -21.1257  -50.1084 H         1 UNK         0.0600 
    234 H234       -4.5596  -19.6546  -49.9212 H         1 UNK         0.0600 
    235 H235       -4.8304  -19.5122  -53.8548 H         1 UNK         0.3000 
    236 H236       -4.2737  -17.8726  -55.1900 H         1 UNK         0.0600 
    237 H237       -1.4382  -17.9425  -54.0345 H         1 UNK         0.0600 
    238 H238       -2.0242  -18.8951  -55.3956 H         1 UNK         0.0600 
    239 H239       -1.9414  -17.1440  -55.5144 H         1 UNK         0.0600 
    240 H240       -2.8122  -17.1603  -51.9993 H         1 UNK         0.3000 
    241 H241       -3.9017  -14.3915  -52.0805 H         1 UNK         0.0600 
    242 H242       -6.0415  -16.6929  -49.6851 H         1 UNK         0.3800 
    243 H243       -5.1449  -17.2930  -51.0578 H         1 UNK         0.3800 
    244 H244       -1.5644  -14.3353  -51.6861 H         1 UNK         0.0800 
    245 H245       -2.3446  -13.9043  -50.2064 H         1 UNK         0.0800 
    246 H246        0.4282  -15.4568  -51.6474 H         1 UNK         0.0800 
    247 H247       -0.3125  -17.0045  -51.9785 H         1 UNK         0.0800 
@<TRIPOS>BOND
     1    1    2 1    
     2    1  127 1    
     3    1  128 1    
     4    1  129 1    
     5    2    3 2    
     6    2    4 am   BACKBONE|DICT|INTERRES
     7    4    5 1    
     8    4  130 1    
     9    5    6 1    
    10    5   65 1    
    11    5  131 1    
    12    6    7 1    
    13    6  132 1    
    14    6  133 1    
    15    7    8 1    
    16    8    9 1    
    17    8  134 1    
    18    8  135 1    
    19    9   10 ar   
    20    9   14 ar   
    21   10   11 ar   
    22   10  136 1    
    23   11   12 ar   
    24   11  126 1    
    25   12   13 ar   
    26   12  137 1    
    27   13   14 ar   
    28   13   15 1    
    29   14  138 1    
    30   15   16 1    
    31   15  139 1    
    32   15  140 1    
    33   16   17 1    
    34   17   18 1    
    35   17  141 1    
    36   17  142 1    
    37   18   19 1    
    38   18   67 1    
    39   18  143 1    
    40   19   20 am   BACKBONE|DICT|INTERRES
    41   19  144 1    
    42   20   21 2    
    43   20   22 1    
    44   22   23 1    
    45   22   24 1    
    46   22  145 1    
    47   23  146 1    
    48   23  147 1    
    49   23  148 1    
    50   24   25 am   BACKBONE|DICT|INTERRES
    51   24  149 1    
    52   25   26 2    
    53   25   27 1    
    54   27   28 1    
    55   27   29 1    
    56   27  150 1    
    57   28  151 1    
    58   28  152 1    
    59   28  153 1    
    60   29   30 am   BACKBONE|DICT|INTERRES
    61   29  154 1    
    62   30   31 2    
    63   30   32 1    
    64   32   33 1    
    65   32   34 1    
    66   32  155 1    
    67   33  156 1    
    68   33  157 1    
    69   33  158 1    
    70   34   35 am   BACKBONE|DICT|INTERRES
    71   34  159 1    
    72   35   36 2    
    73   35   37 1    
    74   37   38 1    
    75   37   39 1    
    76   37  160 1    
    77   38  161 1    
    78   38  162 1    
    79   38  163 1    
    80   39   40 am   BACKBONE|DICT|INTERRES
    81   39  164 1    
    82   40   41 2    
    83   40   42 1    
    84   42   43 1    
    85   42   44 1    
    86   42  165 1    
    87   43  166 1    
    88   43  167 1    
    89   43  168 1    
    90   44   45 am   BACKBONE|DICT|INTERRES
    91   44  169 1    
    92   45   46 2    
    93   45   47 1    
    94   47   48 1    
    95   47   49 1    
    96   47  170 1    
    97   48  171 1    
    98   48  172 1    
    99   48  173 1    
   100   49   50 am   BACKBONE|DICT|INTERRES
   101   49  174 1    
   102   50   51 2    
   103   50   52 1    
   104   52   53 1    
   105   52   54 1    
   106   52  175 1    
   107   53  176 1    
   108   53  177 1    
   109   53  178 1    
   110   54   55 am   BACKBONE|DICT|INTERRES
   111   54  179 1    
   112   55   56 2    
   113   55   57 1    
   114   57   58 1    
   115   57   59 1    
   116   57  180 1    
   117   58  181 1    
   118   58  182 1    
   119   58  183 1    
   120   59   60 am   BACKBONE|DICT|INTERRES
   121   59  184 1    
   122   60   61 2    
   123   60   62 1    
   124   62   63 1    
   125   62   64 1    
   126   62  185 1    
   127   63  186 1    
   128   63  187 1    
   129   63  188 1    
   130   64   65 am   BACKBONE|DICT|INTERRES
   131   64  189 1    
   132   65   66 2    
   133   67   68 2    
   134   67   69 am   BACKBONE|DICT|INTERRES
   135   69   70 1    
   136   69  190 1    
   137   70   71 1    
   138   70   72 1    
   139   70  191 1    
   140   71  192 1    
   141   71  193 1    
   142   71  194 1    
   143   72   73 2    
   144   72   74 am   BACKBONE|DICT|INTERRES
   145   74   75 1    
   146   74  195 1    
   147   75   76 1    
   148   75   77 1    
   149   75  196 1    
   150   76  197 1    
   151   76  198 1    
   152   76  199 1    
   153   77   78 2    
   154   77   79 am   BACKBONE|DICT|INTERRES
   155   79   80 1    
   156   79  200 1    
   157   80   81 1    
   158   80   82 1    
   159   80  201 1    
   160   81  202 1    
   161   81  203 1    
   162   81  204 1    
   163   82   83 2    
   164   82   84 am   BACKBONE|DICT|INTERRES
   165   84   85 1    
   166   84  205 1    
   167   85   86 1    
   168   85   87 1    
   169   85  206 1    
   170   86  207 1    
   171   86  208 1    
   172   86  209 1    
   173   87   88 2    
   174   87   89 am   BACKBONE|DICT|INTERRES
   175   89   90 1    
   176   89  210 1    
   177   90   91 1    
   178   90   92 1    
   179   90  211 1    
   180   91  212 1    
   181   91  213 1    
   182   91  214 1    
   183   92   93 2    
   184   92   94 am   BACKBONE|DICT|INTERRES
   185   94   95 1    
   186   94  215 1    
   187   95   96 1    
   188   95   97 1    
   189   95  216 1    
   190   96  217 1    
   191   96  218 1    
   192   96  219 1    
   193   97   98 2    
   194   97   99 am   BACKBONE|DICT|INTERRES
   195   99  100 1    
   196   99  220 1    
   197  100  101 1    
   198  100  102 1    
   199  100  221 1    
   200  101  222 1    
   201  101  223 1    
   202  101  224 1    
   203  102  103 2    
   204  102  104 am   BACKBONE|DICT|INTERRES
   205  104  105 1    
   206  104  225 1    
   207  105  106 1    
   208  105  107 1    
   209  105  226 1    
   210  106  227 1    
   211  106  228 1    
   212  106  229 1    
   213  107  108 2    
   214  107  109 am   BACKBONE|DICT|INTERRES
   215  109  110 1    
   216  109  230 1    
   217  110  111 1    
   218  110  112 1    
   219  110  231 1    
   220  111  232 1    
   221  111  233 1    
   222  111  234 1    
   223  112  113 2    
   224  112  114 am   BACKBONE|DICT|INTERRES
   225  114  115 1    
   226  114  235 1    
   227  115  116 1    
   228  115  117 1    
   229  115  236 1    
   230  116  237 1    
   231  116  238 1    
   232  116  239 1    
   233  117  118 2    
   234  117  119 am   BACKBONE|DICT|INTERRES
   235  119  120 1    
   236  119  240 1    
   237  120  121 1    
   238  120  124 1    
   239  120  241 1    
   240  121  122 am   BACKBONE|DICT|INTERRES
   241  121  123 2    
   242  122  242 1    
   243  122  243 1    
   244  124  125 1    
   245  124  244 1    
   246  124  245 1    
   247  125  126 1    
   248  126  246 1    
   249  126  247 1    
@<TRIPOS>SUBSTRUCTURE
     1 UNK         1 GROUP             0       ****    0 ROOT    
