@<TRIPOS>MOLECULE
3R540
247   249    1
SMALL
USER_CHARGES


@<TRIPOS>ATOM
      1 CA         -2.9019  -16.2875  -46.0752 C.3       0 UNK        -0.1800 
      2 C          -2.6763  -14.8506  -46.5213 C.2       0 UNK         0.5000 
      3 O          -2.9995  -13.9287  -45.7716 O.2       0 UNK        -0.5000 
      4 N          -2.1236  -14.6485  -47.7257 N.am      1 UNK        -0.5000 
      5 CA         -1.7593  -13.3283  -48.2429 C.3       1 UNK         0.1400 
      6 C6         -1.6601  -13.2971  -49.7937 C.3       23 UNK        -0.0398 
      7 S7         -0.1767  -14.0704  -50.5407 S.3       23 UNK        -0.2404 
      8 C8         -0.8626  -15.4999  -51.4290 C.3       23 UNK        -0.0205 
      9 C9         -1.2472  -16.6280  -50.4857 C.ar      23 UNK        -0.0193 
     10 C10        -2.5848  -16.8318  -50.1421 C.ar      23 UNK        -0.1150 
     11 C11        -2.9528  -17.8750  -49.2838 C.ar      23 UNK        -0.0193 
     12 C12        -1.9596  -18.7300  -48.8025 C.ar      23 UNK        -0.1150 
     13 C13        -0.6124  -18.5467  -49.1362 C.ar      23 UNK        -0.0193 
     14 C14        -0.2674  -17.4847  -49.9776 C.ar      23 UNK        -0.1150 
     15 C15         0.4775  -19.5007  -48.6451 C.3       23 UNK        -0.0205 
     16 S16         0.4045  -19.8814  -46.8591 S.3       23 UNK        -0.2404 
     17 C17        -0.8420  -21.2073  -46.8056 C.3       23 UNK        -0.0398 
     18 CA         -0.3323  -22.4870  -46.1155 C.3       11 UNK         0.1400 
     19 N          -0.1320  -22.3137  -44.6759 N.am      11 UNK        -0.5000 
     20 C           0.4177  -23.2354  -43.8727 C.2       10 UNK         0.5000 
     21 O           0.8690  -24.3096  -44.2694 O.2       10 UNK        -0.5000 
     22 CA          0.3926  -22.9362  -42.3656 C.3       10 UNK         0.1400 
     23 CB          1.5102  -21.9573  -41.9726 C.3       10 UNK        -0.1800 
     24 N          -0.9078  -22.4130  -41.9447 N.am      10 UNK        -0.5000 
     25 C          -2.0414  -23.1303  -41.9379 C.2       9 UNK         0.5000 
     26 O          -2.0989  -24.3206  -42.2463 O.2       9 UNK        -0.5000 
     27 CA         -3.3337  -22.3839  -41.5595 C.3       9 UNK         0.1400 
     28 CB         -3.5144  -22.3574  -40.0346 C.3       9 UNK        -0.1800 
     29 N          -3.3692  -21.0148  -42.0748 N.am      9 UNK        -0.5000 
     30 C          -3.4366  -20.6903  -43.3741 C.2       8 UNK         0.5000 
     31 O          -3.5018  -21.5148  -44.2848 O.2       8 UNK        -0.5000 
     32 CA         -3.3512  -19.1894  -43.7096 C.3       8 UNK         0.1400 
     33 CB         -4.7320  -18.5272  -43.5927 C.3       8 UNK        -0.1800 
     34 N          -2.3884  -18.4753  -42.8636 N.am      8 UNK        -0.5000 
     35 C          -1.0768  -18.7418  -42.8461 C.2       7 UNK         0.5000 
     36 O          -0.5505  -19.6132  -43.5448 O.2       7 UNK        -0.5000 
     37 CA         -0.2122  -17.9471  -41.8597 C.3       7 UNK         0.1400 
     38 CB         -0.2450  -18.6046  -40.4667 C.3       7 UNK        -0.1800 
     39 N           1.1384  -17.9437  -42.4025 N.am      7 UNK        -0.5000 
     40 C           2.1974  -17.2417  -41.9845 C.2       6 UNK         0.5000 
     41 O           2.1964  -16.5011  -41.0010 O.2       6 UNK        -0.5000 
     42 CA          3.4622  -17.3678  -42.8560 C.3       6 UNK         0.1400 
     43 CB          4.2356  -18.6504  -42.5113 C.3       6 UNK        -0.1800 
     44 N           3.1086  -17.3789  -44.2775 N.am      6 UNK        -0.5000 
     45 C           2.7540  -16.2850  -44.9632 C.2       5 UNK         0.5000 
     46 O           2.8869  -15.1332  -44.5426 O.2       5 UNK        -0.5000 
     47 CA          2.0570  -16.5340  -46.3086 C.3       5 UNK         0.1400 
     48 CB          0.5364  -16.4615  -46.1181 C.3       5 UNK        -0.1800 
     49 N           2.4619  -15.5716  -47.3317 N.am      5 UNK        -0.5000 
     50 C           3.6275  -15.6487  -47.9851 C.2       4 UNK         0.5000 
     51 O           4.4785  -16.5045  -47.7351 O.2       4 UNK        -0.5000 
     52 CA          3.9075  -14.6581  -49.1265 C.3       4 UNK         0.1400 
     53 CB          3.5506  -15.2934  -50.4831 C.3       4 UNK        -0.1800 
     54 N           3.2423  -13.3552  -49.0039 N.am      4 UNK        -0.5000 
     55 C           3.7849  -12.2220  -49.4806 C.2       3 UNK         0.5000 
     56 O           4.9219  -12.1632  -49.9528 O.2       3 UNK        -0.5000 
     57 CA          2.9384  -10.9333  -49.4779 C.3       3 UNK         0.1400 
     58 CB          2.3735  -10.6682  -50.8827 C.3       3 UNK        -0.1800 
     59 N           1.8300  -10.9470  -48.5311 N.am      3 UNK        -0.5000 
     60 C           1.9407  -10.8216  -47.2031 C.2       2 UNK         0.5000 
     61 O           3.0101  -10.6378  -46.6208 O.2       2 UNK        -0.5000 
     62 CA          0.6331  -10.9211  -46.3873 C.3       2 UNK         0.1400 
     63 CB          0.1896   -9.5289  -45.9114 C.3       2 UNK        -0.1800 
     64 N          -0.4837  -11.5549  -47.1022 N.am      2 UNK        -0.5000 
     65 C          -0.4821  -12.8210  -47.5394 C.2       1 UNK         0.5000 
     66 O           0.4956  -13.5649  -47.4351 O.2       1 UNK        -0.5000 
     67 C          -1.2829  -23.6569  -46.4307 C.2       11 UNK         0.5000 
     68 O          -0.9957  -24.4238  -47.3479 O.2       11 UNK        -0.5000 
     69 N          -2.3825  -23.7869  -45.6755 N.am      12 UNK        -0.5000 
     70 CA         -3.3456  -24.8806  -45.8107 C.3       12 UNK         0.1400 
     71 CB         -4.5731  -24.6094  -44.9290 C.3       12 UNK        -0.1800 
     72 C          -2.7285  -26.2544  -45.4922 C.2       12 UNK         0.5000 
     73 O          -2.9527  -27.2036  -46.2432 O.2       12 UNK        -0.5000 
     74 N          -1.9246  -26.3240  -44.4210 N.am      13 UNK        -0.5000 
     75 CA         -1.1732  -27.5160  -44.0203 C.3       13 UNK         0.1400 
     76 CB         -0.5515  -27.2868  -42.6344 C.3       13 UNK        -0.1800 
     77 C          -0.0930  -27.9183  -45.0432 C.2       13 UNK         0.5000 
     78 O           0.0900  -29.1091  -45.2980 O.2       13 UNK        -0.5000 
     79 N           0.5820  -26.9202  -45.6289 N.am      14 UNK        -0.5000 
     80 CA          1.5883  -27.0917  -46.6794 C.3       14 UNK         0.1400 
     81 CB          2.4410  -25.8146  -46.7529 C.3       14 UNK        -0.1800 
     82 C           0.9931  -27.4082  -48.0674 C.2       14 UNK         0.5000 
     83 O           1.7434  -27.8044  -48.9601 O.2       14 UNK        -0.5000 
     84 N          -0.3214  -27.1941  -48.2340 N.am      15 UNK        -0.5000 
     85 CA         -1.0844  -27.2294  -49.4882 C.3       15 UNK         0.1400 
     86 CB         -1.1038  -28.6475  -50.0951 C.3       15 UNK        -0.1800 
     87 C          -0.6283  -26.1413  -50.4877 C.2       15 UNK         0.5000 
     88 O          -0.6761  -26.3458  -51.7016 O.2       15 UNK        -0.5000 
     89 N          -0.1959  -24.9971  -49.9444 N.am      16 UNK        -0.5000 
     90 CA          0.2974  -23.8287  -50.6703 C.3       16 UNK         0.1400 
     91 CB          1.4702  -23.2283  -49.8786 C.3       16 UNK        -0.1800 
     92 C          -0.7985  -22.7692  -50.8887 C.2       16 UNK         0.5000 
     93 O          -0.5858  -21.8385  -51.6666 O.2       16 UNK        -0.5000 
     94 N          -1.9478  -22.9146  -50.2123 N.am      17 UNK        -0.5000 
     95 CA         -3.1206  -22.0412  -50.3107 C.3       17 UNK         0.1400 
     96 CB         -3.9925  -22.2354  -49.0554 C.3       17 UNK        -0.1800 
     97 C          -3.9070  -22.2667  -51.6211 C.2       17 UNK         0.5000 
     98 O          -5.0816  -22.6403  -51.5893 O.2       17 UNK        -0.5000 
     99 N          -3.2379  -22.0377  -52.7530 N.am      18 UNK        -0.5000 
    100 CA        -3.7707  -22.1528  -54.1080 C.3       18 UNK         0.1400 
    101 CB        -3.3198  -23.4934  -54.7170 C.3       18 UNK        -0.1800 
    102 C         -3.3454  -20.9318  -54.9439 C.2       18 UNK         0.5000 
    103 O         -3.0025  -21.0695  -56.1200 O.2       18 UNK        -0.5000 
    104 N         -3.3625  -19.7541  -54.3113 N.am      19 UNK        -0.5000 
    105 CA        -3.1213  -18.4560  -54.9309 C.3       19 UNK         0.1400 
    106 CB        -2.4711  -17.5393  -53.8794 C.3       19 UNK        -0.1800 
    107 C         -4.4445  -17.8529  -55.4389 C.2       19 UNK         0.5000 
    108 O         -5.5211  -18.4059  -55.1990 O.2       19 UNK        -0.5000 
    109 N         -4.3489  -16.6977  -56.1093 N.am      20 UNK        -0.5000 
    110 CA        -5.5044  -15.9155  -56.5603 C.3       20 UNK         0.1400 
    111 CB        -5.0251  -14.8161  -57.5206 C.3       20 UNK        -0.1800 
    112 C         -6.3097  -15.3033  -55.3950 C.2       20 UNK         0.5000 
    113 O         -7.5213  -15.1235  -55.5232 O.2       20 UNK        -0.5000 
    114 N         -5.6233  -14.9981  -54.2843 N.am      21 UNK        -0.5000 
    115 CA        -6.2156  -14.4538  -53.0626 C.3       21 UNK         0.1400 
    116 CB        -5.1047  -13.8318  -52.2008 C.3       21 UNK        -0.1800 
    117 C         -6.9975  -15.5078  -52.2564 C.2       21 UNK         0.5000 
    118 O         -8.0628  -15.1946  -51.7233 O.2       21 UNK        -0.5000 
    119 N         -6.4550  -16.7275  -52.1785 N.am      22 UNK        -0.5000 
    120 CA        -6.9714  -17.8519  -51.3887 C.3       22 UNK         0.1400 
    121 C         -6.1992  -19.1562  -51.7122 C.2       22 UNK         0.5000 
    122 N         -6.8215  -20.3122  -51.5265 N.am      22 UNK        -0.7600 
    123 O         -5.0249  -19.1372  -52.0724 O.2       22 UNK        -0.5000 
    124 C124       -7.0157  -17.5824  -49.8508 C.3       23 UNK        -0.0398 
    125 S125       -5.5488  -16.7451  -49.1441 S.3       23 UNK        -0.2404 
    126 C126       -4.3991  -18.1353  -48.8570 C.3       23 UNK        -0.0205 
    127 H127       -3.9591  -16.5408  -46.1471 H         1 UNK         0.0600 
    128 H128       -2.5879  -16.4105  -45.0389 H         1 UNK         0.0600 
    129 H129       -2.3343  -16.9930  -46.6778 H         1 UNK         0.0600 
    130 H130       -1.8462  -15.4357  -48.2965 H         1 UNK         0.3000 
    131 H131       -2.5725  -12.6485  -47.9786 H         1 UNK         0.0600 
    132 H132       -2.5585  -13.7391  -50.2253 H         1 UNK         0.0800 
    133 H133       -1.6708  -12.2584  -50.1272 H         1 UNK         0.0800 
    134 H134       -1.7153  -15.1837  -52.0314 H         1 UNK         0.0800 
    135 H135       -0.1140  -15.8639  -52.1342 H         1 UNK         0.0800 
    136 H136       -3.3334  -16.1720  -50.5518 H         1 UNK         0.1150 
    137 H137       -2.2590  -19.5395  -48.1605 H         1 UNK         0.1150 
    138 H138        0.7661  -17.3292  -50.2529 H         1 UNK         0.1150 
    139 H139        0.4375  -20.4199  -49.2291 H         1 UNK         0.0800 
    140 H140        1.4594  -19.0666  -48.8397 H         1 UNK         0.0800 
    141 H141       -1.1363  -21.4358  -47.8305 H         1 UNK         0.0800 
    142 H142       -1.7319  -20.8286  -46.3008 H         1 UNK         0.0800 
    143 H143        0.6378  -22.7427  -46.5459 H         1 UNK         0.0600 
    144 H144       -0.4349  -21.4295  -44.2774 H         1 UNK         0.3000 
    145 H145        0.5666  -23.8757  -41.8366 H         1 UNK         0.0600 
    146 H146        1.5205  -21.7814  -40.8969 H         1 UNK         0.0600 
    147 H147        2.4879  -22.3567  -42.2447 H         1 UNK         0.0600 
    148 H148        1.4043  -20.9936  -42.4693 H         1 UNK         0.0600 
    149 H149       -0.9556  -21.4290  -41.7310 H         1 UNK         0.3000 
    150 H150       -4.1736  -22.9306  -41.9930 H         1 UNK         0.0600 
    151 H151       -2.7166  -21.7996  -39.5426 H         1 UNK         0.0600 
    152 H152       -3.5101  -23.3680  -39.6240 H         1 UNK         0.0600 
    153 H153       -4.4645  -21.8999  -39.7581 H         1 UNK         0.0600 
    154 H154       -3.3160  -20.2703  -41.3957 H         1 UNK         0.3000 
    155 H155       -3.0168  -19.1013  -44.7457 H         1 UNK         0.0600 
    156 H156       -5.1207  -18.5800  -42.5750 H         1 UNK         0.0600 
    157 H157       -5.4549  -19.0173  -44.2464 H         1 UNK         0.0600 
    158 H158       -4.6947  -17.4772  -43.8819 H         1 UNK         0.0600 
    159 H159       -2.7586  -17.7555  -42.2596 H         1 UNK         0.3000 
    160 H160       -0.5785  -16.9203  -41.8039 H         1 UNK         0.0600 
    161 H161        0.1578  -19.6174  -40.4900 H         1 UNK         0.0600 
    162 H162       -1.2644  -18.6640  -40.0837 H         1 UNK         0.0600 
    163 H163        0.3346  -18.0338  -39.7417 H         1 UNK         0.0600 
    164 H164        1.2247  -18.5281  -43.2247 H         1 UNK         0.3000 
    165 H165        4.1082  -16.5114  -42.6509 H         1 UNK         0.0600 
    166 H166        5.1546  -18.7236  -43.0930 H         1 UNK         0.0600 
    167 H167        4.5164  -18.6638  -41.4574 H         1 UNK         0.0600 
    168 H168        3.6444  -19.5465  -42.7043 H         1 UNK         0.0600 
    169 H169        2.9909  -18.2848  -44.7076 H         1 UNK         0.3000 
    170 H170        2.3065  -17.5365  -46.6622 H         1 UNK         0.0600 
    171 H171        0.2281  -15.5066  -45.6921 H         1 UNK         0.0600 
    172 H172        0.0191  -16.5923  -47.0674 H         1 UNK         0.0600 
    173 H173        0.1863  -17.2427  -45.4429 H         1 UNK         0.0600 
    174 H174        1.7982  -14.8240  -47.5174 H         1 UNK         0.3000 
    175 H175        4.9890  -14.5064  -49.1054 H         1 UNK         0.0600 
    176 H176        4.0490  -16.2553  -50.6103 H         1 UNK         0.0600 
    177 H177        2.4784  -15.4664  -50.5728 H         1 UNK         0.0600 
    178 H178        3.8583  -14.6581  -51.3137 H         1 UNK         0.0600 
    179 H179        2.3109  -13.3370  -48.6057 H         1 UNK         0.3000 
    180 H180        3.6019  -10.1062  -49.2164 H         1 UNK         0.0600 
    181 H181        1.6913  -11.4593  -51.1972 H         1 UNK         0.0600 
    182 H182        3.1732  -10.6121  -51.6225 H         1 UNK         0.0600 
    183 H183        1.8325   -9.7224  -50.9198 H         1 UNK         0.0600 
    184 H184        0.9102  -11.0995  -48.9162 H         1 UNK         0.3000 
    185 H185        0.8510  -11.5304  -45.5076 H         1 UNK         0.0600 
    186 H186        0.9823   -9.0370  -45.3460 H         1 UNK         0.0600 
    187 H187       -0.0660   -8.8803  -46.7503 H         1 UNK         0.0600 
    188 H188       -0.6804   -9.5932  -45.2575 H         1 UNK         0.0600 
    189 H189       -1.3138  -10.9920  -47.2215 H         1 UNK         0.3000 
    190 H190       -2.5989  -23.0728  -44.9859 H         1 UNK         0.3000 
    191 H191       -3.6780  -24.9011  -46.8507 H         1 UNK         0.0600 
    192 H192       -5.0550  -23.6709  -45.2032 H         1 UNK         0.0600 
    193 H193       -5.3155  -25.4007  -45.0398 H         1 UNK         0.0600 
    194 H194       -4.3077  -24.5541  -43.8735 H         1 UNK         0.0600 
    195 H195       -1.8280  -25.5060  -43.8267 H         1 UNK         0.3000 
    196 H196       -1.8796  -28.3450  -43.9420 H         1 UNK         0.0600 
    197 H197        0.0010  -28.1667  -42.3027 H         1 UNK         0.0600 
    198 H198       -1.3191  -27.0837  -41.8875 H         1 UNK         0.0600 
    199 H199        0.1413  -26.4447  -42.6379 H         1 UNK         0.0600 
    200 H200        0.4215  -25.9701  -45.3081 H         1 UNK         0.3000 
    201 H201        2.2405  -27.9230  -46.4042 H         1 UNK         0.0600 
    202 H202        3.2302  -25.9097  -47.4997 H         1 UNK         0.0600 
    203 H203        2.9224  -25.6059  -45.7973 H         1 UNK         0.0600 
    204 H204        1.8388  -24.9459  -47.0209 H         1 UNK         0.0600 
    205 H205       -0.8322  -26.8463  -47.4329 H         1 UNK         0.3000 
    206 H206       -2.1106  -26.9763  -49.2180 H         1 UNK         0.0600 
    207 H207       -1.4228  -29.3858  -49.3594 H         1 UNK         0.0600 
    208 H208       -1.8002  -28.7031  -50.9325 H         1 UNK         0.0600 
    209 H209       -0.1236  -28.9454  -50.4676 H         1 UNK         0.0600 
    210 H210       -0.2628  -24.9012  -48.9329 H         1 UNK         0.3000 
    211 H211        0.6656  -24.1312  -51.6527 H         1 UNK         0.0600 
    212 H212        1.1575  -22.8872  -48.8919 H         1 UNK         0.0600 
    213 H213        1.8999  -22.3729  -50.4014 H         1 UNK         0.0600 
    214 H214        2.2675  -23.9592  -49.7420 H         1 UNK         0.0600 
    215 H215       -2.0397  -23.7242  -49.6161 H         1 UNK         0.3000 
    216 H216       -2.7823  -21.0034  -50.3223 H         1 UNK         0.0600 
    217 H217       -4.8711  -21.5897  -49.0866 H         1 UNK         0.0600 
    218 H218       -3.4478  -21.9884  -48.1453 H         1 UNK         0.0600 
    219 H219       -4.3440  -23.2638  -48.9649 H         1 UNK         0.0600 
    220 H220       -2.2708  -21.7343  -52.6753 H         1 UNK         0.3000 
    221 H221       -4.8621  -22.1360  -54.0830 H         1 UNK         0.0600 
    222 H222       -2.2337  -23.5506  -54.7976 H         1 UNK         0.0600 
    223 H223       -3.6546  -24.3337  -54.1086 H         1 UNK         0.0600 
    224 H224       -3.7349  -23.6318  -55.7160 H         1 UNK         0.0600 
    225 H225       -3.7783  -19.7140  -53.3832 H         1 UNK         0.3000 
    226 H226       -2.4393  -18.5654  -55.7764 H         1 UNK         0.0600 
    227 H227       -2.1850  -16.5787  -54.3082 H         1 UNK         0.0600 
    228 H228       -3.1457  -17.3417  -53.0456 H         1 UNK         0.0600 
    229 H229       -1.5663  -17.9899  -53.4705 H         1 UNK         0.0600 
    230 H230       -3.4369  -16.3036  -56.2905 H         1 UNK         0.3000 
    231 H231       -6.1735  -16.5805  -57.1107 H         1 UNK         0.0600 
    232 H232       -4.3358  -14.1261  -57.0322 H         1 UNK         0.0600 
    233 H233       -5.8662  -14.2304  -57.8938 H         1 UNK         0.0600 
    234 H234       -4.5181  -15.2420  -58.3866 H         1 UNK         0.0600 
    235 H235       -4.6291  -15.1660  -54.2753 H         1 UNK         0.3000 
    236 H236       -6.9134  -13.6603  -53.3389 H         1 UNK         0.0600 
    237 H237       -4.6119  -13.0119  -52.7236 H         1 UNK         0.0600 
    238 H238       -5.5093  -13.4284  -51.2715 H         1 UNK         0.0600 
    239 H239       -4.3436  -14.5651  -51.9353 H         1 UNK         0.0600 
    240 H240       -5.5959  -16.9315  -52.6692 H         1 UNK         0.3000 
    241 H241       -7.9956  -18.0162  -51.7287 H         1 UNK         0.0600 
    242 H242       -6.3058  -21.1739  -51.6766 H         1 UNK         0.3800 
    243 H243       -7.7821  -20.3598  -51.2256 H         1 UNK         0.3800 
    244 H244       -7.2119  -18.4985  -49.2910 H         1 UNK         0.0800 
    245 H245       -7.8696  -16.9391  -49.6366 H         1 UNK         0.0800 
    246 H246       -4.7455  -19.0322  -49.3665 H         1 UNK         0.0800 
    247 H247       -4.4250  -18.3715  -47.7926 H         1 UNK         0.0800 
@<TRIPOS>BOND
     1    1    2 1    
     2    1  127 1    
     3    1  128 1    
     4    1  129 1    
     5    2    3 2    
     6    2    4 am   BACKBONE|DICT|INTERRES
     7    4    5 1    
     8    4  130 1    
     9    5    6 1    
    10    5   65 1    
    11    5  131 1    
    12    6    7 1    
    13    6  132 1    
    14    6  133 1    
    15    7    8 1    
    16    8    9 1    
    17    8  134 1    
    18    8  135 1    
    19    9   10 ar   
    20    9   14 ar   
    21   10   11 ar   
    22   10  136 1    
    23   11   12 ar   
    24   11  126 1    
    25   12   13 ar   
    26   12  137 1    
    27   13   14 ar   
    28   13   15 1    
    29   14  138 1    
    30   15   16 1    
    31   15  139 1    
    32   15  140 1    
    33   16   17 1    
    34   17   18 1    
    35   17  141 1    
    36   17  142 1    
    37   18   19 1    
    38   18   67 1    
    39   18  143 1    
    40   19   20 am   BACKBONE|DICT|INTERRES
    41   19  144 1    
    42   20   21 2    
    43   20   22 1    
    44   22   23 1    
    45   22   24 1    
    46   22  145 1    
    47   23  146 1    
    48   23  147 1    
    49   23  148 1    
    50   24   25 am   BACKBONE|DICT|INTERRES
    51   24  149 1    
    52   25   26 2    
    53   25   27 1    
    54   27   28 1    
    55   27   29 1    
    56   27  150 1    
    57   28  151 1    
    58   28  152 1    
    59   28  153 1    
    60   29   30 am   BACKBONE|DICT|INTERRES
    61   29  154 1    
    62   30   31 2    
    63   30   32 1    
    64   32   33 1    
    65   32   34 1    
    66   32  155 1    
    67   33  156 1    
    68   33  157 1    
    69   33  158 1    
    70   34   35 am   BACKBONE|DICT|INTERRES
    71   34  159 1    
    72   35   36 2    
    73   35   37 1    
    74   37   38 1    
    75   37   39 1    
    76   37  160 1    
    77   38  161 1    
    78   38  162 1    
    79   38  163 1    
    80   39   40 am   BACKBONE|DICT|INTERRES
    81   39  164 1    
    82   40   41 2    
    83   40   42 1    
    84   42   43 1    
    85   42   44 1    
    86   42  165 1    
    87   43  166 1    
    88   43  167 1    
    89   43  168 1    
    90   44   45 am   BACKBONE|DICT|INTERRES
    91   44  169 1    
    92   45   46 2    
    93   45   47 1    
    94   47   48 1    
    95   47   49 1    
    96   47  170 1    
    97   48  171 1    
    98   48  172 1    
    99   48  173 1    
   100   49   50 am   BACKBONE|DICT|INTERRES
   101   49  174 1    
   102   50   51 2    
   103   50   52 1    
   104   52   53 1    
   105   52   54 1    
   106   52  175 1    
   107   53  176 1    
   108   53  177 1    
   109   53  178 1    
   110   54   55 am   BACKBONE|DICT|INTERRES
   111   54  179 1    
   112   55   56 2    
   113   55   57 1    
   114   57   58 1    
   115   57   59 1    
   116   57  180 1    
   117   58  181 1    
   118   58  182 1    
   119   58  183 1    
   120   59   60 am   BACKBONE|DICT|INTERRES
   121   59  184 1    
   122   60   61 2    
   123   60   62 1    
   124   62   63 1    
   125   62   64 1    
   126   62  185 1    
   127   63  186 1    
   128   63  187 1    
   129   63  188 1    
   130   64   65 am   BACKBONE|DICT|INTERRES
   131   64  189 1    
   132   65   66 2    
   133   67   68 2    
   134   67   69 am   BACKBONE|DICT|INTERRES
   135   69   70 1    
   136   69  190 1    
   137   70   71 1    
   138   70   72 1    
   139   70  191 1    
   140   71  192 1    
   141   71  193 1    
   142   71  194 1    
   143   72   73 2    
   144   72   74 am   BACKBONE|DICT|INTERRES
   145   74   75 1    
   146   74  195 1    
   147   75   76 1    
   148   75   77 1    
   149   75  196 1    
   150   76  197 1    
   151   76  198 1    
   152   76  199 1    
   153   77   78 2    
   154   77   79 am   BACKBONE|DICT|INTERRES
   155   79   80 1    
   156   79  200 1    
   157   80   81 1    
   158   80   82 1    
   159   80  201 1    
   160   81  202 1    
   161   81  203 1    
   162   81  204 1    
   163   82   83 2    
   164   82   84 am   BACKBONE|DICT|INTERRES
   165   84   85 1    
   166   84  205 1    
   167   85   86 1    
   168   85   87 1    
   169   85  206 1    
   170   86  207 1    
   171   86  208 1    
   172   86  209 1    
   173   87   88 2    
   174   87   89 am   BACKBONE|DICT|INTERRES
   175   89   90 1    
   176   89  210 1    
   177   90   91 1    
   178   90   92 1    
   179   90  211 1    
   180   91  212 1    
   181   91  213 1    
   182   91  214 1    
   183   92   93 2    
   184   92   94 am   BACKBONE|DICT|INTERRES
   185   94   95 1    
   186   94  215 1    
   187   95   96 1    
   188   95   97 1    
   189   95  216 1    
   190   96  217 1    
   191   96  218 1    
   192   96  219 1    
   193   97   98 2    
   194   97   99 am   BACKBONE|DICT|INTERRES
   195   99  100 1    
   196   99  220 1    
   197  100  101 1    
   198  100  102 1    
   199  100  221 1    
   200  101  222 1    
   201  101  223 1    
   202  101  224 1    
   203  102  103 2    
   204  102  104 am   BACKBONE|DICT|INTERRES
   205  104  105 1    
   206  104  225 1    
   207  105  106 1    
   208  105  107 1    
   209  105  226 1    
   210  106  227 1    
   211  106  228 1    
   212  106  229 1    
   213  107  108 2    
   214  107  109 am   BACKBONE|DICT|INTERRES
   215  109  110 1    
   216  109  230 1    
   217  110  111 1    
   218  110  112 1    
   219  110  231 1    
   220  111  232 1    
   221  111  233 1    
   222  111  234 1    
   223  112  113 2    
   224  112  114 am   BACKBONE|DICT|INTERRES
   225  114  115 1    
   226  114  235 1    
   227  115  116 1    
   228  115  117 1    
   229  115  236 1    
   230  116  237 1    
   231  116  238 1    
   232  116  239 1    
   233  117  118 2    
   234  117  119 am   BACKBONE|DICT|INTERRES
   235  119  120 1    
   236  119  240 1    
   237  120  121 1    
   238  120  124 1    
   239  120  241 1    
   240  121  122 am   BACKBONE|DICT|INTERRES
   241  121  123 2    
   242  122  242 1    
   243  122  243 1    
   244  124  125 1    
   245  124  244 1    
   246  124  245 1    
   247  125  126 1    
   248  126  246 1    
   249  126  247 1    
@<TRIPOS>SUBSTRUCTURE
     1 UNK         1 GROUP             0       ****    0 ROOT    
