@<TRIPOS>MOLECULE
3R540
247   249    1
SMALL
USER_CHARGES


@<TRIPOS>ATOM
      1 CA          6.7314  -11.2347  -44.6780 C.3       0 UNK        -0.1800 
      2 C           5.3968  -11.8572  -45.0557 C.2       0 UNK         0.5000 
      3 O           4.4015  -11.6449  -44.3632 O.2       0 UNK        -0.5000 
      4 N           5.3590  -12.6194  -46.1567 N.am      1 UNK        -0.5000 
      5 CA          4.1681  -13.3234  -46.6527 C.3       1 UNK         0.1400 
      6 C6          4.5258  -14.3216  -47.7809 C.3       23 UNK        -0.0398 
      7 S7          3.3837  -15.7425  -47.8348 S.3       23 UNK        -0.2404 
      8 C8          2.6502  -15.5245  -49.4833 C.3       23 UNK        -0.0205 
      9 C9          1.5720  -16.5620  -49.7474 C.ar      23 UNK        -0.0193 
     10 C10         0.2256  -16.1896  -49.7737 C.ar      23 UNK        -0.1150 
     11 C11        -0.7666  -17.1410  -50.0234 C.ar      23 UNK        -0.0193 
     12 C12        -0.4077  -18.4772  -50.2227 C.ar      23 UNK        -0.1150 
     13 C13         0.9364  -18.8618  -50.2035 C.ar      23 UNK        -0.0193 
     14 C14         1.9219  -17.8955  -49.9783 C.ar      23 UNK        -0.1150 
     15 C15         1.3157  -20.3205  -50.4317 C.3       23 UNK        -0.0205 
     16 S16         2.3591  -21.0136  -49.1036 S.3       23 UNK        -0.2404 
     17 C17         1.3545  -20.6972  -47.6140 C.3       23 UNK        -0.0398 
     18 CA          0.5504  -21.9300  -47.1441 C.3       11 UNK         0.1400 
     19 N           0.2232  -21.8357  -45.7207 N.am      11 UNK        -0.5000 
     20 C          -0.3467  -22.8048  -44.9926 C.2       10 UNK         0.5000 
     21 O          -0.5920  -23.9310  -45.4218 O.2       10 UNK        -0.5000 
     22 CA         -0.7666  -22.4274  -43.5625 C.3       10 UNK         0.1400 
     23 CB          0.4088  -22.5801  -42.5859 C.3       10 UNK        -0.1800 
     24 N          -1.2931  -21.0621  -43.5042 N.am      10 UNK        -0.5000 
     25 C          -2.4805  -20.6978  -44.0102 C.2       9 UNK         0.5000 
     26 O          -3.2739  -21.4912  -44.5168 O.2       9 UNK        -0.5000 
     27 CA         -2.8196  -19.1945  -43.9827 C.3       9 UNK         0.1400 
     28 CB         -3.4063  -18.7969  -42.6203 C.3       9 UNK        -0.1800 
     29 N          -1.6639  -18.3448  -44.2789 N.am      9 UNK        -0.5000 
     30 C          -1.0493  -18.2869  -45.4697 C.2       8 UNK         0.5000 
     31 O          -1.4271  -18.9119  -46.4577 O.2       8 UNK        -0.5000 
     32 CA          0.2315  -17.4329  -45.5614 C.3       8 UNK         0.1400 
     33 CB         -0.1087  -16.0048  -46.0098 C.3       8 UNK        -0.1800 
     34 N           0.9988  -17.3920  -44.3110 N.am      8 UNK        -0.5000 
     35 C           1.5116  -18.4671  -43.6950 C.2       7 UNK         0.5000 
     36 O           1.4015  -19.6158  -44.1286 O.2       7 UNK        -0.5000 
     37 CA          2.2330  -18.1916  -42.3636 C.3       7 UNK         0.1400 
     38 CB          2.6953  -19.4708  -41.6346 C.3       7 UNK        -0.1800 
     39 N           3.3285  -17.2337  -42.5302 N.am      7 UNK        -0.5000 
     40 C           4.4867  -17.4091  -43.1873 C.2       6 UNK         0.5000 
     41 O           4.8037  -18.4608  -43.7434 O.2       6 UNK        -0.5000 
     42 CA          5.4616  -16.2093  -43.2464 C.3       6 UNK         0.1400 
     43 CB          5.9707  -15.9773  -44.6778 C.3       6 UNK        -0.1800 
     44 N           4.8684  -14.9640  -42.7535 N.am      6 UNK        -0.5000 
     45 C           4.7986  -14.5922  -41.4684 C.2       5 UNK         0.5000 
     46 O           5.3106  -15.2242  -40.5446 O.2       5 UNK        -0.5000 
     47 CA          3.9755  -13.3271  -41.1608 C.3       5 UNK         0.1400 
     48 CB          4.8950  -12.1144  -40.9526 C.3       5 UNK        -0.1800 
     49 N           2.9904  -13.0087  -42.1985 N.am      5 UNK        -0.5000 
     50 C           1.8798  -13.7134  -42.4594 C.2       4 UNK         0.5000 
     51 O           1.6136  -14.7779  -41.8991 O.2       4 UNK        -0.5000 
     52 CA          0.9374  -13.1878  -43.5639 C.3       4 UNK         0.1400 
     53 CB         -0.5498  -13.3311  -43.1821 C.3       4 UNK        -0.1800 
     54 N           1.2413  -11.8304  -44.0301 N.am      4 UNK        -0.5000 
     55 C           1.1590  -10.6741  -43.3519 C.2       3 UNK         0.5000 
     56 O           0.7280  -10.5858  -42.2020 O.2       3 UNK        -0.5000 
     57 CA          1.6825   -9.4057  -44.0596 C.3       3 UNK         0.1400 
     58 CB          2.7501   -8.7051  -43.2012 C.3       3 UNK        -0.1800 
     59 N           2.2743   -9.7140  -45.3631 N.am      3 UNK        -0.5000 
     60 C           1.6761   -9.5456  -46.5502 C.2       2 UNK         0.5000 
     61 O           0.5672   -9.0293  -46.6906 O.2       2 UNK        -0.5000 
     62 CA          2.4336  -10.0623  -47.7929 C.3       2 UNK         0.1400 
     63 CB          3.1970   -8.9145  -48.4709 C.3       2 UNK        -0.1800 
     64 N           3.3732  -11.1493  -47.4986 N.am      2 UNK        -0.5000 
     65 C           3.0241  -12.3678  -47.0601 C.2       1 UNK         0.5000 
     66 O           1.8558  -12.7179  -46.8975 O.2       1 UNK        -0.5000 
     67 C          -0.7121  -22.1617  -48.0047 C.2       11 UNK         0.5000 
     68 O          -0.7098  -23.0445  -48.8611 O.2       11 UNK        -0.5000 
     69 N          -1.7844  -21.4059  -47.7273 N.am      12 UNK        -0.5000 
     70 CA         -3.0998  -21.5541  -48.3495 C.3       12 UNK         0.1400 
     71 CB         -4.0240  -20.4229  -47.8750 C.3       12 UNK        -0.1800 
     72 C          -3.7432  -22.9249  -48.0788 C.2       12 UNK         0.5000 
     73 O          -4.3025  -23.5204  -49.0001 O.2       12 UNK        -0.5000 
     74 N          -3.6262  -23.4149  -46.8362 N.am      13 UNK        -0.5000 
     75 CA         -4.0640  -24.7520  -46.4349 C.3       13 UNK         0.1400 
     76 CB         -3.9522  -24.9082  -44.9110 C.3       13 UNK        -0.1800 
     77 C          -3.2907  -25.8610  -47.1718 C.2       13 UNK         0.5000 
     78 O          -3.9149  -26.7752  -47.7132 O.2       13 UNK        -0.5000 
     79 N          -1.9565  -25.7256  -47.2230 N.am      14 UNK        -0.5000 
     80 CA         -1.0408  -26.6174  -47.9386 C.3       14 UNK         0.1400 
     81 CB          0.4114  -26.2238  -47.6300 C.3       14 UNK        -0.1800 
     82 C          -1.2862  -26.6544  -49.4588 C.2       14 UNK         0.5000 
     83 O          -1.1561  -27.7187  -50.0645 O.2       14 UNK        -0.5000 
     84 N          -1.7072  -25.5230  -50.0411 N.am      15 UNK        -0.5000 
     85 CA         -2.1595  -25.3731  -51.4284 C.3       15 UNK         0.1400 
     86 CB         -2.0674  -23.8874  -51.8239 C.3       15 UNK        -0.1800 
     87 C          -3.5710  -25.9621  -51.6688 C.2       15 UNK         0.5000 
     88 O          -4.4043  -25.3258  -52.3176 O.2       15 UNK        -0.5000 
     89 N          -3.8090  -27.1670  -51.1287 N.am      16 UNK        -0.5000 
     90 CA         -5.0262  -27.9801  -51.1953 C.3       16 UNK         0.1400 
     91 CB         -5.1281  -28.6593  -52.5750 C.3       16 UNK        -0.1800 
     92 C          -6.3030  -27.2161  -50.7862 C.2       16 UNK         0.5000 
     93 O          -7.3294  -27.3239  -51.4593 O.2       16 UNK        -0.5000 
     94 N          -6.1989  -26.4524  -49.6876 N.am      17 UNK        -0.5000 
     95 CA         -7.2232  -25.5612  -49.1347 C.3       17 UNK         0.1400 
     96 CB         -8.4066  -26.3717  -48.5658 C.3       17 UNK        -0.1800 
     97 C          -7.6516  -24.4707  -50.1390 C.2       17 UNK         0.5000 
     98 O          -8.8325  -24.3621  -50.4758 O.2       17 UNK        -0.5000 
     99 N          -6.6618  -23.6861  -50.5884 N.am      18 UNK        -0.5000 
    100 CA        -6.7691  -22.5568  -51.5162 C.3       18 UNK         0.1400 
    101 CB        -7.5632  -21.4056  -50.8632 C.3       18 UNK        -0.1800 
    102 C         -7.3144  -22.9592  -52.9029 C.2       18 UNK         0.5000 
    103 O         -8.2060  -22.2966  -53.4381 O.2       18 UNK        -0.5000 
    104 N         -6.7760  -24.0495  -53.4647 N.am      19 UNK        -0.5000 
    105 CA        -7.1450  -24.5686  -54.7807 C.3       19 UNK         0.1400 
    106 CB        -6.6396  -26.0125  -54.9170 C.3       19 UNK        -0.1800 
    107 C         -6.5973  -23.6675  -55.9029 C.2       19 UNK         0.5000 
    108 O         -5.4184  -23.7717  -56.2477 O.2       19 UNK        -0.5000 
    109 N         -7.4642  -22.7893  -56.4297 N.am      20 UNK        -0.5000 
    110 CA        -7.1961  -21.7995  -57.4827 C.3       20 UNK         0.1400 
    111 CB        -6.9368  -22.4991  -58.8337 C.3       20 UNK        -0.1800 
    112 C         -6.0863  -20.7960  -57.0974 C.2       20 UNK         0.5000 
    113 O         -5.2584  -20.4267  -57.9329 O.2       20 UNK        -0.5000 
    114 N         -6.0881  -20.3826  -55.8265 N.am      21 UNK        -0.5000 
    115 CA        -5.1101  -19.4935  -55.2109 C.3       21 UNK         0.1400 
    116 CB        -3.8658  -20.3100  -54.8058 C.3       21 UNK        -0.1800 
    117 C         -5.7550  -18.8125  -53.9943 C.2       21 UNK         0.5000 
    118 O         -6.9062  -19.1061  -53.6628 O.2       21 UNK        -0.5000 
    119 N         -4.9942  -17.9335  -53.3327 N.am      22 UNK        -0.5000 
    120 CA        -5.3527  -17.3304  -52.0369 C.3       22 UNK         0.1400 
    121 C         -5.3779  -18.3297  -50.8437 C.2       22 UNK         0.5000 
    122 N         -4.7415  -19.4912  -50.9426 N.am      22 UNK        -0.7600 
    123 O         -5.9845  -18.0455  -49.8155 O.2       22 UNK        -0.5000 
    124 C124       -4.4768  -16.0915  -51.7103 C.3       23 UNK        -0.0398 
    125 S125       -2.6794  -16.3980  -51.8422 S.3       23 UNK        -0.2404 
    126 C126       -2.2238  -16.7232  -50.1101 C.3       23 UNK        -0.0205 
    127 H127        7.0981  -11.6717  -43.7496 H         1 UNK         0.0600 
    128 H128        6.6148  -10.1613  -44.5291 H         1 UNK         0.0600 
    129 H129        7.4842  -11.3919  -45.4505 H         1 UNK         0.0600 
    130 H130        6.2055  -12.7479  -46.6933 H         1 UNK         0.3000 
    131 H131        3.7919  -13.8965  -45.8025 H         1 UNK         0.0600 
    132 H132        4.5822  -13.8261  -48.7519 H         1 UNK         0.0800 
    133 H133        5.5188  -14.7399  -47.6103 H         1 UNK         0.0800 
    134 H134        2.2392  -14.5167  -49.5640 H         1 UNK         0.0800 
    135 H135        3.4285  -15.6079  -50.2433 H         1 UNK         0.0800 
    136 H136       -0.0506  -15.1569  -49.6129 H         1 UNK         0.1150 
    137 H137       -1.1779  -19.2128  -50.4087 H         1 UNK         0.1150 
    138 H138        2.9634  -18.1847  -49.9626 H         1 UNK         0.1150 
    139 H139        0.4245  -20.9409  -50.5381 H         1 UNK         0.0800 
    140 H140        1.8546  -20.3977  -51.3767 H         1 UNK         0.0800 
    141 H141        0.7071  -19.8328  -47.7561 H         1 UNK         0.0800 
    142 H142        2.0596  -20.4020  -46.8352 H         1 UNK         0.0800 
    143 H143        1.1852  -22.8120  -47.2530 H         1 UNK         0.0600 
    144 H144        0.4411  -20.9587  -45.2585 H         1 UNK         0.3000 
    145 H145       -1.5562  -23.1142  -43.2499 H         1 UNK         0.0600 
    146 H146        0.1201  -22.3041  -41.5717 H         1 UNK         0.0600 
    147 H147        0.7533  -23.6145  -42.5560 H         1 UNK         0.0600 
    148 H148        1.2600  -21.9637  -42.8745 H         1 UNK         0.0600 
    149 H149       -0.6680  -20.3492  -43.1581 H         1 UNK         0.3000 
    150 H150       -3.5786  -19.0115  -44.7462 H         1 UNK         0.0600 
    151 H151       -4.2821  -19.4020  -42.3817 H         1 UNK         0.0600 
    152 H152       -3.7231  -17.7538  -42.6168 H         1 UNK         0.0600 
    153 H153       -2.6844  -18.9318  -41.8139 H         1 UNK         0.0600 
    154 H154       -1.2945  -17.7945  -43.5183 H         1 UNK         0.3000 
    155 H155        0.8711  -17.8797  -46.3251 H         1 UNK         0.0600 
    156 H156       -0.6739  -16.0153  -46.9426 H         1 UNK         0.0600 
    157 H157        0.7936  -15.4213  -46.1914 H         1 UNK         0.0600 
    158 H158       -0.7127  -15.4808  -45.2693 H         1 UNK         0.0600 
    159 H159        1.1298  -16.4873  -43.8835 H         1 UNK         0.3000 
    160 H160        1.5036  -17.7026  -41.7160 H         1 UNK         0.0600 
    161 H161        3.3567  -20.0806  -42.2506 H         1 UNK         0.0600 
    162 H162        1.8400  -20.0907  -41.3652 H         1 UNK         0.0600 
    163 H163        3.2230  -19.2301  -40.7118 H         1 UNK         0.0600 
    164 H164        3.1503  -16.3196  -42.1331 H         1 UNK         0.3000 
    165 H165        6.3214  -16.4621  -42.6227 H         1 UNK         0.0600 
    166 H166        6.6082  -15.0951  -44.7386 H         1 UNK         0.0600 
    167 H167        6.5594  -16.8266  -45.0263 H         1 UNK         0.0600 
    168 H168        5.1438  -15.8499  -45.3740 H         1 UNK         0.0600 
    169 H169        4.4190  -14.3725  -43.4362 H         1 UNK         0.3000 
    170 H170        3.4346  -13.5078  -40.2296 H         1 UNK         0.0600 
    171 H171        5.4731  -11.8875  -41.8480 H         1 UNK         0.0600 
    172 H172        4.3216  -11.2250  -40.6903 H         1 UNK         0.0600 
    173 H173        5.6029  -12.2955  -40.1429 H         1 UNK         0.0600 
    174 H174        3.1967  -12.2035  -42.7794 H         1 UNK         0.3000 
    175 H175        1.1160  -13.8321  -44.4239 H         1 UNK         0.0600 
    176 H176       -1.1976  -12.9920  -43.9904 H         1 UNK         0.0600 
    177 H177       -0.7978  -12.7576  -42.2888 H         1 UNK         0.0600 
    178 H178       -0.8058  -14.3714  -42.9785 H         1 UNK         0.0600 
    179 H179        1.5867  -11.7841  -44.9807 H         1 UNK         0.3000 
    180 H180        0.8368   -8.7252  -44.1764 H         1 UNK         0.0600 
    181 H181        3.1207   -7.8049  -43.6917 H         1 UNK         0.0600 
    182 H182        3.6034   -9.3565  -43.0077 H         1 UNK         0.0600 
    183 H183        2.3432   -8.4020  -42.2358 H         1 UNK         0.0600 
    184 H184        3.1742  -10.1780  -45.3307 H         1 UNK         0.3000 
    185 H185        1.6892  -10.4420  -48.4960 H         1 UNK         0.0600 
    186 H186        2.5233   -8.0969  -48.7309 H         1 UNK         0.0600 
    187 H187        3.9718   -8.5070  -47.8203 H         1 UNK         0.0600 
    188 H188        3.6725   -9.2472  -49.3937 H         1 UNK         0.0600 
    189 H189        4.3559  -10.9333  -47.5838 H         1 UNK         0.3000 
    190 H190       -1.6864  -20.6413  -47.0635 H         1 UNK         0.3000 
    191 H191       -2.9656  -21.4596  -49.4286 H         1 UNK         0.0600 
    192 H192       -5.0269  -20.5271  -48.2903 H         1 UNK         0.0600 
    193 H193       -4.1275  -20.4158  -46.7908 H         1 UNK         0.0600 
    194 H194       -3.6407  -19.4473  -48.1752 H         1 UNK         0.0600 
    195 H195       -3.2026  -22.8358  -46.1197 H         1 UNK         0.3000 
    196 H196       -5.1178  -24.8480  -46.6982 H         1 UNK         0.0600 
    197 H197       -4.3281  -25.8810  -44.5921 H         1 UNK         0.0600 
    198 H198       -4.5369  -24.1475  -44.3934 H         1 UNK         0.0600 
    199 H199       -2.9220  -24.8279  -44.5667 H         1 UNK         0.0600 
    200 H200       -1.5270  -24.9553  -46.7164 H         1 UNK         0.3000 
    201 H201       -1.2055  -27.6269  -47.5570 H         1 UNK         0.0600 
    202 H202        0.6137  -26.2709  -46.5599 H         1 UNK         0.0600 
    203 H203        0.6355  -25.2122  -47.9682 H         1 UNK         0.0600 
    204 H204        1.1123  -26.8978  -48.1238 H         1 UNK         0.0600 
    205 H205       -1.7312  -24.6814  -49.4745 H         1 UNK         0.3000 
    206 H206       -1.4741  -25.9280  -52.0718 H         1 UNK         0.0600 
    207 H207       -1.0588  -23.5010  -51.6757 H         1 UNK         0.0600 
    208 H208       -2.3179  -23.7429  -52.8755 H         1 UNK         0.0600 
    209 H209       -2.7497  -23.2731  -51.2363 H         1 UNK         0.0600 
    210 H210       -3.0368  -27.5853  -50.6202 H         1 UNK         0.3000 
    211 H211       -4.9057  -28.7699  -50.4525 H         1 UNK         0.0600 
    212 H212       -5.1884  -27.9284  -53.3789 H         1 UNK         0.0600 
    213 H213       -6.0089  -29.2990  -52.6400 H         1 UNK         0.0600 
    214 H214       -4.2587  -29.2883  -52.7653 H         1 UNK         0.0600 
    215 H215       -5.3081  -26.4501  -49.2006 H         1 UNK         0.3000 
    216 H216       -6.7597  -25.0370  -48.2996 H         1 UNK         0.0600 
    217 H217       -9.1221  -25.7164  -48.0677 H         1 UNK         0.0600 
    218 H218       -8.0664  -27.0999  -47.8296 H         1 UNK         0.0600 
    219 H219       -8.9463  -26.9101  -49.3453 H         1 UNK         0.0600 
    220 H220       -5.7278  -23.8529  -50.2212 H         1 UNK         0.3000 
    221 H221       -5.7509  -22.2029  -51.6829 H         1 UNK         0.0600 
    222 H222       -8.6078  -21.6716  -50.7010 H         1 UNK         0.0600 
    223 H223       -7.1351  -21.1257  -49.9008 H         1 UNK         0.0600 
    224 H224       -7.5508  -20.5159  -51.4921 H         1 UNK         0.0600 
    225 H225       -6.0157  -24.5278  -52.9859 H         1 UNK         0.3000 
    226 H226       -8.2345  -24.5956  -54.8514 H         1 UNK         0.0600 
    227 H227       -7.0922  -26.6569  -54.1637 H         1 UNK         0.0600 
    228 H228       -6.8937  -26.4252  -55.8939 H         1 UNK         0.0600 
    229 H229       -5.5562  -26.0708  -54.8065 H         1 UNK         0.0600 
    230 H230       -8.3902  -22.7481  -56.0251 H         1 UNK         0.3000 
    231 H231       -8.1088  -21.2115  -57.5890 H         1 UNK         0.0600 
    232 H232       -6.0065  -23.0677  -58.8241 H         1 UNK         0.0600 
    233 H233       -6.8669  -21.7720  -59.6436 H         1 UNK         0.0600 
    234 H234       -7.7463  -23.1846  -59.0845 H         1 UNK         0.0600 
    235 H235       -6.8350  -20.6727  -55.2059 H         1 UNK         0.3000 
    236 H236       -4.8269  -18.7137  -55.9209 H         1 UNK         0.0600 
    237 H237       -3.4172  -20.8006  -55.6698 H         1 UNK         0.0600 
    238 H238       -3.0955  -19.6768  -54.3648 H         1 UNK         0.0600 
    239 H239       -4.1151  -21.0852  -54.0797 H         1 UNK         0.0600 
    240 H240       -4.0594  -17.7344  -53.6594 H         1 UNK         0.3000 
    241 H241       -6.3795  -16.9714  -52.1311 H         1 UNK         0.0600 
    242 H242       -4.2168  -19.7183  -51.7701 H         1 UNK         0.3800 
    243 H243       -4.7741  -20.1241  -50.1638 H         1 UNK         0.3800 
    244 H244       -4.7142  -15.6862  -50.7248 H         1 UNK         0.0800 
    245 H245       -4.7185  -15.2942  -52.4141 H         1 UNK         0.0800 
    246 H246       -2.4020  -15.8301  -49.5092 H         1 UNK         0.0800 
    247 H247       -2.8541  -17.5093  -49.6937 H         1 UNK         0.0800 
@<TRIPOS>BOND
     1    1    2 1    
     2    1  127 1    
     3    1  128 1    
     4    1  129 1    
     5    2    3 2    
     6    2    4 am   BACKBONE|DICT|INTERRES
     7    4    5 1    
     8    4  130 1    
     9    5    6 1    
    10    5   65 1    
    11    5  131 1    
    12    6    7 1    
    13    6  132 1    
    14    6  133 1    
    15    7    8 1    
    16    8    9 1    
    17    8  134 1    
    18    8  135 1    
    19    9   10 ar   
    20    9   14 ar   
    21   10   11 ar   
    22   10  136 1    
    23   11   12 ar   
    24   11  126 1    
    25   12   13 ar   
    26   12  137 1    
    27   13   14 ar   
    28   13   15 1    
    29   14  138 1    
    30   15   16 1    
    31   15  139 1    
    32   15  140 1    
    33   16   17 1    
    34   17   18 1    
    35   17  141 1    
    36   17  142 1    
    37   18   19 1    
    38   18   67 1    
    39   18  143 1    
    40   19   20 am   BACKBONE|DICT|INTERRES
    41   19  144 1    
    42   20   21 2    
    43   20   22 1    
    44   22   23 1    
    45   22   24 1    
    46   22  145 1    
    47   23  146 1    
    48   23  147 1    
    49   23  148 1    
    50   24   25 am   BACKBONE|DICT|INTERRES
    51   24  149 1    
    52   25   26 2    
    53   25   27 1    
    54   27   28 1    
    55   27   29 1    
    56   27  150 1    
    57   28  151 1    
    58   28  152 1    
    59   28  153 1    
    60   29   30 am   BACKBONE|DICT|INTERRES
    61   29  154 1    
    62   30   31 2    
    63   30   32 1    
    64   32   33 1    
    65   32   34 1    
    66   32  155 1    
    67   33  156 1    
    68   33  157 1    
    69   33  158 1    
    70   34   35 am   BACKBONE|DICT|INTERRES
    71   34  159 1    
    72   35   36 2    
    73   35   37 1    
    74   37   38 1    
    75   37   39 1    
    76   37  160 1    
    77   38  161 1    
    78   38  162 1    
    79   38  163 1    
    80   39   40 am   BACKBONE|DICT|INTERRES
    81   39  164 1    
    82   40   41 2    
    83   40   42 1    
    84   42   43 1    
    85   42   44 1    
    86   42  165 1    
    87   43  166 1    
    88   43  167 1    
    89   43  168 1    
    90   44   45 am   BACKBONE|DICT|INTERRES
    91   44  169 1    
    92   45   46 2    
    93   45   47 1    
    94   47   48 1    
    95   47   49 1    
    96   47  170 1    
    97   48  171 1    
    98   48  172 1    
    99   48  173 1    
   100   49   50 am   BACKBONE|DICT|INTERRES
   101   49  174 1    
   102   50   51 2    
   103   50   52 1    
   104   52   53 1    
   105   52   54 1    
   106   52  175 1    
   107   53  176 1    
   108   53  177 1    
   109   53  178 1    
   110   54   55 am   BACKBONE|DICT|INTERRES
   111   54  179 1    
   112   55   56 2    
   113   55   57 1    
   114   57   58 1    
   115   57   59 1    
   116   57  180 1    
   117   58  181 1    
   118   58  182 1    
   119   58  183 1    
   120   59   60 am   BACKBONE|DICT|INTERRES
   121   59  184 1    
   122   60   61 2    
   123   60   62 1    
   124   62   63 1    
   125   62   64 1    
   126   62  185 1    
   127   63  186 1    
   128   63  187 1    
   129   63  188 1    
   130   64   65 am   BACKBONE|DICT|INTERRES
   131   64  189 1    
   132   65   66 2    
   133   67   68 2    
   134   67   69 am   BACKBONE|DICT|INTERRES
   135   69   70 1    
   136   69  190 1    
   137   70   71 1    
   138   70   72 1    
   139   70  191 1    
   140   71  192 1    
   141   71  193 1    
   142   71  194 1    
   143   72   73 2    
   144   72   74 am   BACKBONE|DICT|INTERRES
   145   74   75 1    
   146   74  195 1    
   147   75   76 1    
   148   75   77 1    
   149   75  196 1    
   150   76  197 1    
   151   76  198 1    
   152   76  199 1    
   153   77   78 2    
   154   77   79 am   BACKBONE|DICT|INTERRES
   155   79   80 1    
   156   79  200 1    
   157   80   81 1    
   158   80   82 1    
   159   80  201 1    
   160   81  202 1    
   161   81  203 1    
   162   81  204 1    
   163   82   83 2    
   164   82   84 am   BACKBONE|DICT|INTERRES
   165   84   85 1    
   166   84  205 1    
   167   85   86 1    
   168   85   87 1    
   169   85  206 1    
   170   86  207 1    
   171   86  208 1    
   172   86  209 1    
   173   87   88 2    
   174   87   89 am   BACKBONE|DICT|INTERRES
   175   89   90 1    
   176   89  210 1    
   177   90   91 1    
   178   90   92 1    
   179   90  211 1    
   180   91  212 1    
   181   91  213 1    
   182   91  214 1    
   183   92   93 2    
   184   92   94 am   BACKBONE|DICT|INTERRES
   185   94   95 1    
   186   94  215 1    
   187   95   96 1    
   188   95   97 1    
   189   95  216 1    
   190   96  217 1    
   191   96  218 1    
   192   96  219 1    
   193   97   98 2    
   194   97   99 am   BACKBONE|DICT|INTERRES
   195   99  100 1    
   196   99  220 1    
   197  100  101 1    
   198  100  102 1    
   199  100  221 1    
   200  101  222 1    
   201  101  223 1    
   202  101  224 1    
   203  102  103 2    
   204  102  104 am   BACKBONE|DICT|INTERRES
   205  104  105 1    
   206  104  225 1    
   207  105  106 1    
   208  105  107 1    
   209  105  226 1    
   210  106  227 1    
   211  106  228 1    
   212  106  229 1    
   213  107  108 2    
   214  107  109 am   BACKBONE|DICT|INTERRES
   215  109  110 1    
   216  109  230 1    
   217  110  111 1    
   218  110  112 1    
   219  110  231 1    
   220  111  232 1    
   221  111  233 1    
   222  111  234 1    
   223  112  113 2    
   224  112  114 am   BACKBONE|DICT|INTERRES
   225  114  115 1    
   226  114  235 1    
   227  115  116 1    
   228  115  117 1    
   229  115  236 1    
   230  116  237 1    
   231  116  238 1    
   232  116  239 1    
   233  117  118 2    
   234  117  119 am   BACKBONE|DICT|INTERRES
   235  119  120 1    
   236  119  240 1    
   237  120  121 1    
   238  120  124 1    
   239  120  241 1    
   240  121  122 am   BACKBONE|DICT|INTERRES
   241  121  123 2    
   242  122  242 1    
   243  122  243 1    
   244  124  125 1    
   245  124  244 1    
   246  124  245 1    
   247  125  126 1    
   248  126  246 1    
   249  126  247 1    
@<TRIPOS>SUBSTRUCTURE
     1 UNK         1 GROUP             0       ****    0 ROOT    
