@<TRIPOS>MOLECULE
3R540
247   249    1
SMALL
USER_CHARGES


@<TRIPOS>ATOM
      1 CA          1.9498  -14.4027  -48.4036 C.3       0 UNK        -0.1800 
      2 C           0.7944  -15.3926  -48.3839 C.2       0 UNK         0.5000 
      3 O           0.9182  -16.4578  -47.7835 O.2       0 UNK        -0.5000 
      4 N          -0.3191  -15.0445  -49.0414 N.am      1 UNK        -0.5000 
      5 CA         -1.5402  -15.8608  -49.1135 C.3       1 UNK         0.1400 
      6 C6         -2.1908  -15.8152  -50.5200 C.3       23 UNK        -0.0398 
      7 S7         -1.0819  -16.4586  -51.8163 S.3       23 UNK        -0.2404 
      8 C8         -1.2761  -18.2497  -51.5622 C.3       23 UNK        -0.0205 
      9 C9          0.0479  -18.9817  -51.7029 C.ar      23 UNK        -0.0193 
     10 C10         0.2267  -19.9146  -52.7249 C.ar      23 UNK        -0.1150 
     11 C11         1.4116  -20.6473  -52.8247 C.ar      23 UNK        -0.0193 
     12 C12         2.4458  -20.4044  -51.9168 C.ar      23 UNK        -0.1150 
     13 C13         2.2891  -19.4558  -50.9006 C.ar      23 UNK        -0.0193 
     14 C14         1.0826  -18.7587  -50.7892 C.ar      23 UNK        -0.1150 
     15 C15         3.4342  -19.1732  -49.9412 C.3       23 UNK        -0.0205 
     16 S16         3.6296  -20.4868  -48.6982 S.3       23 UNK        -0.2404 
     17 C17         2.3603  -20.0433  -47.4671 C.3       23 UNK        -0.0398 
     18 CA          1.4975  -21.2648  -47.0438 C.3       11 UNK         0.1400 
     19 N           1.4387  -21.4280  -45.5869 N.am      11 UNK        -0.5000 
     20 C           0.9104  -22.4847  -44.9526 C.2       10 UNK         0.5000 
     21 O           0.4637  -23.4751  -45.5309 O.2       10 UNK        -0.5000 
     22 CA          0.8196  -22.4033  -43.4169 C.3       10 UNK         0.1400 
     23 CB          2.1447  -22.8221  -42.7636 C.3       10 UNK        -0.1800 
     24 N           0.4317  -21.0725  -42.9462 N.am      10 UNK        -0.5000 
     25 C          -0.7567  -20.5021  -43.1935 C.2       9 UNK         0.5000 
     26 O          -1.6741  -21.0705  -43.7839 O.2       9 UNK        -0.5000 
     27 CA         -0.9330  -19.0347  -42.7608 C.3       9 UNK         0.1400 
     28 CB         -1.2646  -18.9425  -41.2642 C.3       9 UNK        -0.1800 
     29 N           0.2457  -18.2189  -43.0540 N.am      9 UNK        -0.5000 
     30 C           0.7416  -18.0019  -44.2809 C.2       8 UNK         0.5000 
     31 O           0.2214  -18.4317  -45.3085 O.2       8 UNK        -0.5000 
     32 CA          2.0853  -17.2548  -44.3624 C.3       8 UNK         0.1400 
     33 CB          1.8955  -15.7339  -44.2828 C.3       8 UNK        -0.1800 
     34 N           3.0071  -17.6845  -43.3106 N.am      8 UNK        -0.5000 
     35 C           3.5996  -18.8857  -43.2689 C.2       7 UNK         0.5000 
     36 O           3.4479  -19.7522  -44.1285 O.2       7 UNK        -0.5000 
     37 CA          4.4766  -19.1805  -42.0388 C.3       7 UNK         0.1400 
     38 CB          5.8777  -18.5757  -42.2129 C.3       7 UNK        -0.1800 
     39 N           3.8822  -18.6824  -40.7978 N.am      7 UNK        -0.5000 
     40 C           2.7590  -19.1689  -40.2515 C.2       6 UNK         0.5000 
     41 O           2.1272  -20.1160  -40.7187 O.2       6 UNK        -0.5000 
     42 CA          2.2268  -18.4402  -39.0025 C.3       6 UNK         0.1400 
     43 CB          2.8904  -18.9916  -37.7319 C.3       6 UNK        -0.1800 
     44 N           2.4037  -16.9843  -39.0532 N.am      6 UNK        -0.5000 
     45 C           1.8638  -16.1891  -39.9852 C.2       5 UNK         0.5000 
     46 O           1.1839  -16.6057  -40.9278 O.2       5 UNK        -0.5000 
     47 CA          2.1570  -14.6877  -39.8745 C.3       5 UNK         0.1400 
     48 CB          3.5828  -14.3656  -40.3546 C.3       5 UNK        -0.1800 
     49 N           1.1905  -13.9949  -40.7136 N.am      5 UNK        -0.5000 
     50 C           0.7314  -12.7508  -40.5580 C.2       4 UNK         0.5000 
     51 O           1.1305  -11.9768  -39.6871 O.2       4 UNK        -0.5000 
     52 CA         -0.3637  -12.2950  -41.5436 C.3       4 UNK         0.1400 
     53 CB          0.2376  -11.4007  -42.6388 C.3       4 UNK        -0.1800 
     54 N          -1.0600  -13.4124  -42.1871 N.am      4 UNK        -0.5000 
     55 C          -1.9757  -14.1995  -41.6097 C.2       3 UNK         0.5000 
     56 O          -2.3637  -14.0455  -40.4506 O.2       3 UNK        -0.5000 
     57 CA         -2.5543  -15.3349  -42.4866 C.3       3 UNK         0.1400 
     58 CB         -3.6727  -16.1235  -41.7815 C.3       3 UNK        -0.1800 
     59 N          -3.0627  -14.8555  -43.7762 N.am      3 UNK        -0.5000 
     60 C          -2.3089  -14.5149  -44.8274 C.2       2 UNK         0.5000 
     61 O          -1.0768  -14.5352  -44.8124 O.2       2 UNK        -0.5000 
     62 CA         -3.0417  -14.0105  -46.0778 C.3       2 UNK         0.1400 
     63 CB         -3.1449  -12.4777  -46.0486 C.3       2 UNK        -0.1800 
     64 N          -2.2843  -14.4109  -47.2601 N.am      2 UNK        -0.5000 
     65 C          -2.5631  -15.4743  -48.0236 C.2       1 UNK         0.5000 
     66 O          -3.5836  -16.1505  -47.8935 O.2       1 UNK        -0.5000 
     67 C           0.0858  -21.2151  -47.6637 C.2       11 UNK         0.5000 
     68 O          -0.1846  -21.9331  -48.6245 O.2       11 UNK        -0.5000 
     69 N          -0.8056  -20.4174  -47.0589 N.am      12 UNK        -0.5000 
     70 CA         -2.2176  -20.3120  -47.4224 C.3       12 UNK         0.1400 
     71 CB         -2.8725  -19.1915  -46.6027 C.3       12 UNK        -0.1800 
     72 C          -2.9809  -21.6390  -47.2498 C.2       12 UNK         0.5000 
     73 O          -3.7677  -21.9985  -48.1230 O.2       12 UNK        -0.5000 
     74 N          -2.7121  -22.3642  -46.1545 N.am      13 UNK        -0.5000 
     75 CA         -3.2708  -23.6908  -45.8871 C.3       13 UNK         0.1400 
     76 CB         -2.9134  -24.1325  -44.4601 C.3       13 UNK        -0.1800 
     77 C          -2.8223  -24.7405  -46.9206 C.2       13 UNK         0.5000 
     78 O          -3.6583  -25.4982  -47.4142 O.2       13 UNK        -0.5000 
     79 N          -1.5271  -24.7351  -47.2694 N.am      14 UNK        -0.5000 
     80 CA         -0.9422  -25.5782  -48.3165 C.3       14 UNK         0.1400 
     81 CB          0.5876  -25.4400  -48.2901 C.3       14 UNK        -0.1800 
     82 C          -1.4954  -25.2646  -49.7210 C.2       14 UNK         0.5000 
     83 O          -1.6673  -26.1795  -50.5268 O.2       14 UNK        -0.5000 
     84 N          -1.8025  -23.9855  -49.9693 N.am      15 UNK        -0.5000 
     85 CA         -2.4246  -23.4795  -51.1922 C.3       15 UNK         0.1400 
     86 CB         -2.1259  -21.9789  -51.3040 C.3       15 UNK        -0.1800 
     87 C          -3.9425  -23.7393  -51.2817 C.2       15 UNK         0.5000 
     88 O          -4.5412  -23.3918  -52.3013 O.2       15 UNK        -0.5000 
     89 N          -4.5371  -24.3282  -50.2321 N.am      16 UNK        -0.5000 
     90 CA         -5.9421  -24.7112  -50.0764 C.3       16 UNK         0.1400 
     91 CB         -6.3083  -25.8579  -51.0430 C.3       16 UNK        -0.1800 
     92 C          -6.8985  -23.5075  -50.1728 C.2       16 UNK         0.5000 
     93 O          -7.2323  -22.9142  -49.1466 O.2       16 UNK        -0.5000 
     94 N          -7.3210  -23.1697  -51.3984 N.am      17 UNK        -0.5000 
     95 CA         -8.1391  -21.9975  -51.7085 C.3       17 UNK         0.1400 
     96 CB         -8.6924  -22.1345  -53.1354 C.3       17 UNK        -0.1800 
     97 C          -7.3630  -20.6753  -51.5586 C.2       17 UNK         0.5000 
     98 O          -7.9737  -19.6575  -51.2310 O.2       17 UNK        -0.5000 
     99 N          -6.0413  -20.7211  -51.7983 N.am      18 UNK        -0.5000 
    100 CA        -5.0801  -19.6190  -51.6666 C.3       18 UNK         0.1400 
    101 CB        -4.9104  -19.2299  -50.1838 C.3       18 UNK        -0.1800 
    102 C         -5.3960  -18.4024  -52.5613 C.2       18 UNK         0.5000 
    103 O         -5.1080  -17.2652  -52.1838 O.2       18 UNK        -0.5000 
    104 N         -5.9694  -18.6564  -53.7451 N.am      19 UNK        -0.5000 
    105 CA        -6.4169  -17.6551  -54.7174 C.3       19 UNK         0.1400 
    106 CB        -7.4877  -18.2981  -55.6175 C.3       19 UNK        -0.1800 
    107 C         -5.2445  -17.0497  -55.5203 C.2       19 UNK         0.5000 
    108 O         -5.2414  -17.1045  -56.7510 O.2       19 UNK        -0.5000 
    109 N         -4.2488  -16.5211  -54.7940 N.am      20 UNK        -0.5000 
    110 CA        -2.9724  -15.9656  -55.2648 C.3       20 UNK         0.1400 
    111 CB        -3.2059  -14.7087  -56.1283 C.3       20 UNK        -0.1800 
    112 C         -2.0559  -16.9979  -55.9617 C.2       20 UNK         0.5000 
    113 O         -1.0997  -16.6093  -56.6347 O.2       20 UNK        -0.5000 
    114 N         -2.3527  -18.2902  -55.7864 N.am      21 UNK        -0.5000 
    115 CA        -1.6745  -19.4283  -56.3894 C.3       21 UNK         0.1400 
    116 CB        -2.0468  -19.5375  -57.8808 C.3       21 UNK        -0.1800 
    117 C         -2.0824  -20.6990  -55.6311 C.2       21 UNK         0.5000 
    118 O         -3.0776  -20.6898  -54.9005 O.2       21 UNK        -0.5000 
    119 N         -1.2929  -21.7598  -55.8236 N.am      22 UNK        -0.5000 
    120 CA        -1.4960  -23.0977  -55.2422 C.3       22 UNK         0.1400 
    121 C         -2.4292  -24.0144  -56.0901 C.2       22 UNK         0.5000 
    122 N         -2.9199  -23.5881  -57.2479 N.am      22 UNK        -0.7600 
    123 O         -2.7245  -25.1350  -55.6848 O.2       22 UNK        -0.5000 
    124 C124       -0.1302  -23.7839  -54.9503 C.3       23 UNK        -0.0398 
    125 S125        0.6261  -23.2117  -53.3922 S.3       23 UNK        -0.2404 
    126 C126        1.5462  -21.7222  -53.8914 C.3       23 UNK        -0.0205 
    127 H127        2.8313  -14.8661  -48.8467 H         1 UNK         0.0600 
    128 H128        2.1980  -14.0980  -47.3869 H         1 UNK         0.0600 
    129 H129        1.7095  -13.5084  -48.9789 H         1 UNK         0.0600 
    130 H130       -0.3475  -14.1679  -49.5427 H         1 UNK         0.3000 
    131 H131       -1.2824  -16.9010  -48.9057 H         1 UNK         0.0600 
    132 H132       -2.4646  -14.7919  -50.7817 H         1 UNK         0.0800 
    133 H133       -3.1180  -16.3896  -50.5458 H         1 UNK         0.0800 
    134 H134       -2.0098  -18.6250  -52.2769 H         1 UNK         0.0800 
    135 H135       -1.6775  -18.4635  -50.5719 H         1 UNK         0.0800 
    136 H136       -0.5777  -20.1087  -53.4154 H         1 UNK         0.1150 
    137 H137        3.3692  -20.9616  -51.9904 H         1 UNK         0.1150 
    138 H138        0.9481  -18.0354  -49.9976 H         1 UNK         0.1150 
    139 H139        4.3611  -19.0930  -50.5109 H         1 UNK         0.0800 
    140 H140        3.3012  -18.2099  -49.4455 H         1 UNK         0.0800 
    141 H141        1.7513  -19.2134  -47.8320 H         1 UNK         0.0800 
    142 H142        2.8992  -19.6334  -46.6147 H         1 UNK         0.0800 
    143 H143        1.9670  -22.1767  -47.4195 H         1 UNK         0.0600 
    144 H144        1.8298  -20.6766  -45.0300 H         1 UNK         0.3000 
    145 H145        0.0499  -23.1069  -43.0936 H         1 UNK         0.0600 
    146 H146        2.0601  -22.8367  -41.6768 H         1 UNK         0.0600 
    147 H147        2.9577  -22.1453  -43.0255 H         1 UNK         0.0600 
    148 H148        2.4363  -23.8239  -43.0811 H         1 UNK         0.0600 
    149 H149        1.1163  -20.5641  -42.3957 H         1 UNK         0.3000 
    150 H150       -1.7699  -18.6162  -43.3236 H         1 UNK         0.0600 
    151 H151       -2.2102  -19.4397  -41.0450 H         1 UNK         0.0600 
    152 H152       -1.3553  -17.9069  -40.9387 H         1 UNK         0.0600 
    153 H153       -0.4972  -19.4142  -40.6510 H         1 UNK         0.0600 
    154 H154        0.7153  -17.7940  -42.2581 H         1 UNK         0.3000 
    155 H155        2.5393  -17.4845  -45.3288 H         1 UNK         0.0600 
    156 H156        1.3449  -15.3761  -45.1524 H         1 UNK         0.0600 
    157 H157        2.8525  -15.2123  -44.2735 H         1 UNK         0.0600 
    158 H158        1.3391  -15.4362  -43.3943 H         1 UNK         0.0600 
    159 H159        3.1392  -17.0521  -42.5363 H         1 UNK         0.3000 
    160 H160        4.5805  -20.2646  -41.9560 H         1 UNK         0.0600 
    161 H161        5.8441  -17.4872  -42.2747 H         1 UNK         0.0600 
    162 H162        6.3495  -18.9422  -43.1256 H         1 UNK         0.0600 
    163 H163        6.5290  -18.8450  -41.3812 H         1 UNK         0.0600 
    164 H164        4.3395  -17.9030  -40.3485 H         1 UNK         0.3000 
    165 H165        1.1553  -18.6403  -38.9392 H         1 UNK         0.0600 
    166 H166        2.4530  -18.5515  -36.8356 H         1 UNK         0.0600 
    167 H167        2.7575  -20.0719  -37.6595 H         1 UNK         0.0600 
    168 H168        3.9624  -18.7908  -37.7166 H         1 UNK         0.0600 
    169 H169        2.9565  -16.5720  -38.3153 H         1 UNK         0.3000 
    170 H170        2.0304  -14.3817  -38.8340 H         1 UNK         0.0600 
    171 H171        3.7363  -14.6697  -41.3909 H         1 UNK         0.0600 
    172 H172        3.7884  -13.2971  -40.2878 H         1 UNK         0.0600 
    173 H173        4.3296  -14.8763  -39.7458 H         1 UNK         0.0600 
    174 H174        0.7612  -14.5892  -41.4108 H         1 UNK         0.3000 
    175 H175       -1.0926  -11.7083  -40.9807 H         1 UNK         0.0600 
    176 H176        0.9668  -11.9418  -43.2433 H         1 UNK         0.0600 
    177 H177       -0.5360  -11.0212  -43.3067 H         1 UNK         0.0600 
    178 H178        0.7446  -10.5376  -42.2054 H         1 UNK         0.0600 
    179 H179       -0.8145  -13.6160  -43.1523 H         1 UNK         0.3000 
    180 H180       -1.7327  -16.0286  -42.6762 H         1 UNK         0.0600 
    181 H181       -4.5455  -15.4984  -41.5895 H         1 UNK         0.0600 
    182 H182       -3.3359  -16.5177  -40.8221 H         1 UNK         0.0600 
    183 H183       -3.9935  -16.9741  -42.3833 H         1 UNK         0.0600 
    184 H184       -4.0658  -14.7631  -43.8474 H         1 UNK         0.3000 
    185 H185       -4.0493  -14.4308  -46.1012 H         1 UNK         0.0600 
    186 H186       -2.1620  -12.0066  -46.0008 H         1 UNK         0.0600 
    187 H187       -3.6536  -12.1011  -46.9362 H         1 UNK         0.0600 
    188 H188       -3.7128  -12.1403  -45.1807 H         1 UNK         0.0600 
    189 H189       -1.3852  -13.9669  -47.3780 H         1 UNK         0.3000 
    190 H190       -0.4858  -19.8201  -46.2986 H         1 UNK         0.3000 
    191 H191       -2.2619  -20.0324  -48.4766 H         1 UNK         0.0600 
    192 H192       -2.3181  -18.2584  -46.6995 H         1 UNK         0.0600 
    193 H193       -2.9190  -19.4382  -45.5421 H         1 UNK         0.0600 
    194 H194       -3.8916  -19.0046  -46.9433 H         1 UNK         0.0600 
    195 H195       -2.1034  -21.9707  -45.4424 H         1 UNK         0.3000 
    196 H196       -4.3579  -23.6089  -45.9505 H         1 UNK         0.0600 
    197 H197       -3.2884  -23.4230  -43.7224 H         1 UNK         0.0600 
    198 H198       -1.8363  -24.2208  -44.3215 H         1 UNK         0.0600 
    199 H199       -3.3540  -25.1035  -44.2312 H         1 UNK         0.0600 
    200 H200       -0.8923  -24.1052  -46.7861 H         1 UNK         0.3000 
    201 H201       -1.1935  -26.6157  -48.0868 H         1 UNK         0.0600 
    202 H202        0.9928  -25.7284  -47.3200 H         1 UNK         0.0600 
    203 H203        0.9034  -24.4163  -48.4925 H         1 UNK         0.0600 
    204 H204        1.0509  -26.0810  -49.0411 H         1 UNK         0.0600 
    205 H205       -1.5528  -23.2888  -49.2745 H         1 UNK         0.3000 
    206 H206       -1.9624  -23.9848  -52.0416 H         1 UNK         0.0600 
    207 H207       -2.6486  -21.4040  -50.5404 H         1 UNK         0.0600 
    208 H208       -1.0599  -21.7877  -51.1901 H         1 UNK         0.0600 
    209 H209       -2.4222  -21.5926  -52.2789 H         1 UNK         0.0600 
    210 H210       -3.9601  -24.5108  -49.4207 H         1 UNK         0.3000 
    211 H211       -6.0376  -25.1005  -49.0616 H         1 UNK         0.0600 
    212 H212       -6.1516  -25.5914  -52.0884 H         1 UNK         0.0600 
    213 H213       -7.3544  -26.1450  -50.9292 H         1 UNK         0.0600 
    214 H214       -5.7067  -26.7433  -50.8374 H         1 UNK         0.0600 
    215 H215       -6.9478  -23.6851  -52.1835 H         1 UNK         0.3000 
    216 H216       -8.9814  -21.9714  -51.0140 H         1 UNK         0.0600 
    217 H217       -9.3223  -21.2820  -53.3935 H         1 UNK         0.0600 
    218 H218       -9.3034  -23.0315  -53.2368 H         1 UNK         0.0600 
    219 H219       -7.8923  -22.1872  -53.8749 H         1 UNK         0.0600 
    220 H220       -5.6438  -21.6168  -52.0636 H         1 UNK         0.3000 
    221 H221       -4.1266  -20.0064  -52.0223 H         1 UNK         0.0600 
    222 H222       -5.7971  -18.7296  -49.7934 H         1 UNK         0.0600 
    223 H223       -4.7295  -20.1077  -49.5674 H         1 UNK         0.0600 
    224 H224       -4.0673  -18.5545  -50.0426 H         1 UNK         0.0600 
    225 H225       -6.1295  -19.6219  -53.9930 H         1 UNK         0.3000 
    226 H226       -6.8908  -16.8334  -54.1764 H         1 UNK         0.0600 
    227 H227       -8.3258  -18.6706  -55.0279 H         1 UNK         0.0600 
    228 H228       -7.8894  -17.5743  -56.3278 H         1 UNK         0.0600 
    229 H229       -7.0832  -19.1335  -56.1905 H         1 UNK         0.0600 
    230 H230       -4.3640  -16.5588  -53.7839 H         1 UNK         0.3000 
    231 H231       -2.4374  -15.6486  -54.3696 H         1 UNK         0.0600 
    232 H232       -2.2650  -14.2008  -56.3428 H         1 UNK         0.0600 
    233 H233       -3.8490  -13.9926  -55.6169 H         1 UNK         0.0600 
    234 H234       -3.6684  -14.9533  -57.0848 H         1 UNK         0.0600 
    235 H235       -3.1353  -18.5452  -55.1979 H         1 UNK         0.3000 
    236 H236       -0.5960  -19.2934  -56.2840 H         1 UNK         0.0600 
    237 H237       -3.1232  -19.6532  -58.0158 H         1 UNK         0.0600 
    238 H238       -1.7364  -18.6521  -58.4354 H         1 UNK         0.0600 
    239 H239       -1.5606  -20.3933  -58.3499 H         1 UNK         0.0600 
    240 H240       -0.5156  -21.6770  -56.4622 H         1 UNK         0.3000 
    241 H241       -2.0226  -22.9813  -54.2937 H         1 UNK         0.0600 
    242 H242       -3.5259  -24.1929  -57.7802 H         1 UNK         0.3800 
    243 H243       -2.7010  -22.6689  -57.5942 H         1 UNK         0.3800 
    244 H244        0.5680  -23.6509  -55.7779 H         1 UNK         0.0800 
    245 H245       -0.2492  -24.8629  -54.8378 H         1 UNK         0.0800 
    246 H246        1.1802  -21.3352  -54.8415 H         1 UNK         0.0800 
    247 H247        2.5933  -21.9841  -54.0500 H         1 UNK         0.0800 
@<TRIPOS>BOND
     1    1    2 1    
     2    1  127 1    
     3    1  128 1    
     4    1  129 1    
     5    2    3 2    
     6    2    4 am   BACKBONE|DICT|INTERRES
     7    4    5 1    
     8    4  130 1    
     9    5    6 1    
    10    5   65 1    
    11    5  131 1    
    12    6    7 1    
    13    6  132 1    
    14    6  133 1    
    15    7    8 1    
    16    8    9 1    
    17    8  134 1    
    18    8  135 1    
    19    9   10 ar   
    20    9   14 ar   
    21   10   11 ar   
    22   10  136 1    
    23   11   12 ar   
    24   11  126 1    
    25   12   13 ar   
    26   12  137 1    
    27   13   14 ar   
    28   13   15 1    
    29   14  138 1    
    30   15   16 1    
    31   15  139 1    
    32   15  140 1    
    33   16   17 1    
    34   17   18 1    
    35   17  141 1    
    36   17  142 1    
    37   18   19 1    
    38   18   67 1    
    39   18  143 1    
    40   19   20 am   BACKBONE|DICT|INTERRES
    41   19  144 1    
    42   20   21 2    
    43   20   22 1    
    44   22   23 1    
    45   22   24 1    
    46   22  145 1    
    47   23  146 1    
    48   23  147 1    
    49   23  148 1    
    50   24   25 am   BACKBONE|DICT|INTERRES
    51   24  149 1    
    52   25   26 2    
    53   25   27 1    
    54   27   28 1    
    55   27   29 1    
    56   27  150 1    
    57   28  151 1    
    58   28  152 1    
    59   28  153 1    
    60   29   30 am   BACKBONE|DICT|INTERRES
    61   29  154 1    
    62   30   31 2    
    63   30   32 1    
    64   32   33 1    
    65   32   34 1    
    66   32  155 1    
    67   33  156 1    
    68   33  157 1    
    69   33  158 1    
    70   34   35 am   BACKBONE|DICT|INTERRES
    71   34  159 1    
    72   35   36 2    
    73   35   37 1    
    74   37   38 1    
    75   37   39 1    
    76   37  160 1    
    77   38  161 1    
    78   38  162 1    
    79   38  163 1    
    80   39   40 am   BACKBONE|DICT|INTERRES
    81   39  164 1    
    82   40   41 2    
    83   40   42 1    
    84   42   43 1    
    85   42   44 1    
    86   42  165 1    
    87   43  166 1    
    88   43  167 1    
    89   43  168 1    
    90   44   45 am   BACKBONE|DICT|INTERRES
    91   44  169 1    
    92   45   46 2    
    93   45   47 1    
    94   47   48 1    
    95   47   49 1    
    96   47  170 1    
    97   48  171 1    
    98   48  172 1    
    99   48  173 1    
   100   49   50 am   BACKBONE|DICT|INTERRES
   101   49  174 1    
   102   50   51 2    
   103   50   52 1    
   104   52   53 1    
   105   52   54 1    
   106   52  175 1    
   107   53  176 1    
   108   53  177 1    
   109   53  178 1    
   110   54   55 am   BACKBONE|DICT|INTERRES
   111   54  179 1    
   112   55   56 2    
   113   55   57 1    
   114   57   58 1    
   115   57   59 1    
   116   57  180 1    
   117   58  181 1    
   118   58  182 1    
   119   58  183 1    
   120   59   60 am   BACKBONE|DICT|INTERRES
   121   59  184 1    
   122   60   61 2    
   123   60   62 1    
   124   62   63 1    
   125   62   64 1    
   126   62  185 1    
   127   63  186 1    
   128   63  187 1    
   129   63  188 1    
   130   64   65 am   BACKBONE|DICT|INTERRES
   131   64  189 1    
   132   65   66 2    
   133   67   68 2    
   134   67   69 am   BACKBONE|DICT|INTERRES
   135   69   70 1    
   136   69  190 1    
   137   70   71 1    
   138   70   72 1    
   139   70  191 1    
   140   71  192 1    
   141   71  193 1    
   142   71  194 1    
   143   72   73 2    
   144   72   74 am   BACKBONE|DICT|INTERRES
   145   74   75 1    
   146   74  195 1    
   147   75   76 1    
   148   75   77 1    
   149   75  196 1    
   150   76  197 1    
   151   76  198 1    
   152   76  199 1    
   153   77   78 2    
   154   77   79 am   BACKBONE|DICT|INTERRES
   155   79   80 1    
   156   79  200 1    
   157   80   81 1    
   158   80   82 1    
   159   80  201 1    
   160   81  202 1    
   161   81  203 1    
   162   81  204 1    
   163   82   83 2    
   164   82   84 am   BACKBONE|DICT|INTERRES
   165   84   85 1    
   166   84  205 1    
   167   85   86 1    
   168   85   87 1    
   169   85  206 1    
   170   86  207 1    
   171   86  208 1    
   172   86  209 1    
   173   87   88 2    
   174   87   89 am   BACKBONE|DICT|INTERRES
   175   89   90 1    
   176   89  210 1    
   177   90   91 1    
   178   90   92 1    
   179   90  211 1    
   180   91  212 1    
   181   91  213 1    
   182   91  214 1    
   183   92   93 2    
   184   92   94 am   BACKBONE|DICT|INTERRES
   185   94   95 1    
   186   94  215 1    
   187   95   96 1    
   188   95   97 1    
   189   95  216 1    
   190   96  217 1    
   191   96  218 1    
   192   96  219 1    
   193   97   98 2    
   194   97   99 am   BACKBONE|DICT|INTERRES
   195   99  100 1    
   196   99  220 1    
   197  100  101 1    
   198  100  102 1    
   199  100  221 1    
   200  101  222 1    
   201  101  223 1    
   202  101  224 1    
   203  102  103 2    
   204  102  104 am   BACKBONE|DICT|INTERRES
   205  104  105 1    
   206  104  225 1    
   207  105  106 1    
   208  105  107 1    
   209  105  226 1    
   210  106  227 1    
   211  106  228 1    
   212  106  229 1    
   213  107  108 2    
   214  107  109 am   BACKBONE|DICT|INTERRES
   215  109  110 1    
   216  109  230 1    
   217  110  111 1    
   218  110  112 1    
   219  110  231 1    
   220  111  232 1    
   221  111  233 1    
   222  111  234 1    
   223  112  113 2    
   224  112  114 am   BACKBONE|DICT|INTERRES
   225  114  115 1    
   226  114  235 1    
   227  115  116 1    
   228  115  117 1    
   229  115  236 1    
   230  116  237 1    
   231  116  238 1    
   232  116  239 1    
   233  117  118 2    
   234  117  119 am   BACKBONE|DICT|INTERRES
   235  119  120 1    
   236  119  240 1    
   237  120  121 1    
   238  120  124 1    
   239  120  241 1    
   240  121  122 am   BACKBONE|DICT|INTERRES
   241  121  123 2    
   242  122  242 1    
   243  122  243 1    
   244  124  125 1    
   245  124  244 1    
   246  124  245 1    
   247  125  126 1    
   248  126  246 1    
   249  126  247 1    
@<TRIPOS>SUBSTRUCTURE
     1 UNK         1 GROUP             0       ****    0 ROOT    
