@<TRIPOS>MOLECULE
3R540
247   249    1
SMALL
USER_CHARGES


@<TRIPOS>ATOM
      1 CA          0.1295  -11.4890  -48.9835 C.3       0 UNK        -0.1800 
      2 C           1.4157  -11.9526  -48.3170 C.2       0 UNK         0.5000 
      3 O           1.3941  -12.3236  -47.1441 O.2       0 UNK        -0.5000 
      4 N           2.5305  -11.9430  -49.0599 N.am      1 UNK        -0.5000 
      5 CA          3.8787  -12.3442  -48.6346 C.3       1 UNK         0.1400 
      6 C6          4.0068  -13.8502  -48.2617 C.3       23 UNK        -0.0398 
      7 S7          3.3678  -15.0013  -49.5277 S.3       23 UNK        -0.2404 
      8 C8          1.9405  -15.6663  -48.6170 C.3       23 UNK        -0.0205 
      9 C9          1.2310  -16.7814  -49.3625 C.ar      23 UNK        -0.0193 
     10 C10         0.0764  -16.5166  -50.1027 C.ar      23 UNK        -0.1150 
     11 C11        -0.6197  -17.5566  -50.7254 C.ar      23 UNK        -0.0193 
     12 C12        -0.1622  -18.8704  -50.5874 C.ar      23 UNK        -0.1150 
     13 C13         0.9908  -19.1493  -49.8459 C.ar      23 UNK        -0.0193 
     14 C14         1.6969  -18.0933  -49.2589 C.ar      23 UNK        -0.1150 
     15 C15         1.4505  -20.5960  -49.6851 C.3       23 UNK        -0.0205 
     16 S16         2.0756  -21.0294  -48.0190 S.3       23 UNK        -0.2404 
     17 C17         0.8202  -20.3421  -46.8815 C.3       23 UNK        -0.0398 
     18 CA         -0.3366  -21.3161  -46.5656 C.3       11 UNK         0.1400 
     19 N          -0.9566  -21.0075  -45.2767 N.am      11 UNK        -0.5000 
     20 C          -1.9078  -21.7374  -44.6797 C.2       10 UNK         0.5000 
     21 O          -2.3471  -22.7942  -45.1307 O.2       10 UNK        -0.5000 
     22 CA         -2.5051  -21.1545  -43.3892 C.3       10 UNK         0.1400 
     23 CB         -1.6078  -21.4594  -42.1804 C.3       10 UNK        -0.1800 
     24 N          -2.7126  -19.7104  -43.4993 N.am      10 UNK        -0.5000 
     25 C          -3.6551  -19.1423  -44.2646 C.2       9 UNK         0.5000 
     26 O          -4.4760  -19.7797  -44.9246 O.2       9 UNK        -0.5000 
     27 CA         -3.6550  -17.6038  -44.3296 C.3       9 UNK         0.1400 
     28 CB         -4.3782  -17.0079  -43.1126 C.3       9 UNK        -0.1800 
     29 N          -2.3075  -17.0371  -44.4203 N.am      9 UNK        -0.5000 
     30 C          -1.4925  -17.2003  -45.4714 C.2       8 UNK         0.5000 
     31 O          -1.7877  -17.8523  -46.4705 O.2       8 UNK        -0.5000 
     32 CA         -0.0959  -16.5646  -45.3783 C.3       8 UNK         0.1400 
     33 CB         -0.1543  -15.0851  -45.7822 C.3       8 UNK        -0.1800 
     34 N           0.5412  -16.6780  -44.0648 N.am      8 UNK        -0.5000 
     35 C           0.7607  -17.8189  -43.3927 C.2       7 UNK         0.5000 
     36 O           0.3164  -18.9149  -43.7393 O.2       7 UNK        -0.5000 
     37 CA          1.6554  -17.6988  -42.1412 C.3       7 UNK         0.1400 
     38 CB          2.0947  -19.0632  -41.5721 C.3       7 UNK        -0.1800 
     39 N           2.8106  -16.8304  -42.3908 N.am      7 UNK        -0.5000 
     40 C           3.7714  -16.9935  -43.3149 C.2       6 UNK         0.5000 
     41 O           3.9053  -18.0080  -43.9995 O.2       6 UNK        -0.5000 
     42 CA          4.7204  -15.8030  -43.5526 C.3       6 UNK         0.1400 
     43 CB          4.4236  -15.1636  -44.9179 C.3       6 UNK        -0.1800 
     44 N           4.5939  -14.7730  -42.5197 N.am      6 UNK        -0.5000 
     45 C           5.3281  -14.7220  -41.4000 C.2       5 UNK         0.5000 
     46 O           6.2570  -15.4921  -41.1547 O.2       5 UNK        -0.5000 
     47 CA          4.9444  -13.6460  -40.3656 C.3       5 UNK         0.1400 
     48 CB          5.8217  -12.3961  -40.5279 C.3       5 UNK        -0.1800 
     49 N           3.5297  -13.2678  -40.4395 N.am      5 UNK        -0.5000 
     50 C           2.5249  -14.0505  -40.0171 C.2       4 UNK         0.5000 
     51 O           2.6957  -15.1578  -39.5078 O.2       4 UNK        -0.5000 
     52 CA          1.0856  -13.5444  -40.2306 C.3       4 UNK         0.1400 
     53 CB          0.5763  -12.8274  -38.9716 C.3       4 UNK        -0.1800 
     54 N           0.9311  -12.6550  -41.3819 N.am      4 UNK        -0.5000 
     55 C           1.1491  -12.9920  -42.6594 C.2       3 UNK         0.5000 
     56 O           1.5289  -14.1116  -43.0120 O.2       3 UNK        -0.5000 
     57 CA          0.9299  -11.8987  -43.7252 C.3       3 UNK         0.1400 
     58 CB          0.3459  -10.5777  -43.1757 C.3       3 UNK        -0.1800 
     59 N           2.1483  -11.6332  -44.4920 N.am      3 UNK        -0.5000 
     60 C           3.3455  -11.2537  -44.0151 C.2       2 UNK         0.5000 
     61 O           3.5767  -11.0950  -42.8154 O.2       2 UNK        -0.5000 
     62 CA          4.4715  -11.0317  -45.0467 C.3       2 UNK         0.1400 
     63 CB          5.8644  -11.3760  -44.4874 C.3       2 UNK        -0.1800 
     64 N           4.2181  -11.8136  -46.2555 N.am      2 UNK        -0.5000 
     65 C           4.3873  -11.4008  -47.5180 C.2       1 UNK         0.5000 
     66 O           4.8825  -10.3147  -47.8238 O.2       1 UNK        -0.5000 
     67 C          -1.3788  -21.3494  -47.7019 C.2       11 UNK         0.5000 
     68 O          -1.4191  -22.3197  -48.4561 O.2       11 UNK        -0.5000 
     69 N          -2.2367  -20.3212  -47.7726 N.am      12 UNK        -0.5000 
     70 CA         -3.3244  -20.2111  -48.7442 C.3       12 UNK         0.1400 
     71 CB         -3.9590  -18.8163  -48.6543 C.3       12 UNK        -0.1800 
     72 C          -4.3966  -21.3036  -48.5900 C.2       12 UNK         0.5000 
     73 O          -4.9701  -21.7185  -49.5955 O.2       12 UNK        -0.5000 
     74 N          -4.6396  -21.7650  -47.3561 N.am      13 UNK        -0.5000 
     75 CA         -5.5326  -22.8867  -47.0647 C.3       13 UNK         0.1400 
     76 CB         -5.9087  -22.8710  -45.5755 C.3       13 UNK        -0.1800 
     77 C          -4.9199  -24.2436  -47.4618 C.2       13 UNK         0.5000 
     78 O          -5.6360  -25.1109  -47.9602 O.2       13 UNK        -0.5000 
     79 N          -3.6100  -24.4069  -47.2373 N.am      14 UNK        -0.5000 
     80 CA         -2.8603  -25.6239  -47.5526 C.3       14 UNK         0.1400 
     81 CB         -1.5595  -25.6285  -46.7351 C.3       14 UNK        -0.1800 
     82 C          -2.5435  -25.7874  -49.0518 C.2       14 UNK         0.5000 
     83 O          -2.3311  -26.9184  -49.4915 O.2       14 UNK        -0.5000 
     84 N          -2.4863  -24.6635  -49.7827 N.am      15 UNK        -0.5000 
     85 CA         -2.0369  -24.4931  -51.1678 C.3       15 UNK         0.1400 
     86 CB         -2.4876  -23.1136  -51.6715 C.3       15 UNK        -0.1800 
     87 C          -2.4849  -25.6017  -52.1396 C.2       15 UNK         0.5000 
     88 O          -3.6629  -25.6664  -52.5028 O.2       15 UNK        -0.5000 
     89 N          -1.5309  -26.4746  -52.4993 N.am      16 UNK        -0.5000 
     90 CA         -1.6477  -27.6219  -53.4117 C.3       16 UNK         0.1400 
     91 CB         -1.8909  -27.1214  -54.8511 C.3       16 UNK        -0.1800 
     92 C          -2.6905  -28.6837  -52.9915 C.2       16 UNK         0.5000 
     93 O          -3.0896  -29.4985  -53.8246 O.2       16 UNK        -0.5000 
     94 N          -3.1479  -28.6296  -51.7297 N.am      17 UNK        -0.5000 
     95 CA         -4.3042  -29.3360  -51.1621 C.3       17 UNK         0.1400 
     96 CB         -4.0653  -30.8597  -51.1331 C.3       17 UNK        -0.1800 
     97 C          -5.6527  -28.9594  -51.8244 C.2       17 UNK         0.5000 
     98 O          -6.6505  -29.6478  -51.6037 O.2       17 UNK        -0.5000 
     99 N          -5.6651  -27.8763  -52.6126 N.am      18 UNK        -0.5000 
    100 CA        -6.8226  -27.3568  -53.3380 C.3       18 UNK         0.1400 
    101 CB        -6.3943  -27.0352  -54.7787 C.3       18 UNK        -0.1800 
    102 C         -7.3872  -26.0993  -52.6582 C.2       18 UNK         0.5000 
    103 O         -8.6003  -25.8912  -52.7021 O.2       18 UNK        -0.5000 
    104 N         -6.4956  -25.3148  -52.0331 N.am      19 UNK        -0.5000 
    105 CA        -6.7063  -24.0381  -51.3481 C.3       19 UNK         0.1400 
    106 CB        -7.8197  -24.1310  -50.2849 C.3       19 UNK        -0.1800 
    107 C         -6.9654  -22.8631  -52.3112 C.2       19 UNK         0.5000 
    108 O         -7.4906  -23.0453  -53.4116 O.2       19 UNK        -0.5000 
    109 N         -6.6049  -21.6606  -51.8438 N.am      20 UNK        -0.5000 
    110 CA        -6.8406  -20.3501  -52.4595 C.3       20 UNK         0.1400 
    111 CB        -8.3476  -20.0198  -52.4636 C.3       20 UNK        -0.1800 
    112 C         -6.1859  -20.1839  -53.8470 C.2       20 UNK         0.5000 
    113 O         -6.7443  -19.5145  -54.7191 O.2       20 UNK        -0.5000 
    114 N         -4.9916  -20.7701  -54.0207 N.am      21 UNK        -0.5000 
    115 CA        -4.2184  -20.7635  -55.2698 C.3       21 UNK         0.1400 
    116 CB        -2.9828  -21.6590  -55.1023 C.3       21 UNK        -0.1800 
    117 C         -3.8029  -19.3593  -55.7569 C.2       21 UNK         0.5000 
    118 O         -3.5780  -19.1769  -56.9541 O.2       21 UNK        -0.5000 
    119 N         -3.7355  -18.3944  -54.8309 N.am      22 UNK        -0.5000 
    120 CA        -3.5412  -16.9647  -55.1178 C.3       22 UNK         0.1400 
    121 C         -4.7854  -16.2585  -55.7393 C.2       22 UNK         0.5000 
    122 N         -5.9630  -16.8724  -55.7844 N.am      22 UNK        -0.7600 
    123 O         -4.6772  -15.1251  -56.1993 O.2       22 UNK        -0.5000 
    124 C124       -3.0435  -16.1895  -53.8708 C.3       23 UNK        -0.0398 
    125 S125       -1.4414  -16.7997  -53.2431 S.3       23 UNK        -0.2404 
    126 C126       -1.8704  -17.2558  -51.5355 C.3       23 UNK        -0.0205 
    127 H127        0.2926  -11.1941  -50.0203 H         1 UNK         0.0600 
    128 H128       -0.2838  -10.6356  -48.4461 H         1 UNK         0.0600 
    129 H129       -0.6074  -12.2921  -48.9694 H         1 UNK         0.0600 
    130 H130        2.4727  -11.6094  -50.0116 H         1 UNK         0.3000 
    131 H131        4.5249  -12.1730  -49.4970 H         1 UNK         0.0600 
    132 H132        5.0543  -14.1012  -48.0860 H         1 UNK         0.0800 
    133 H133        3.4882  -14.0611  -47.3283 H         1 UNK         0.0800 
    134 H134        2.2727  -16.0421  -47.6479 H         1 UNK         0.0800 
    135 H135        1.2409  -14.8572  -48.4096 H         1 UNK         0.0800 
    136 H136       -0.2850  -15.5015  -50.1901 H         1 UNK         0.1150 
    137 H137       -0.7074  -19.6769  -51.0572 H         1 UNK         0.1150 
    138 H138        2.5909  -18.2947  -48.6858 H         1 UNK         0.1150 
    139 H139        0.6389  -21.2807  -49.9347 H         1 UNK         0.0800 
    140 H140        2.2410  -20.7884  -50.4112 H         1 UNK         0.0800 
    141 H141        0.4451  -19.3801  -47.2291 H         1 UNK         0.0800 
    142 H142        1.3611  -20.1150  -45.9616 H         1 UNK         0.0800 
    143 H143        0.0783  -22.3220  -46.4718 H         1 UNK         0.0600 
    144 H144       -0.6285  -20.1691  -44.8039 H         1 UNK         0.3000 
    145 H145       -3.4738  -21.6304  -43.2219 H         1 UNK         0.0600 
    146 H146       -2.0463  -21.0796  -41.2575 H         1 UNK         0.0600 
    147 H147       -1.4740  -22.5350  -42.0583 H         1 UNK         0.0600 
    148 H148       -0.6172  -21.0174  -42.2884 H         1 UNK         0.0600 
    149 H149       -2.0339  -19.1176  -43.0437 H         1 UNK         0.3000 
    150 H150       -4.2039  -17.3119  -45.2276 H         1 UNK         0.0600 
    151 H151       -5.3922  -17.4018  -43.0303 H         1 UNK         0.0600 
    152 H152       -4.4579  -15.9237  -43.1935 H         1 UNK         0.0600 
    153 H153       -3.8598  -17.2384  -42.1811 H         1 UNK         0.0600 
    154 H154       -1.9794  -16.4968  -43.6336 H         1 UNK         0.3000 
    155 H155        0.5455  -17.0867  -46.0907 H         1 UNK         0.0600 
    156 H156        0.8425  -14.6451  -45.8101 H         1 UNK         0.0600 
    157 H157       -0.7568  -14.5029  -45.0847 H         1 UNK         0.0600 
    158 H158       -0.5929  -14.9643  -46.7735 H         1 UNK         0.0600 
    159 H159        0.9424  -15.8215  -43.6922 H         1 UNK         0.3000 
    160 H160        1.0546  -17.2000  -41.3795 H         1 UNK         0.0600 
    161 H161        2.6385  -19.6563  -42.3079 H         1 UNK         0.0600 
    162 H162        1.2310  -19.6488  -41.2562 H         1 UNK         0.0600 
    163 H163        2.7372  -18.9374  -40.7006 H         1 UNK         0.0600 
    164 H164        2.8011  -15.9515  -41.8937 H         1 UNK         0.3000 
    165 H165        5.7405  -16.1923  -43.5724 H         1 UNK         0.0600 
    166 H166        3.4272  -14.7210  -44.9442 H         1 UNK         0.0600 
    167 H167        5.1508  -14.3881  -45.1536 H         1 UNK         0.0600 
    168 H168        4.4753  -15.9034  -45.7181 H         1 UNK         0.0600 
    169 H169        3.8301  -14.1188  -42.6271 H         1 UNK         0.3000 
    170 H170        5.1356  -14.0612  -39.3737 H         1 UNK         0.0600 
    171 H171        6.8769  -12.6431  -40.4048 H         1 UNK         0.0600 
    172 H172        5.7062  -11.9461  -41.5130 H         1 UNK         0.0600 
    173 H173        5.5756  -11.6402  -39.7821 H         1 UNK         0.0600 
    174 H174        3.3158  -12.3861  -40.8898 H         1 UNK         0.3000 
    175 H175        0.4557  -14.4196  -40.4032 H         1 UNK         0.0600 
    176 H176        1.1506  -11.9237  -38.7633 H         1 UNK         0.0600 
    177 H177       -0.4714  -12.5441  -39.0748 H         1 UNK         0.0600 
    178 H178        0.6515  -13.4735  -38.0958 H         1 UNK         0.0600 
    179 H179        0.6464  -11.7073  -41.1817 H         1 UNK         0.3000 
    180 H180        0.2073  -12.3071  -44.4323 H         1 UNK         0.0600 
    181 H181        1.0175  -10.0904  -42.4679 H         1 UNK         0.0600 
    182 H182       -0.6088  -10.7442  -42.6751 H         1 UNK         0.0600 
    183 H183        0.1591   -9.8729  -43.9861 H         1 UNK         0.0600 
    184 H184        2.0384  -11.7634  -45.4954 H         1 UNK         0.3000 
    185 H185        4.4521   -9.9678  -45.2909 H         1 UNK         0.0600 
    186 H186        6.6370  -11.2514  -45.2460 H         1 UNK         0.0600 
    187 H187        6.1227  -10.7206  -43.6550 H         1 UNK         0.0600 
    188 H188        5.9125  -12.4023  -44.1236 H         1 UNK         0.0600 
    189 H189        3.7480  -12.6937  -46.1038 H         1 UNK         0.3000 
    190 H190       -2.1157  -19.5278  -47.1462 H         1 UNK         0.3000 
    191 H191       -2.8896  -20.3193  -49.7395 H         1 UNK         0.0600 
    192 H192       -3.2234  -18.0363  -48.8512 H         1 UNK         0.0600 
    193 H193       -4.7598  -18.7009  -49.3858 H         1 UNK         0.0600 
    194 H194       -4.3837  -18.6329  -47.6665 H         1 UNK         0.0600 
    195 H195       -4.1673  -21.3364  -46.5701 H         1 UNK         0.3000 
    196 H196       -6.4501  -22.7543  -47.6412 H         1 UNK         0.0600 
    197 H197       -6.6010  -23.6801  -45.3398 H         1 UNK         0.0600 
    198 H198       -6.3967  -21.9350  -45.3030 H         1 UNK         0.0600 
    199 H199       -5.0347  -22.9900  -44.9351 H         1 UNK         0.0600 
    200 H200       -3.0990  -23.6695  -46.7618 H         1 UNK         0.3000 
    201 H201       -3.4554  -26.4870  -47.2468 H         1 UNK         0.0600 
    202 H202       -1.7665  -25.5920  -45.6654 H         1 UNK         0.0600 
    203 H203       -0.9280  -24.7741  -46.9823 H         1 UNK         0.0600 
    204 H204       -0.9798  -26.5330  -46.9237 H         1 UNK         0.0600 
    205 H205       -2.5960  -23.7972  -49.2679 H         1 UNK         0.3000 
    206 H206       -0.9460  -24.4860  -51.1373 H         1 UNK         0.0600 
    207 H207       -2.0891  -22.3118  -51.0510 H         1 UNK         0.0600 
    208 H208       -2.1255  -22.9435  -52.6841 H         1 UNK         0.0600 
    209 H209       -3.5737  -23.0215  -51.6844 H         1 UNK         0.0600 
    210 H210       -0.6137  -26.3555  -52.0921 H         1 UNK         0.3000 
    211 H211       -0.6809  -28.1269  -53.3933 H         1 UNK         0.0600 
    212 H212       -2.8749  -26.6637  -54.9586 H         1 UNK         0.0600 
    213 H213       -1.8314  -27.9399  -55.5693 H         1 UNK         0.0600 
    214 H214       -1.1444  -26.3831  -55.1438 H         1 UNK         0.0600 
    215 H215       -2.7394  -27.9342  -51.1100 H         1 UNK         0.3000 
    216 H216       -4.3771  -28.9962  -50.1281 H         1 UNK         0.0600 
    217 H217       -3.1107  -31.1003  -50.6653 H         1 UNK         0.0600 
    218 H218       -4.0681  -31.2917  -52.1340 H         1 UNK         0.0600 
    219 H219       -4.8424  -31.3660  -50.5595 H         1 UNK         0.0600 
    220 H220       -4.8077  -27.3422  -52.6997 H         1 UNK         0.3000 
    221 H221       -7.6159  -28.1062  -53.3761 H         1 UNK         0.0600 
    222 H222       -5.6053  -26.2821  -54.8059 H         1 UNK         0.0600 
    223 H223       -6.0236  -27.9258  -55.2867 H         1 UNK         0.0600 
    224 H224       -7.2344  -26.6530  -55.3599 H         1 UNK         0.0600 
    225 H225       -5.5161  -25.5682  -52.1274 H         1 UNK         0.3000 
    226 H226       -5.7661  -23.8486  -50.8300 H         1 UNK         0.0600 
    227 H227       -7.6963  -25.0105  -49.6537 H         1 UNK         0.0600 
    228 H228       -7.8048  -23.2565  -49.6342 H         1 UNK         0.0600 
    229 H229       -8.8117  -24.1786  -50.7346 H         1 UNK         0.0600 
    230 H230       -6.1155  -21.6354  -50.9486 H         1 UNK         0.3000 
    231 H231       -6.3504  -19.6228  -51.8109 H         1 UNK         0.0600 
    232 H232       -8.5242  -18.9935  -52.7878 H         1 UNK         0.0600 
    233 H233       -8.7757  -20.1209  -51.4663 H         1 UNK         0.0600 
    234 H234       -8.9031  -20.6752  -53.1351 H         1 UNK         0.0600 
    235 H235       -4.6092  -21.3037  -53.2546 H         1 UNK         0.3000 
    236 H236       -4.8511  -21.1992  -56.0457 H         1 UNK         0.0600 
    237 H237       -2.3077  -21.2678  -54.3404 H         1 UNK         0.0600 
    238 H238       -3.2649  -22.6748  -54.8246 H         1 UNK         0.0600 
    239 H239       -2.4195  -21.7244  -56.0341 H         1 UNK         0.0600 
    240 H240       -3.9269  -18.6381  -53.8719 H         1 UNK         0.3000 
    241 H241       -2.7582  -16.8915  -55.8752 H         1 UNK         0.0600 
    242 H242       -6.0914  -17.8113  -55.4198 H         1 UNK         0.3800 
    243 H243       -6.7484  -16.3942  -56.1963 H         1 UNK         0.3800 
    244 H244       -2.9083  -15.1326  -54.1076 H         1 UNK         0.0800 
    245 H245       -3.7945  -16.2259  -53.0800 H         1 UNK         0.0800 
    246 H246       -2.5373  -18.1191  -51.5446 H         1 UNK         0.0800 
    247 H247       -2.4217  -16.4409  -51.0636 H         1 UNK         0.0800 
@<TRIPOS>BOND
     1    1    2 1    
     2    1  127 1    
     3    1  128 1    
     4    1  129 1    
     5    2    3 2    
     6    2    4 am   BACKBONE|DICT|INTERRES
     7    4    5 1    
     8    4  130 1    
     9    5    6 1    
    10    5   65 1    
    11    5  131 1    
    12    6    7 1    
    13    6  132 1    
    14    6  133 1    
    15    7    8 1    
    16    8    9 1    
    17    8  134 1    
    18    8  135 1    
    19    9   10 ar   
    20    9   14 ar   
    21   10   11 ar   
    22   10  136 1    
    23   11   12 ar   
    24   11  126 1    
    25   12   13 ar   
    26   12  137 1    
    27   13   14 ar   
    28   13   15 1    
    29   14  138 1    
    30   15   16 1    
    31   15  139 1    
    32   15  140 1    
    33   16   17 1    
    34   17   18 1    
    35   17  141 1    
    36   17  142 1    
    37   18   19 1    
    38   18   67 1    
    39   18  143 1    
    40   19   20 am   BACKBONE|DICT|INTERRES
    41   19  144 1    
    42   20   21 2    
    43   20   22 1    
    44   22   23 1    
    45   22   24 1    
    46   22  145 1    
    47   23  146 1    
    48   23  147 1    
    49   23  148 1    
    50   24   25 am   BACKBONE|DICT|INTERRES
    51   24  149 1    
    52   25   26 2    
    53   25   27 1    
    54   27   28 1    
    55   27   29 1    
    56   27  150 1    
    57   28  151 1    
    58   28  152 1    
    59   28  153 1    
    60   29   30 am   BACKBONE|DICT|INTERRES
    61   29  154 1    
    62   30   31 2    
    63   30   32 1    
    64   32   33 1    
    65   32   34 1    
    66   32  155 1    
    67   33  156 1    
    68   33  157 1    
    69   33  158 1    
    70   34   35 am   BACKBONE|DICT|INTERRES
    71   34  159 1    
    72   35   36 2    
    73   35   37 1    
    74   37   38 1    
    75   37   39 1    
    76   37  160 1    
    77   38  161 1    
    78   38  162 1    
    79   38  163 1    
    80   39   40 am   BACKBONE|DICT|INTERRES
    81   39  164 1    
    82   40   41 2    
    83   40   42 1    
    84   42   43 1    
    85   42   44 1    
    86   42  165 1    
    87   43  166 1    
    88   43  167 1    
    89   43  168 1    
    90   44   45 am   BACKBONE|DICT|INTERRES
    91   44  169 1    
    92   45   46 2    
    93   45   47 1    
    94   47   48 1    
    95   47   49 1    
    96   47  170 1    
    97   48  171 1    
    98   48  172 1    
    99   48  173 1    
   100   49   50 am   BACKBONE|DICT|INTERRES
   101   49  174 1    
   102   50   51 2    
   103   50   52 1    
   104   52   53 1    
   105   52   54 1    
   106   52  175 1    
   107   53  176 1    
   108   53  177 1    
   109   53  178 1    
   110   54   55 am   BACKBONE|DICT|INTERRES
   111   54  179 1    
   112   55   56 2    
   113   55   57 1    
   114   57   58 1    
   115   57   59 1    
   116   57  180 1    
   117   58  181 1    
   118   58  182 1    
   119   58  183 1    
   120   59   60 am   BACKBONE|DICT|INTERRES
   121   59  184 1    
   122   60   61 2    
   123   60   62 1    
   124   62   63 1    
   125   62   64 1    
   126   62  185 1    
   127   63  186 1    
   128   63  187 1    
   129   63  188 1    
   130   64   65 am   BACKBONE|DICT|INTERRES
   131   64  189 1    
   132   65   66 2    
   133   67   68 2    
   134   67   69 am   BACKBONE|DICT|INTERRES
   135   69   70 1    
   136   69  190 1    
   137   70   71 1    
   138   70   72 1    
   139   70  191 1    
   140   71  192 1    
   141   71  193 1    
   142   71  194 1    
   143   72   73 2    
   144   72   74 am   BACKBONE|DICT|INTERRES
   145   74   75 1    
   146   74  195 1    
   147   75   76 1    
   148   75   77 1    
   149   75  196 1    
   150   76  197 1    
   151   76  198 1    
   152   76  199 1    
   153   77   78 2    
   154   77   79 am   BACKBONE|DICT|INTERRES
   155   79   80 1    
   156   79  200 1    
   157   80   81 1    
   158   80   82 1    
   159   80  201 1    
   160   81  202 1    
   161   81  203 1    
   162   81  204 1    
   163   82   83 2    
   164   82   84 am   BACKBONE|DICT|INTERRES
   165   84   85 1    
   166   84  205 1    
   167   85   86 1    
   168   85   87 1    
   169   85  206 1    
   170   86  207 1    
   171   86  208 1    
   172   86  209 1    
   173   87   88 2    
   174   87   89 am   BACKBONE|DICT|INTERRES
   175   89   90 1    
   176   89  210 1    
   177   90   91 1    
   178   90   92 1    
   179   90  211 1    
   180   91  212 1    
   181   91  213 1    
   182   91  214 1    
   183   92   93 2    
   184   92   94 am   BACKBONE|DICT|INTERRES
   185   94   95 1    
   186   94  215 1    
   187   95   96 1    
   188   95   97 1    
   189   95  216 1    
   190   96  217 1    
   191   96  218 1    
   192   96  219 1    
   193   97   98 2    
   194   97   99 am   BACKBONE|DICT|INTERRES
   195   99  100 1    
   196   99  220 1    
   197  100  101 1    
   198  100  102 1    
   199  100  221 1    
   200  101  222 1    
   201  101  223 1    
   202  101  224 1    
   203  102  103 2    
   204  102  104 am   BACKBONE|DICT|INTERRES
   205  104  105 1    
   206  104  225 1    
   207  105  106 1    
   208  105  107 1    
   209  105  226 1    
   210  106  227 1    
   211  106  228 1    
   212  106  229 1    
   213  107  108 2    
   214  107  109 am   BACKBONE|DICT|INTERRES
   215  109  110 1    
   216  109  230 1    
   217  110  111 1    
   218  110  112 1    
   219  110  231 1    
   220  111  232 1    
   221  111  233 1    
   222  111  234 1    
   223  112  113 2    
   224  112  114 am   BACKBONE|DICT|INTERRES
   225  114  115 1    
   226  114  235 1    
   227  115  116 1    
   228  115  117 1    
   229  115  236 1    
   230  116  237 1    
   231  116  238 1    
   232  116  239 1    
   233  117  118 2    
   234  117  119 am   BACKBONE|DICT|INTERRES
   235  119  120 1    
   236  119  240 1    
   237  120  121 1    
   238  120  124 1    
   239  120  241 1    
   240  121  122 am   BACKBONE|DICT|INTERRES
   241  121  123 2    
   242  122  242 1    
   243  122  243 1    
   244  124  125 1    
   245  124  244 1    
   246  124  245 1    
   247  125  126 1    
   248  126  246 1    
   249  126  247 1    
@<TRIPOS>SUBSTRUCTURE
     1 UNK         1 GROUP             0       ****    0 ROOT    
