@<TRIPOS>MOLECULE
3R540
247   249    1
SMALL
USER_CHARGES


@<TRIPOS>ATOM
      1 CA          4.1235  -11.6408  -53.6119 C.3       0 UNK        -0.1800 
      2 C           4.2131  -11.5875  -52.0931 C.2       0 UNK         0.5000 
      3 O           4.3260  -10.5016  -51.5232 O.2       0 UNK        -0.5000 
      4 N           4.1731  -12.7537  -51.4385 N.am      1 UNK        -0.5000 
      5 CA          4.1631  -12.9038  -49.9806 C.3       1 UNK         0.1400 
      6 C6          4.5517  -14.3434  -49.5515 C.3       23 UNK        -0.0398 
      7 S7          3.5133  -15.6591  -50.2870 S.3       23 UNK        -0.2404 
      8 C8          2.7687  -16.4000  -48.8033 C.3       23 UNK        -0.0205 
      9 C9          1.4502  -17.0794  -49.1323 C.ar      23 UNK        -0.0193 
     10 C10         0.2535  -16.3839  -48.9462 C.ar      23 UNK        -0.1150 
     11 C11        -0.9710  -16.9964  -49.2160 C.ar      23 UNK        -0.0193 
     12 C12        -0.9906  -18.3133  -49.6824 C.ar      23 UNK        -0.1150 
     13 C13         0.1957  -19.0245  -49.8788 C.ar      23 UNK        -0.0193 
     14 C14         1.4184  -18.3950  -49.6085 C.ar      23 UNK        -0.1150 
     15 C15         0.1167  -20.4643  -50.3870 C.3       23 UNK        -0.0205 
     16 S16         1.2998  -21.6228  -49.6166 S.3       23 UNK        -0.2404 
     17 C17         1.0068  -21.3559  -47.8360 C.3       23 UNK        -0.0398 
     18 CA          0.3546  -22.5515  -47.1050 C.3       11 UNK         0.1400 
     19 N           0.5706  -22.4580  -45.6574 N.am      11 UNK        -0.5000 
     20 C           0.2347  -23.3892  -44.7550 C.2       10 UNK         0.5000 
     21 O          -0.2653  -24.4724  -45.0487 O.2       10 UNK        -0.5000 
     22 CA          0.4417  -23.0318  -43.2714 C.3       10 UNK         0.1400 
     23 CB          1.9099  -23.2110  -42.8582 C.3       10 UNK        -0.1800 
     24 N           0.0006  -21.6720  -42.9600 N.am      10 UNK        -0.5000 
     25 C          -1.2703  -21.2521  -43.0455 C.2       9 UNK         0.5000 
     26 O          -2.2154  -21.9914  -43.3225 O.2       9 UNK        -0.5000 
     27 CA         -1.5175  -19.7437  -42.8471 C.3       9 UNK         0.1400 
     28 CB         -1.5657  -19.3812  -41.3557 C.3       9 UNK        -0.1800 
     29 N          -0.5151  -18.9186  -43.5241 N.am      9 UNK        -0.5000 
     30 C          -0.3216  -18.9065  -44.8507 C.2       8 UNK         0.5000 
     31 O          -1.0060  -19.5470  -45.6442 O.2       8 UNK        -0.5000 
     32 CA          0.8731  -18.0987  -45.3780 C.3       8 UNK         0.1400 
     33 CB          0.5102  -16.6199  -45.5185 C.3       8 UNK        -0.1800 
     34 N           2.0556  -18.2415  -44.5309 N.am      8 UNK        -0.5000 
     35 C           2.7647  -19.3725  -44.4144 C.2       7 UNK         0.5000 
     36 O           2.5156  -20.4014  -45.0392 O.2       7 UNK        -0.5000 
     37 CA          3.9142  -19.3667  -43.3919 C.3       7 UNK         0.1400 
     38 CB          5.1775  -18.7401  -44.0008 C.3       7 UNK        -0.1800 
     39 N           3.5599  -18.6537  -42.1649 N.am      7 UNK        -0.5000 
     40 C           2.6080  -19.0462  -41.3058 C.2       6 UNK         0.5000 
     41 O           1.9666  -20.0898  -41.4251 O.2       6 UNK        -0.5000 
     42 CA          2.2836  -18.0768  -40.1538 C.3       6 UNK         0.1400 
     43 CB          3.2029  -18.3373  -38.9514 C.3       6 UNK        -0.1800 
     44 N           2.3901  -16.6702  -40.5558 N.am      6 UNK        -0.5000 
     45 C           1.5909  -16.0829  -41.4558 C.2       5 UNK         0.5000 
     46 O           0.6604  -16.6605  -42.0228 O.2       5 UNK        -0.5000 
     47 CA          1.9255  -14.6335  -41.8254 C.3       5 UNK         0.1400 
     48 CB          2.9653  -14.5869  -42.9601 C.3       5 UNK        -0.1800 
     49 N           0.7089  -13.9482  -42.2472 N.am      5 UNK        -0.5000 
     50 C           0.4984  -12.6318  -42.1538 C.2       4 UNK         0.5000 
     51 O           1.3372  -11.8388  -41.7210 O.2       4 UNK        -0.5000 
     52 CA         -0.8662  -12.1192  -42.6537 C.3       4 UNK         0.1400 
     53 CB         -1.1076  -10.6380  -42.3093 C.3       4 UNK        -0.1800 
     54 N          -0.9767  -12.2833  -44.1012 N.am      4 UNK        -0.5000 
     55 C          -1.3801  -13.3961  -44.7268 C.2       3 UNK         0.5000 
     56 O          -1.7357  -14.4150  -44.1351 O.2       3 UNK        -0.5000 
     57 CA         -1.3924  -13.3637  -46.2681 C.3       3 UNK         0.1400 
     58 CB         -2.8072  -13.0552  -46.7823 C.3       3 UNK        -0.1800 
     59 N          -0.4550  -12.3882  -46.8336 N.am      3 UNK        -0.5000 
     60 C           0.8744  -12.5487  -46.8670 C.2       2 UNK         0.5000 
     61 O           1.4593  -13.5413  -46.4323 O.2       2 UNK        -0.5000 
     62 CA          1.6918  -11.3801  -47.4436 C.3       2 UNK         0.1400 
     63 CB          2.1542  -10.4484  -46.3121 C.3       2 UNK        -0.1800 
     64 N           2.8646  -11.8539  -48.1794 N.am      2 UNK        -0.5000 
     65 C           2.8136  -12.4446  -49.3802 C.2       1 UNK         0.5000 
     66 O           1.7652  -12.6189  -50.0080 O.2       1 UNK        -0.5000 
     67 C          -1.1418  -22.6956  -47.4597 C.2       11 UNK         0.5000 
     68 O          -1.4966  -23.5592  -48.2655 O.2       11 UNK        -0.5000 
     69 N          -1.9936  -21.8821  -46.8192 N.am      12 UNK        -0.5000 
     70 CA         -3.4515  -21.9129  -46.9353 C.3       12 UNK         0.1400 
     71 CB         -4.0610  -20.7253  -46.1770 C.3       12 UNK        -0.1800 
     72 C          -4.0669  -23.2419  -46.4657 C.2       12 UNK         0.5000 
     73 O          -4.9848  -23.7460  -47.1122 O.2       12 UNK        -0.5000 
     74 N          -3.5360  -23.8001  -45.3701 N.am      13 UNK        -0.5000 
     75 CA         -3.9161  -25.1163  -44.8597 C.3       13 UNK         0.1400 
     76 CB         -3.3739  -25.2872  -43.4323 C.3       13 UNK        -0.1800 
     77 C          -3.4386  -26.2638  -45.7712 C.2       13 UNK         0.5000 
     78 O          -4.1784  -27.2291  -45.9662 O.2       13 UNK        -0.5000 
     79 N          -2.2141  -26.1427  -46.3014 N.am      14 UNK        -0.5000 
     80 CA         -1.5645  -27.1446  -47.1428 C.3       14 UNK         0.1400 
     81 CB         -0.0636  -26.8333  -47.2559 C.3       14 UNK        -0.1800 
     82 C          -2.1933  -27.2794  -48.5394 C.2       14 UNK         0.5000 
     83 O          -2.4668  -28.4043  -48.9620 O.2       14 UNK        -0.5000 
     84 N          -2.3872  -26.1535  -49.2412 N.am      15 UNK        -0.5000 
     85 CA         -2.8397  -26.1543  -50.6364 C.3       15 UNK         0.1400 
     86 CB         -1.6542  -26.4653  -51.5706 C.3       15 UNK        -0.1800 
     87 C          -3.5292  -24.8588  -51.0872 C.2       15 UNK         0.5000 
     88 O          -4.2873  -24.9095  -52.0578 O.2       15 UNK        -0.5000 
     89 N          -3.2370  -23.7177  -50.4427 N.am      16 UNK        -0.5000 
     90 CA         -3.7556  -22.3829  -50.7799 C.3       16 UNK         0.1400 
     91 CB         -5.2676  -22.3017  -50.4685 C.3       16 UNK        -0.1800 
     92 C          -3.4181  -21.9473  -52.2213 C.2       16 UNK         0.5000 
     93 O          -4.2468  -21.3247  -52.8847 O.2       16 UNK        -0.5000 
     94 N          -2.2254  -22.3343  -52.7015 N.am      17 UNK        -0.5000 
     95 CA         -1.7446  -22.1686  -54.0812 C.3       17 UNK         0.1400 
     96 CB         -1.5026  -20.6783  -54.4007 C.3       17 UNK        -0.1800 
     97 C          -2.6581  -22.8629  -55.1190 C.2       17 UNK         0.5000 
     98 O          -2.8781  -22.3255  -56.2046 O.2       17 UNK        -0.5000 
     99 N          -3.1833  -24.0393  -54.7421 N.am      18 UNK        -0.5000 
    100 CA        -4.2136  -24.8222  -55.4322 C.3       18 UNK         0.1400 
    101 CB        -3.7551  -25.2664  -56.8379 C.3       18 UNK        -0.1800 
    102 C         -5.5740  -24.0949  -55.4194 C.2       18 UNK         0.5000 
    103 O         -6.2090  -23.9411  -56.4644 O.2       18 UNK        -0.5000 
    104 N         -5.9825  -23.6665  -54.2145 N.am      19 UNK        -0.5000 
    105 CA        -7.2229  -22.9502  -53.8915 C.3       19 UNK         0.1400 
    106 CB        -8.4382  -23.8881  -54.0449 C.3       19 UNK        -0.1800 
    107 C         -7.3801  -21.6204  -54.6610 C.2       19 UNK         0.5000 
    108 O         -8.4415  -21.3547  -55.2298 O.2       19 UNK        -0.5000 
    109 N         -6.3112  -20.8161  -54.6697 N.am      20 UNK        -0.5000 
    110 CA        -6.2211  -19.5449  -55.3875 C.3       20 UNK         0.1400 
    111 CB        -5.2792  -19.7234  -56.5889 C.3       20 UNK        -0.1800 
    112 C         -5.7404  -18.3799  -54.5031 C.2       20 UNK         0.5000 
    113 O         -5.9971  -17.2295  -54.8622 O.2       20 UNK        -0.5000 
    114 N         -5.0526  -18.6652  -53.3890 N.am      21 UNK        -0.5000 
    115 CA        -4.4431  -17.6687  -52.5126 C.3       21 UNK         0.1400 
    116 CB        -2.9194  -17.6889  -52.7254 C.3       21 UNK        -0.1800 
    117 C         -4.8047  -17.9724  -51.0519 C.2       21 UNK         0.5000 
    118 O         -4.4220  -19.0277  -50.5471 O.2       21 UNK        -0.5000 
    119 N         -5.5231  -17.0329  -50.4203 N.am      22 UNK        -0.5000 
    120 CA        -5.9478  -16.9160  -49.0045 C.3       22 UNK         0.1400 
    121 C         -6.5711  -18.1448  -48.2684 C.2       22 UNK         0.5000 
    122 N         -6.4857  -19.3586  -48.7860 N.am      22 UNK        -0.7600 
    123 O         -7.1903  -17.9780  -47.2208 O.2       22 UNK        -0.5000 
    124 C124       -4.9226  -16.1451  -48.1240 C.3       23 UNK        -0.0398 
    125 S125       -3.3552  -17.0231  -47.8024 S.3       23 UNK        -0.2404 
    126 C126       -2.2703  -16.2309  -49.0284 C.3       23 UNK        -0.0205 
    127 H127        5.0145  -11.1975  -54.0567 H         1 UNK         0.0600 
    128 H128        3.2541  -11.0805  -53.9561 H         1 UNK         0.0600 
    129 H129        4.0344  -12.6643  -53.9769 H         1 UNK         0.0600 
    130 H130        4.0394  -13.6113  -51.9554 H         1 UNK         0.3000 
    131 H131        4.9338  -12.2370  -49.5871 H         1 UNK         0.0600 
    132 H132        4.5564  -14.4273  -48.4636 H         1 UNK         0.0800 
    133 H133        5.5812  -14.5378  -49.8553 H         1 UNK         0.0800 
    134 H134        2.6008  -15.6287  -48.0496 H         1 UNK         0.0800 
    135 H135        3.4639  -17.1162  -48.3631 H         1 UNK         0.0800 
    136 H136        0.2799  -15.3641  -48.5872 H         1 UNK         0.1150 
    137 H137       -1.9403  -18.7860  -49.8871 H         1 UNK         0.1150 
    138 H138        2.3458  -18.9288  -49.7603 H         1 UNK         0.1150 
    139 H139       -0.8871  -20.8617  -50.2324 H         1 UNK         0.0800 
    140 H140        0.2840  -20.4609  -51.4643 H         1 UNK         0.0800 
    141 H141        1.9925  -21.1645  -47.4130 H         1 UNK         0.0800 
    142 H142        0.4358  -20.4440  -47.6668 H         1 UNK         0.0800 
    143 H143        0.8567  -23.4636  -47.4335 H         1 UNK         0.0600 
    144 H144        1.0320  -21.6149  -45.3287 H         1 UNK         0.3000 
    145 H145       -0.1618  -23.7216  -42.6777 H         1 UNK         0.0600 
    146 H146        2.0441  -23.0231  -41.7927 H         1 UNK         0.0600 
    147 H147        2.5699  -22.5348  -43.4010 H         1 UNK         0.0600 
    148 H148        2.2486  -24.2289  -43.0550 H         1 UNK         0.0600 
    149 H149        0.7158  -21.0132  -42.6679 H         1 UNK         0.3000 
    150 H150       -2.4893  -19.5062  -43.2846 H         1 UNK         0.0600 
    151 H151       -2.3514  -19.9397  -40.8455 H         1 UNK         0.0600 
    152 H152       -1.7743  -18.3205  -41.2142 H         1 UNK         0.0600 
    153 H153       -0.6254  -19.6068  -40.8535 H         1 UNK         0.0600 
    154 H154        0.0529  -18.3112  -42.9420 H         1 UNK         0.3000 
    155 H155        1.1181  -18.4768  -46.3726 H         1 UNK         0.0600 
    156 H156       -0.3851  -16.5024  -46.1290 H         1 UNK         0.0600 
    157 H157        1.3152  -16.0705  -46.0023 H         1 UNK         0.0600 
    158 H158        0.3130  -16.1515  -44.5559 H         1 UNK         0.0600 
    159 H159        2.2933  -17.4554  -43.9465 H         1 UNK         0.3000 
    160 H160        4.1358  -20.4038  -43.1313 H         1 UNK         0.0600 
    161 H161        5.0253  -17.6914  -44.2591 H         1 UNK         0.0600 
    162 H162        5.4714  -19.2634  -44.9117 H         1 UNK         0.0600 
    163 H163        6.0182  -18.7973  -43.3091 H         1 UNK         0.0600 
    164 H164        4.0440  -17.7874  -41.9835 H         1 UNK         0.3000 
    165 H165        1.2537  -18.2635  -39.8427 H         1 UNK         0.0600 
    166 H166        2.9318  -17.7072  -38.1041 H         1 UNK         0.0600 
    167 H167        3.1274  -19.3741  -38.6208 H         1 UNK         0.0600 
    168 H168        4.2490  -18.1449  -39.1928 H         1 UNK         0.0600 
    169 H169        3.1341  -16.1347  -40.1316 H         1 UNK         0.3000 
    170 H170        2.3313  -14.1419  -40.9386 H         1 UNK         0.0600 
    171 H171        2.5808  -15.0344  -43.8774 H         1 UNK         0.0600 
    172 H172        3.2507  -13.5603  -43.1905 H         1 UNK         0.0600 
    173 H173        3.8756  -15.1212  -42.6862 H         1 UNK         0.0600 
    174 H174       -0.0234  -14.5506  -42.6091 H         1 UNK         0.3000 
    175 H175       -1.6423  -12.7054  -42.1568 H         1 UNK         0.0600 
    176 H176       -0.3763   -9.9856  -42.7884 H         1 UNK         0.0600 
    177 H177       -2.1001  -10.3175  -42.6268 H         1 UNK         0.0600 
    178 H178       -1.0430  -10.4716  -41.2333 H         1 UNK         0.0600 
    179 H179       -0.6727  -11.5042  -44.6652 H         1 UNK         0.3000 
    180 H180       -1.1114  -14.3559  -46.6229 H         1 UNK         0.0600 
    181 H181       -3.1583  -12.0821  -46.4367 H         1 UNK         0.0600 
    182 H182       -3.5190  -13.8043  -46.4326 H         1 UNK         0.0600 
    183 H183       -2.8444  -13.0565  -47.8716 H         1 UNK         0.0600 
    184 H184       -0.8592  -11.5435  -47.2122 H         1 UNK         0.3000 
    185 H185        1.0614  -10.8085  -48.1284 H         1 UNK         0.0600 
    186 H186        2.7890  -10.9704  -45.5945 H         1 UNK         0.0600 
    187 H187        2.7162   -9.6001  -46.7034 H         1 UNK         0.0600 
    188 H188        1.3023  -10.0459  -45.7626 H         1 UNK         0.0600 
    189 H189        3.7519  -11.7681  -47.7059 H         1 UNK         0.3000 
    190 H190       -1.6111  -21.1506  -46.2219 H         1 UNK         0.3000 
    191 H191       -3.6994  -21.7873  -47.9859 H         1 UNK         0.0600 
    192 H192       -3.6895  -19.7787  -46.5689 H         1 UNK         0.0600 
    193 H193       -3.8283  -20.7612  -45.1132 H         1 UNK         0.0600 
    194 H194       -5.1469  -20.7123  -46.2773 H         1 UNK         0.0600 
    195 H195       -2.8195  -23.2957  -44.8592 H         1 UNK         0.3000 
    196 H196       -5.0062  -25.1607  -44.8121 H         1 UNK         0.0600 
    197 H197       -3.7588  -24.5118  -42.7697 H         1 UNK         0.0600 
    198 H198       -2.2852  -25.2386  -43.4041 H         1 UNK         0.0600 
    199 H199       -3.6707  -26.2501  -43.0148 H         1 UNK         0.0600 
    200 H200       -1.6435  -25.3477  -46.0271 H         1 UNK         0.3000 
    201 H201       -1.6638  -28.1108  -46.6436 H         1 UNK         0.0600 
    202 H202        0.4177  -26.8562  -46.2782 H         1 UNK         0.0600 
    203 H203        0.1131  -25.8503  -47.6930 H         1 UNK         0.0600 
    204 H204        0.4429  -27.5679  -47.8833 H         1 UNK         0.0600 
    205 H205       -2.1406  -25.2622  -48.8206 H         1 UNK         0.3000 
    206 H206       -3.5882  -26.9402  -50.7587 H         1 UNK         0.0600 
    207 H207       -1.2368  -27.4520  -51.3700 H         1 UNK         0.0600 
    208 H208       -0.8529  -25.7344  -51.4553 H         1 UNK         0.0600 
    209 H209       -1.9618  -26.4563  -52.6172 H         1 UNK         0.0600 
    210 H210       -2.5782  -23.7392  -49.6673 H         1 UNK         0.3000 
    211 H211       -3.2400  -21.6642  -50.1442 H         1 UNK         0.0600 
    212 H212       -5.8357  -23.0595  -51.0046 H         1 UNK         0.0600 
    213 H213       -5.6861  -21.3338  -50.7412 H         1 UNK         0.0600 
    214 H214       -5.4612  -22.4451  -49.4073 H         1 UNK         0.0600 
    215 H215       -1.6188  -22.8571  -52.0861 H         1 UNK         0.3000 
    216 H216       -0.7811  -22.6774  -54.1349 H         1 UNK         0.0600 
    217 H217       -1.0025  -20.5619  -55.3627 H         1 UNK         0.0600 
    218 H218       -0.8695  -20.2084  -53.6489 H         1 UNK         0.0600 
    219 H219       -2.4366  -20.1186  -54.4519 H         1 UNK         0.0600 
    220 H220       -2.9805  -24.3558  -53.8039 H         1 UNK         0.3000 
    221 H221       -4.3503  -25.7280  -54.8394 H         1 UNK         0.0600 
    222 H222       -3.6690  -24.4270  -57.5279 H         1 UNK         0.0600 
    223 H223       -2.7888  -25.7689  -56.7970 H         1 UNK         0.0600 
    224 H224       -4.4680  -25.9682  -57.2719 H         1 UNK         0.0600 
    225 H225       -5.3796  -23.8705  -53.4238 H         1 UNK         0.3000 
    226 H226       -7.1576  -22.6755  -52.8393 H         1 UNK         0.0600 
    227 H227       -8.3120  -24.7950  -53.4535 H         1 UNK         0.0600 
    228 H228       -9.3527  -23.4032  -53.7015 H         1 UNK         0.0600 
    229 H229       -8.5940  -24.1836  -55.0829 H         1 UNK         0.0600 
    230 H230       -5.4866  -21.1038  -54.1455 H         1 UNK         0.3000 
    231 H231       -7.2029  -19.2566  -55.7681 H         1 UNK         0.0600 
    232 H232       -5.2237  -18.8110  -57.1838 H         1 UNK         0.0600 
    233 H233       -5.6245  -20.5218  -57.2461 H         1 UNK         0.0600 
    234 H234       -4.2664  -19.9695  -56.2687 H         1 UNK         0.0600 
    235 H235       -4.8759  -19.6336  -53.1310 H         1 UNK         0.3000 
    236 H236       -4.8020  -16.6670  -52.7574 H         1 UNK         0.0600 
    237 H237       -2.4828  -18.6415  -52.4234 H         1 UNK         0.0600 
    238 H238       -2.6655  -17.5237  -53.7725 H         1 UNK         0.0600 
    239 H239       -2.4287  -16.9056  -52.1490 H         1 UNK         0.0600 
    240 H240       -5.8115  -16.2459  -50.9833 H         1 UNK         0.3000 
    241 H241       -6.8039  -16.2447  -49.0851 H         1 UNK         0.0600 
    242 H242       -6.9101  -20.1419  -48.3185 H         1 UNK         0.3800 
    243 H243       -5.8520  -19.4930  -49.5700 H         1 UNK         0.3800 
    244 H244       -5.3678  -15.9041  -47.1573 H         1 UNK         0.0800 
    245 H245       -4.7023  -15.1794  -48.5802 H         1 UNK         0.0800 
    246 H246       -2.0732  -15.2049  -48.7194 H         1 UNK         0.0800 
    247 H247       -2.7822  -16.1650  -49.9863 H         1 UNK         0.0800 
@<TRIPOS>BOND
     1    1    2 1    
     2    1  127 1    
     3    1  128 1    
     4    1  129 1    
     5    2    3 2    
     6    2    4 am   BACKBONE|DICT|INTERRES
     7    4    5 1    
     8    4  130 1    
     9    5    6 1    
    10    5   65 1    
    11    5  131 1    
    12    6    7 1    
    13    6  132 1    
    14    6  133 1    
    15    7    8 1    
    16    8    9 1    
    17    8  134 1    
    18    8  135 1    
    19    9   10 ar   
    20    9   14 ar   
    21   10   11 ar   
    22   10  136 1    
    23   11   12 ar   
    24   11  126 1    
    25   12   13 ar   
    26   12  137 1    
    27   13   14 ar   
    28   13   15 1    
    29   14  138 1    
    30   15   16 1    
    31   15  139 1    
    32   15  140 1    
    33   16   17 1    
    34   17   18 1    
    35   17  141 1    
    36   17  142 1    
    37   18   19 1    
    38   18   67 1    
    39   18  143 1    
    40   19   20 am   BACKBONE|DICT|INTERRES
    41   19  144 1    
    42   20   21 2    
    43   20   22 1    
    44   22   23 1    
    45   22   24 1    
    46   22  145 1    
    47   23  146 1    
    48   23  147 1    
    49   23  148 1    
    50   24   25 am   BACKBONE|DICT|INTERRES
    51   24  149 1    
    52   25   26 2    
    53   25   27 1    
    54   27   28 1    
    55   27   29 1    
    56   27  150 1    
    57   28  151 1    
    58   28  152 1    
    59   28  153 1    
    60   29   30 am   BACKBONE|DICT|INTERRES
    61   29  154 1    
    62   30   31 2    
    63   30   32 1    
    64   32   33 1    
    65   32   34 1    
    66   32  155 1    
    67   33  156 1    
    68   33  157 1    
    69   33  158 1    
    70   34   35 am   BACKBONE|DICT|INTERRES
    71   34  159 1    
    72   35   36 2    
    73   35   37 1    
    74   37   38 1    
    75   37   39 1    
    76   37  160 1    
    77   38  161 1    
    78   38  162 1    
    79   38  163 1    
    80   39   40 am   BACKBONE|DICT|INTERRES
    81   39  164 1    
    82   40   41 2    
    83   40   42 1    
    84   42   43 1    
    85   42   44 1    
    86   42  165 1    
    87   43  166 1    
    88   43  167 1    
    89   43  168 1    
    90   44   45 am   BACKBONE|DICT|INTERRES
    91   44  169 1    
    92   45   46 2    
    93   45   47 1    
    94   47   48 1    
    95   47   49 1    
    96   47  170 1    
    97   48  171 1    
    98   48  172 1    
    99   48  173 1    
   100   49   50 am   BACKBONE|DICT|INTERRES
   101   49  174 1    
   102   50   51 2    
   103   50   52 1    
   104   52   53 1    
   105   52   54 1    
   106   52  175 1    
   107   53  176 1    
   108   53  177 1    
   109   53  178 1    
   110   54   55 am   BACKBONE|DICT|INTERRES
   111   54  179 1    
   112   55   56 2    
   113   55   57 1    
   114   57   58 1    
   115   57   59 1    
   116   57  180 1    
   117   58  181 1    
   118   58  182 1    
   119   58  183 1    
   120   59   60 am   BACKBONE|DICT|INTERRES
   121   59  184 1    
   122   60   61 2    
   123   60   62 1    
   124   62   63 1    
   125   62   64 1    
   126   62  185 1    
   127   63  186 1    
   128   63  187 1    
   129   63  188 1    
   130   64   65 am   BACKBONE|DICT|INTERRES
   131   64  189 1    
   132   65   66 2    
   133   67   68 2    
   134   67   69 am   BACKBONE|DICT|INTERRES
   135   69   70 1    
   136   69  190 1    
   137   70   71 1    
   138   70   72 1    
   139   70  191 1    
   140   71  192 1    
   141   71  193 1    
   142   71  194 1    
   143   72   73 2    
   144   72   74 am   BACKBONE|DICT|INTERRES
   145   74   75 1    
   146   74  195 1    
   147   75   76 1    
   148   75   77 1    
   149   75  196 1    
   150   76  197 1    
   151   76  198 1    
   152   76  199 1    
   153   77   78 2    
   154   77   79 am   BACKBONE|DICT|INTERRES
   155   79   80 1    
   156   79  200 1    
   157   80   81 1    
   158   80   82 1    
   159   80  201 1    
   160   81  202 1    
   161   81  203 1    
   162   81  204 1    
   163   82   83 2    
   164   82   84 am   BACKBONE|DICT|INTERRES
   165   84   85 1    
   166   84  205 1    
   167   85   86 1    
   168   85   87 1    
   169   85  206 1    
   170   86  207 1    
   171   86  208 1    
   172   86  209 1    
   173   87   88 2    
   174   87   89 am   BACKBONE|DICT|INTERRES
   175   89   90 1    
   176   89  210 1    
   177   90   91 1    
   178   90   92 1    
   179   90  211 1    
   180   91  212 1    
   181   91  213 1    
   182   91  214 1    
   183   92   93 2    
   184   92   94 am   BACKBONE|DICT|INTERRES
   185   94   95 1    
   186   94  215 1    
   187   95   96 1    
   188   95   97 1    
   189   95  216 1    
   190   96  217 1    
   191   96  218 1    
   192   96  219 1    
   193   97   98 2    
   194   97   99 am   BACKBONE|DICT|INTERRES
   195   99  100 1    
   196   99  220 1    
   197  100  101 1    
   198  100  102 1    
   199  100  221 1    
   200  101  222 1    
   201  101  223 1    
   202  101  224 1    
   203  102  103 2    
   204  102  104 am   BACKBONE|DICT|INTERRES
   205  104  105 1    
   206  104  225 1    
   207  105  106 1    
   208  105  107 1    
   209  105  226 1    
   210  106  227 1    
   211  106  228 1    
   212  106  229 1    
   213  107  108 2    
   214  107  109 am   BACKBONE|DICT|INTERRES
   215  109  110 1    
   216  109  230 1    
   217  110  111 1    
   218  110  112 1    
   219  110  231 1    
   220  111  232 1    
   221  111  233 1    
   222  111  234 1    
   223  112  113 2    
   224  112  114 am   BACKBONE|DICT|INTERRES
   225  114  115 1    
   226  114  235 1    
   227  115  116 1    
   228  115  117 1    
   229  115  236 1    
   230  116  237 1    
   231  116  238 1    
   232  116  239 1    
   233  117  118 2    
   234  117  119 am   BACKBONE|DICT|INTERRES
   235  119  120 1    
   236  119  240 1    
   237  120  121 1    
   238  120  124 1    
   239  120  241 1    
   240  121  122 am   BACKBONE|DICT|INTERRES
   241  121  123 2    
   242  122  242 1    
   243  122  243 1    
   244  124  125 1    
   245  124  244 1    
   246  124  245 1    
   247  125  126 1    
   248  126  246 1    
   249  126  247 1    
@<TRIPOS>SUBSTRUCTURE
     1 UNK         1 GROUP             0       ****    0 ROOT    
