@<TRIPOS>MOLECULE
3R540
247   249    1
SMALL
USER_CHARGES


@<TRIPOS>ATOM
      1 CA         -0.9694  -11.3401  -48.7922 C.3       0 UNK        -0.1800 
      2 C          -0.9011  -12.5258  -47.8419 C.2       0 UNK         0.5000 
      3 O          -0.9411  -12.3408  -46.6253 O.2       0 UNK        -0.5000 
      4 N          -0.8203  -13.7482  -48.3840 N.am      1 UNK        -0.5000 
      5 CA         -0.7340  -14.9995  -47.6196 C.3       1 UNK         0.1400 
      6 C6         -0.3649  -16.2088  -48.5117 C.3       23 UNK        -0.0398 
      7 S7         -1.5423  -16.5353  -49.8742 S.3       23 UNK        -0.2404 
      8 C8         -1.9861  -18.2794  -49.5619 C.3       23 UNK        -0.0205 
      9 C9         -1.0251  -19.3178  -50.1477 C.ar      23 UNK        -0.0193 
     10 C10        -1.5309  -20.5790  -50.4718 C.ar      23 UNK        -0.1150 
     11 C11        -0.7052  -21.5768  -50.9930 C.ar      23 UNK        -0.0193 
     12 C12         0.6408  -21.2968  -51.2310 C.ar      23 UNK        -0.1150 
     13 C13         1.1758  -20.0493  -50.8971 C.ar      23 UNK        -0.0193 
     14 C14         0.3399  -19.0700  -50.3494 C.ar      23 UNK        -0.1150 
     15 C15         2.6467  -19.7393  -51.1540 C.3       23 UNK        -0.0205 
     16 S16         3.7905  -21.0262  -50.5470 S.3       23 UNK        -0.2404 
     17 C17         3.6245  -20.8821  -48.7357 C.3       23 UNK        -0.0398 
     18 CA          3.2905  -22.2393  -48.0628 C.3       11 UNK         0.1400 
     19 N           3.7275  -22.2685  -46.6678 N.am      11 UNK        -0.5000 
     20 C           4.3116  -23.3094  -46.0591 C.2       10 UNK         0.5000 
     21 O           4.6570  -24.3397  -46.6382 O.2       10 UNK        -0.5000 
     22 CA          4.5340  -23.1870  -44.5366 C.3       10 UNK         0.1400 
     23 CB          5.9249  -22.6067  -44.2397 C.3       10 UNK        -0.1800 
     24 N           3.5206  -22.3587  -43.8799 N.am      10 UNK        -0.5000 
     25 C           2.2233  -22.6806  -43.7830 C.2       9 UNK         0.5000 
     26 O           1.7695  -23.7748  -44.1162 O.2       9 UNK        -0.5000 
     27 CA          1.2600  -21.5976  -43.2577 C.3       9 UNK         0.1400 
     28 CB          0.8270  -21.9136  -41.8196 C.3       9 UNK        -0.1800 
     29 N           1.7604  -20.2176  -43.3147 N.am      9 UNK        -0.5000 
     30 C           2.1281  -19.5518  -44.4201 C.2       8 UNK         0.5000 
     31 O           2.2214  -20.0828  -45.5269 O.2       8 UNK        -0.5000 
     32 CA          2.4544  -18.0535  -44.2898 C.3       8 UNK         0.1400 
     33 CB          1.5662  -17.2252  -45.2323 C.3       8 UNK        -0.1800 
     34 N           2.2859  -17.5591  -42.9215 N.am      8 UNK        -0.5000 
     35 C           3.2870  -17.2228  -42.0954 C.2       7 UNK         0.5000 
     36 O           4.4761  -17.2801  -42.4097 O.2       7 UNK        -0.5000 
     37 CA          2.9143  -16.7481  -40.6751 C.3       7 UNK         0.1400 
     38 CB          3.0730  -15.2254  -40.5469 C.3       7 UNK        -0.1800 
     39 N           1.5583  -17.1272  -40.2727 N.am      7 UNK        -0.5000 
     40 C           1.2049  -18.3681  -39.9070 C.2       6 UNK         0.5000 
     41 O           1.9975  -19.3075  -39.8438 O.2       6 UNK        -0.5000 
     42 CA         -0.2852  -18.6197  -39.6005 C.3       6 UNK         0.1400 
     43 CB         -0.5574  -18.4552  -38.0980 C.3       6 UNK        -0.1800 
     44 N          -1.2050  -17.7597  -40.3481 N.am      6 UNK        -0.5000 
     45 C          -1.2806  -17.6626  -41.6828 C.2       5 UNK         0.5000 
     46 O          -0.5678  -18.3039  -42.4547 O.2       5 UNK        -0.5000 
     47 CA         -2.2778  -16.6398  -42.2583 C.3       5 UNK         0.1400 
     48 CB         -3.3682  -16.1921  -41.2602 C.3       5 UNK        -0.1800 
     49 N          -1.5956  -15.4691  -42.8115 N.am      5 UNK        -0.5000 
     50 C          -0.7264  -14.6548  -42.1926 C.2       4 UNK         0.5000 
     51 O          -0.3031  -14.8325  -41.0491 O.2       4 UNK        -0.5000 
     52 CA         -0.2776  -13.4083  -42.9789 C.3       4 UNK         0.1400 
     53 CB          0.8796  -13.7469  -43.9271 C.3       4 UNK        -0.1800 
     54 N          -1.3664  -12.8095  -43.7523 N.am      4 UNK        -0.5000 
     55 C          -2.4573  -12.2353  -43.2246 C.2       3 UNK         0.5000 
     56 O          -2.6320  -12.0693  -42.0170 O.2       3 UNK        -0.5000 
     57 CA         -3.5468  -11.7937  -44.2156 C.3       3 UNK         0.1400 
     58 CB         -3.2314  -10.4080  -44.8004 C.3       3 UNK        -0.1800 
     59 N          -3.7050  -12.7610  -45.3019 N.am      3 UNK        -0.5000 
     60 C          -4.4030  -13.9014  -45.2018 C.2       2 UNK         0.5000 
     61 O          -5.0293  -14.2346  -44.1959 O.2       2 UNK        -0.5000 
     62 CA         -4.4038  -14.8289  -46.4324 C.3       2 UNK         0.1400 
     63 CB         -5.5611  -14.4574  -47.3705 C.3       2 UNK        -0.1800 
     64 N          -3.1487  -14.7859  -47.1837 N.am      2 UNK        -0.5000 
     65 C          -1.9773  -15.2649  -46.7409 C.2       1 UNK         0.5000 
     66 O          -1.8438  -15.8407  -45.6620 O.2       1 UNK        -0.5000 
     67 C           1.7853  -22.5578  -48.1176 C.2       11 UNK         0.5000 
     68 O           1.3728  -23.4733  -48.8306 O.2       11 UNK        -0.5000 
     69 N           0.9958  -21.8334  -47.3123 N.am      12 UNK        -0.5000 
     70 CA         -0.4637  -21.8908  -47.2323 C.3       12 UNK         0.1400 
     71 CB         -0.9760  -20.5565  -46.6603 C.3       12 UNK        -0.1800 
     72 C          -1.0011  -23.1121  -46.4585 C.2       12 UNK         0.5000 
     73 O          -1.9918  -22.9958  -45.7365 O.2       12 UNK        -0.5000 
     74 N          -0.3682  -24.2769  -46.6416 N.am      13 UNK        -0.5000 
     75 CA         -0.7441  -25.5507  -46.0241 C.3       13 UNK         0.1400 
     76 CB          0.3714  -26.5754  -46.2772 C.3       13 UNK        -0.1800 
     77 C          -2.1007  -26.0818  -46.5288 C.2       13 UNK         0.5000 
     78 O          -2.8111  -26.7538  -45.7810 O.2       13 UNK        -0.5000 
     79 N          -2.4451  -25.7368  -47.7768 N.am      14 UNK        -0.5000 
     80 CA         -3.7319  -26.0227  -48.4142 C.3       14 UNK         0.1400 
     81 CB         -3.4903  -26.2412  -49.9179 C.3       14 UNK        -0.1800 
     82 C          -4.7757  -24.9074  -48.1835 C.2       14 UNK         0.5000 
     83 O          -5.8704  -24.9950  -48.7409 O.2       14 UNK        -0.5000 
     84 N          -4.4235  -23.8795  -47.3936 N.am      15 UNK        -0.5000 
     85 CA         -5.1583  -22.6380  -47.1380 C.3       15 UNK         0.1400 
     86 CB         -6.5183  -22.8958  -46.4540 C.3       15 UNK        -0.1800 
     87 C          -5.2609  -21.7765  -48.4091 C.2       15 UNK         0.5000 
     88 O          -4.4167  -20.9030  -48.6055 O.2       15 UNK        -0.5000 
     89 N          -6.2798  -22.0388  -49.2404 N.am      16 UNK        -0.5000 
     90 CA         -6.5888  -21.4770  -50.5661 C.3       16 UNK         0.1400 
     91 CB         -5.4851  -21.8364  -51.5756 C.3       16 UNK        -0.1800 
     92 C          -6.8955  -19.9648  -50.6216 C.2       16 UNK         0.5000 
     93 O          -7.7118  -19.5536  -51.4461 O.2       16 UNK        -0.5000 
     94 N          -6.2417  -19.1719  -49.7636 N.am      17 UNK        -0.5000 
     95 CA         -6.3226  -17.7138  -49.6178 C.3       17 UNK         0.1400 
     96 CB         -7.7518  -17.2648  -49.2483 C.3       17 UNK        -0.1800 
     97 C          -5.7382  -16.9178  -50.8062 C.2       17 UNK         0.5000 
     98 O          -5.9235  -15.7018  -50.8709 O.2       17 UNK        -0.5000 
     99 N          -5.0090  -17.5938  -51.6996 N.am      18 UNK        -0.5000 
    100 CA        -4.2519  -17.0069  -52.7953 C.3       18 UNK         0.1400 
    101 CB        -5.1718  -16.7256  -53.9967 C.3       18 UNK        -0.1800 
    102 C         -3.1442  -17.9923  -53.1751 C.2       18 UNK         0.5000 
    103 O         -3.4205  -19.1855  -53.3098 O.2       18 UNK        -0.5000 
    104 N         -1.9228  -17.4808  -53.3661 N.am      19 UNK        -0.5000 
    105 CA        -0.7570  -18.2748  -53.7610 C.3       19 UNK         0.1400 
    106 CB         0.5162  -17.4416  -53.5512 C.3       19 UNK        -0.1800 
    107 C         -0.8450  -18.7722  -55.2144 C.2       19 UNK         0.5000 
    108 O         -0.3353  -19.8492  -55.5205 O.2       19 UNK        -0.5000 
    109 N         -1.5167  -17.9932  -56.0758 N.am      20 UNK        -0.5000 
    110 CA        -1.7567  -18.3089  -57.4852 C.3       20 UNK         0.1400 
    111 CB        -2.3696  -17.0833  -58.1792 C.3       20 UNK        -0.1800 
    112 C         -2.6524  -19.5457  -57.6824 C.2       20 UNK         0.5000 
    113 O         -2.4389  -20.3048  -58.6284 O.2       20 UNK        -0.5000 
    114 N         -3.6062  -19.7548  -56.7625 N.am      21 UNK        -0.5000 
    115 CA        -4.4942  -20.9204  -56.7324 C.3       21 UNK         0.1400 
    116 CB        -5.6164  -20.6716  -55.7133 C.3       21 UNK        -0.1800 
    117 C         -3.7524  -22.2356  -56.4194 C.2       21 UNK         0.5000 
    118 O         -4.2162  -23.3038  -56.8204 O.2       21 UNK        -0.5000 
    119 N         -2.6068  -22.1262  -55.7378 N.am      22 UNK        -0.5000 
    120 CA        -1.6797  -23.2255  -55.4366 C.3       22 UNK         0.1400 
    121 C         -0.6057  -23.4540  -56.5423 C.2       22 UNK         0.5000 
    122 N         -0.6096  -22.7225  -57.6518 N.am      22 UNK        -0.7600 
    123 O          0.2406  -24.3330  -56.4041 O.2       22 UNK        -0.5000 
    124 C124       -1.0372  -23.0465  -54.0370 C.3       23 UNK        -0.0398 
    125 S125       -2.2942  -23.0671  -52.7166 S.3       23 UNK        -0.2404 
    126 C126       -1.2575  -22.9732  -51.2296 C.3       23 UNK        -0.0205 
    127 H127       -0.1235  -10.6747  -48.6203 H         1 UNK         0.0600 
    128 H128       -1.8872  -10.7772  -48.6228 H         1 UNK         0.0600 
    129 H129       -0.9496  -11.6553  -49.8357 H         1 UNK         0.0600 
    130 H130       -0.8082  -13.8500  -49.3893 H         1 UNK         0.3000 
    131 H131        0.0981  -14.8702  -46.9258 H         1 UNK         0.0600 
    132 H132        0.6141  -16.0315  -48.9586 H         1 UNK         0.0800 
    133 H133       -0.2439  -17.1036  -47.8990 H         1 UNK         0.0800 
    134 H134       -2.0994  -18.4477  -48.4911 H         1 UNK         0.0800 
    135 H135       -2.9757  -18.4414  -49.9882 H         1 UNK         0.0800 
    136 H136       -2.5729  -20.7980  -50.2996 H         1 UNK         0.1150 
    137 H137        1.2817  -22.0636  -51.6423 H         1 UNK         0.1150 
    138 H138        0.7603  -18.1089  -50.1008 H         1 UNK         0.1150 
    139 H139        2.7888  -19.6306  -52.2298 H         1 UNK         0.0800 
    140 H140        2.9270  -18.7827  -50.7104 H         1 UNK         0.0800 
    141 H141        2.9012  -20.1076  -48.4728 H         1 UNK         0.0800 
    142 H142        4.5856  -20.5184  -48.3696 H         1 UNK         0.0800 
    143 H143        3.8125  -23.0261  -48.6119 H         1 UNK         0.0600 
    144 H144        3.4324  -21.4809  -46.0999 H         1 UNK         0.3000 
    145 H145        4.4820  -24.1913  -44.1109 H         1 UNK         0.0600 
    146 H146        6.1205  -22.5794  -43.1676 H         1 UNK         0.0600 
    147 H147        6.7069  -23.2149  -44.6963 H         1 UNK         0.0600 
    148 H148        6.0295  -21.5924  -44.6270 H         1 UNK         0.0600 
    149 H149        3.8092  -21.4436  -43.5674 H         1 UNK         0.3000 
    150 H150        0.3711  -21.6440  -43.8885 H         1 UNK         0.0600 
    151 H151        0.4472  -22.9328  -41.7364 H         1 UNK         0.0600 
    152 H152        0.0272  -21.2469  -41.4998 H         1 UNK         0.0600 
    153 H153        1.6559  -21.8121  -41.1182 H         1 UNK         0.0600 
    154 H154        1.7213  -19.6992  -42.4491 H         1 UNK         0.3000 
    155 H155        3.4885  -17.9347  -44.6184 H         1 UNK         0.0600 
    156 H156        1.9040  -16.1909  -45.2659 H         1 UNK         0.0600 
    157 H157        0.5215  -17.2352  -44.9180 H         1 UNK         0.0600 
    158 H158        1.6073  -17.6040  -46.2542 H         1 UNK         0.0600 
    159 H159        1.3306  -17.5322  -42.5809 H         1 UNK         0.3000 
    160 H160        3.6207  -17.2138  -39.9846 H         1 UNK         0.0600 
    161 H161        2.3932  -14.6900  -41.2078 H         1 UNK         0.0600 
    162 H162        4.0877  -14.9149  -40.7995 H         1 UNK         0.0600 
    163 H163        2.8770  -14.8939  -39.5272 H         1 UNK         0.0600 
    164 H164        0.8450  -16.4071  -40.3346 H         1 UNK         0.3000 
    165 H165       -0.5077  -19.6520  -39.8735 H         1 UNK         0.0600 
    166 H166       -1.5855  -18.7205  -37.8510 H         1 UNK         0.0600 
    167 H167        0.0939  -19.1028  -37.5094 H         1 UNK         0.0600 
    168 H168       -0.3856  -17.4296  -37.7685 H         1 UNK         0.0600 
    169 H169       -1.8009  -17.1586  -39.7980 H         1 UNK         0.3000 
    170 H170       -2.7749  -17.1330  -43.0950 H         1 UNK         0.0600 
    171 H171       -3.9060  -17.0488  -40.8520 H         1 UNK         0.0600 
    172 H172       -2.9587  -15.6224  -40.4254 H         1 UNK         0.0600 
    173 H173       -4.1046  -15.5584  -41.7551 H         1 UNK         0.0600 
    174 H174       -1.7907  -15.2970  -43.7931 H         1 UNK         0.3000 
    175 H175        0.0750  -12.6688  -42.2571 H         1 UNK         0.0600 
    176 H176        0.5521  -14.4253  -44.7120 H         1 UNK         0.0600 
    177 H177        1.2730  -12.8497  -44.4052 H         1 UNK         0.0600 
    178 H178        1.7042  -14.2260  -43.3995 H         1 UNK         0.0600 
    179 H179       -1.2766  -12.8336  -44.7636 H         1 UNK         0.3000 
    180 H180       -4.4889  -11.7189  -43.6680 H         1 UNK         0.0600 
    181 H181       -4.0208  -10.0764  -45.4750 H         1 UNK         0.0600 
    182 H182       -2.2927  -10.4031  -45.3549 H         1 UNK         0.0600 
    183 H183       -3.1466   -9.6629  -44.0084 H         1 UNK         0.0600 
    184 H184       -3.1716  -12.5861  -46.1421 H         1 UNK         0.3000 
    185 H185       -4.5572  -15.8522  -46.0831 H         1 UNK         0.0600 
    186 H186       -5.4767  -13.4310  -47.7296 H         1 UNK         0.0600 
    187 H187       -5.5879  -15.1109  -48.2398 H         1 UNK         0.0600 
    188 H188       -6.5219  -14.5509  -46.8627 H         1 UNK         0.0600 
    189 H189       -3.1677  -14.3257  -48.0821 H         1 UNK         0.3000 
    190 H190        1.4335  -21.1405  -46.7086 H         1 UNK         0.3000 
    191 H191       -0.8508  -21.9856  -48.2451 H         1 UNK         0.0600 
    192 H192       -2.0602  -20.4813  -46.7541 H         1 UNK         0.0600 
    193 H193       -0.5434  -19.7090  -47.1912 H         1 UNK         0.0600 
    194 H194       -0.7273  -20.4438  -45.6053 H         1 UNK         0.0600 
    195 H195        0.4169  -24.2871  -47.2840 H         1 UNK         0.3000 
    196 H196       -0.8273  -25.3918  -44.9469 H         1 UNK         0.0600 
    197 H197        0.5188  -26.7557  -47.3428 H         1 UNK         0.0600 
    198 H198        1.3193  -26.2335  -45.8602 H         1 UNK         0.0600 
    199 H199        0.1369  -27.5325  -45.8095 H         1 UNK         0.0600 
    200 H200       -1.7874  -25.1917  -48.3145 H         1 UNK         0.3000 
    201 H201       -4.1463  -26.9446  -48.0011 H         1 UNK         0.0600 
    202 H202       -3.1293  -25.3356  -50.4057 H         1 UNK         0.0600 
    203 H203       -4.4092  -26.5392  -50.4241 H         1 UNK         0.0600 
    204 H204       -2.7583  -27.0305  -50.0901 H         1 UNK         0.0600 
    205 H205       -3.5076  -23.9112  -46.9634 H         1 UNK         0.3000 
    206 H206       -4.5504  -22.0702  -46.4318 H         1 UNK         0.0600 
    207 H207       -6.3814  -23.4111  -45.5033 H         1 UNK         0.0600 
    208 H208       -7.0277  -21.9554  -46.2405 H         1 UNK         0.0600 
    209 H209       -7.1924  -23.5000  -47.0605 H         1 UNK         0.0600 
    210 H210       -6.8836  -22.8018  -48.9644 H         1 UNK         0.3000 
    211 H211       -7.4994  -21.9851  -50.8870 H         1 UNK         0.0600 
    212 H212       -5.7768  -21.5569  -52.5880 H         1 UNK         0.0600 
    213 H213       -5.2854  -22.9081  -51.5796 H         1 UNK         0.0600 
    214 H214       -4.5502  -21.3217  -51.3564 H         1 UNK         0.0600 
    215 H215       -5.5494  -19.6350  -49.1772 H         1 UNK         0.3000 
    216 H216       -5.6806  -17.4787  -48.7680 H         1 UNK         0.0600 
    217 H217       -7.7739  -16.2092  -48.9758 H         1 UNK         0.0600 
    218 H218       -8.4469  -17.3985  -50.0774 H         1 UNK         0.0600 
    219 H219       -8.1331  -17.8257  -48.3951 H         1 UNK         0.0600 
    220 H220       -4.8953  -18.5934  -51.5959 H         1 UNK         0.3000 
    221 H221       -3.7968  -16.0731  -52.4577 H         1 UNK         0.0600 
    222 H222       -5.9450  -16.0007  -53.7420 H         1 UNK         0.0600 
    223 H223       -5.6674  -17.6336  -54.3428 H         1 UNK         0.0600 
    224 H224       -4.6073  -16.3168  -54.8355 H         1 UNK         0.0600 
    225 H225       -1.7672  -16.4949  -53.2139 H         1 UNK         0.3000 
    226 H226       -0.7053  -19.1543  -53.1162 H         1 UNK         0.0600 
    227 H227        0.5268  -16.5536  -54.1842 H         1 UNK         0.0600 
    228 H228        0.6087  -17.1153  -52.5153 H         1 UNK         0.0600 
    229 H229        1.4061  -18.0259  -53.7881 H         1 UNK         0.0600 
    230 H230       -1.8958  -17.1226  -55.7347 H         1 UNK         0.3000 
    231 H231       -0.7921  -18.5211  -57.9512 H         1 UNK         0.0600 
    232 H232       -3.3274  -16.8060  -57.7368 H         1 UNK         0.0600 
    233 H233       -2.5418  -17.2801  -59.2382 H         1 UNK         0.0600 
    234 H234       -1.7067  -16.2203  -58.1144 H         1 UNK         0.0600 
    235 H235       -3.6858  -19.1081  -55.9914 H         1 UNK         0.3000 
    236 H236       -4.9476  -21.0260  -57.7202 H         1 UNK         0.0600 
    237 H237       -6.3141  -21.5095  -55.6875 H         1 UNK         0.0600 
    238 H238       -5.2213  -20.5444  -54.7057 H         1 UNK         0.0600 
    239 H239       -6.1892  -19.7789  -55.9646 H         1 UNK         0.0600 
    240 H240       -2.2929  -21.2061  -55.4622 H         1 UNK         0.3000 
    241 H241       -2.2507  -24.1553  -55.4066 H         1 UNK         0.0600 
    242 H242        0.0902  -22.8932  -58.3563 H         1 UNK         0.3800 
    243 H243       -1.2988  -21.9974  -57.7981 H         1 UNK         0.3800 
    244 H244       -0.4788  -22.1107  -53.9851 H         1 UNK         0.0800 
    245 H245       -0.3243  -23.8470  -53.8325 H         1 UNK         0.0800 
    246 H246       -0.4516  -23.7063  -51.2910 H         1 UNK         0.0800 
    247 H247       -1.8611  -23.2593  -50.3678 H         1 UNK         0.0800 
@<TRIPOS>BOND
     1    1    2 1    
     2    1  127 1    
     3    1  128 1    
     4    1  129 1    
     5    2    3 2    
     6    2    4 am   BACKBONE|DICT|INTERRES
     7    4    5 1    
     8    4  130 1    
     9    5    6 1    
    10    5   65 1    
    11    5  131 1    
    12    6    7 1    
    13    6  132 1    
    14    6  133 1    
    15    7    8 1    
    16    8    9 1    
    17    8  134 1    
    18    8  135 1    
    19    9   10 ar   
    20    9   14 ar   
    21   10   11 ar   
    22   10  136 1    
    23   11   12 ar   
    24   11  126 1    
    25   12   13 ar   
    26   12  137 1    
    27   13   14 ar   
    28   13   15 1    
    29   14  138 1    
    30   15   16 1    
    31   15  139 1    
    32   15  140 1    
    33   16   17 1    
    34   17   18 1    
    35   17  141 1    
    36   17  142 1    
    37   18   19 1    
    38   18   67 1    
    39   18  143 1    
    40   19   20 am   BACKBONE|DICT|INTERRES
    41   19  144 1    
    42   20   21 2    
    43   20   22 1    
    44   22   23 1    
    45   22   24 1    
    46   22  145 1    
    47   23  146 1    
    48   23  147 1    
    49   23  148 1    
    50   24   25 am   BACKBONE|DICT|INTERRES
    51   24  149 1    
    52   25   26 2    
    53   25   27 1    
    54   27   28 1    
    55   27   29 1    
    56   27  150 1    
    57   28  151 1    
    58   28  152 1    
    59   28  153 1    
    60   29   30 am   BACKBONE|DICT|INTERRES
    61   29  154 1    
    62   30   31 2    
    63   30   32 1    
    64   32   33 1    
    65   32   34 1    
    66   32  155 1    
    67   33  156 1    
    68   33  157 1    
    69   33  158 1    
    70   34   35 am   BACKBONE|DICT|INTERRES
    71   34  159 1    
    72   35   36 2    
    73   35   37 1    
    74   37   38 1    
    75   37   39 1    
    76   37  160 1    
    77   38  161 1    
    78   38  162 1    
    79   38  163 1    
    80   39   40 am   BACKBONE|DICT|INTERRES
    81   39  164 1    
    82   40   41 2    
    83   40   42 1    
    84   42   43 1    
    85   42   44 1    
    86   42  165 1    
    87   43  166 1    
    88   43  167 1    
    89   43  168 1    
    90   44   45 am   BACKBONE|DICT|INTERRES
    91   44  169 1    
    92   45   46 2    
    93   45   47 1    
    94   47   48 1    
    95   47   49 1    
    96   47  170 1    
    97   48  171 1    
    98   48  172 1    
    99   48  173 1    
   100   49   50 am   BACKBONE|DICT|INTERRES
   101   49  174 1    
   102   50   51 2    
   103   50   52 1    
   104   52   53 1    
   105   52   54 1    
   106   52  175 1    
   107   53  176 1    
   108   53  177 1    
   109   53  178 1    
   110   54   55 am   BACKBONE|DICT|INTERRES
   111   54  179 1    
   112   55   56 2    
   113   55   57 1    
   114   57   58 1    
   115   57   59 1    
   116   57  180 1    
   117   58  181 1    
   118   58  182 1    
   119   58  183 1    
   120   59   60 am   BACKBONE|DICT|INTERRES
   121   59  184 1    
   122   60   61 2    
   123   60   62 1    
   124   62   63 1    
   125   62   64 1    
   126   62  185 1    
   127   63  186 1    
   128   63  187 1    
   129   63  188 1    
   130   64   65 am   BACKBONE|DICT|INTERRES
   131   64  189 1    
   132   65   66 2    
   133   67   68 2    
   134   67   69 am   BACKBONE|DICT|INTERRES
   135   69   70 1    
   136   69  190 1    
   137   70   71 1    
   138   70   72 1    
   139   70  191 1    
   140   71  192 1    
   141   71  193 1    
   142   71  194 1    
   143   72   73 2    
   144   72   74 am   BACKBONE|DICT|INTERRES
   145   74   75 1    
   146   74  195 1    
   147   75   76 1    
   148   75   77 1    
   149   75  196 1    
   150   76  197 1    
   151   76  198 1    
   152   76  199 1    
   153   77   78 2    
   154   77   79 am   BACKBONE|DICT|INTERRES
   155   79   80 1    
   156   79  200 1    
   157   80   81 1    
   158   80   82 1    
   159   80  201 1    
   160   81  202 1    
   161   81  203 1    
   162   81  204 1    
   163   82   83 2    
   164   82   84 am   BACKBONE|DICT|INTERRES
   165   84   85 1    
   166   84  205 1    
   167   85   86 1    
   168   85   87 1    
   169   85  206 1    
   170   86  207 1    
   171   86  208 1    
   172   86  209 1    
   173   87   88 2    
   174   87   89 am   BACKBONE|DICT|INTERRES
   175   89   90 1    
   176   89  210 1    
   177   90   91 1    
   178   90   92 1    
   179   90  211 1    
   180   91  212 1    
   181   91  213 1    
   182   91  214 1    
   183   92   93 2    
   184   92   94 am   BACKBONE|DICT|INTERRES
   185   94   95 1    
   186   94  215 1    
   187   95   96 1    
   188   95   97 1    
   189   95  216 1    
   190   96  217 1    
   191   96  218 1    
   192   96  219 1    
   193   97   98 2    
   194   97   99 am   BACKBONE|DICT|INTERRES
   195   99  100 1    
   196   99  220 1    
   197  100  101 1    
   198  100  102 1    
   199  100  221 1    
   200  101  222 1    
   201  101  223 1    
   202  101  224 1    
   203  102  103 2    
   204  102  104 am   BACKBONE|DICT|INTERRES
   205  104  105 1    
   206  104  225 1    
   207  105  106 1    
   208  105  107 1    
   209  105  226 1    
   210  106  227 1    
   211  106  228 1    
   212  106  229 1    
   213  107  108 2    
   214  107  109 am   BACKBONE|DICT|INTERRES
   215  109  110 1    
   216  109  230 1    
   217  110  111 1    
   218  110  112 1    
   219  110  231 1    
   220  111  232 1    
   221  111  233 1    
   222  111  234 1    
   223  112  113 2    
   224  112  114 am   BACKBONE|DICT|INTERRES
   225  114  115 1    
   226  114  235 1    
   227  115  116 1    
   228  115  117 1    
   229  115  236 1    
   230  116  237 1    
   231  116  238 1    
   232  116  239 1    
   233  117  118 2    
   234  117  119 am   BACKBONE|DICT|INTERRES
   235  119  120 1    
   236  119  240 1    
   237  120  121 1    
   238  120  124 1    
   239  120  241 1    
   240  121  122 am   BACKBONE|DICT|INTERRES
   241  121  123 2    
   242  122  242 1    
   243  122  243 1    
   244  124  125 1    
   245  124  244 1    
   246  124  245 1    
   247  125  126 1    
   248  126  246 1    
   249  126  247 1    
@<TRIPOS>SUBSTRUCTURE
     1 UNK         1 GROUP             0       ****    0 ROOT    
