@<TRIPOS>MOLECULE
3R540
247   249    1
SMALL
USER_CHARGES


@<TRIPOS>ATOM
      1 CA         -0.0425  -15.2278  -53.5552 C.3       0 UNK        -0.1800 
      2 C          -1.2244  -14.2587  -53.5644 C.2       0 UNK         0.5000 
      3 O          -1.4561  -13.6084  -54.5819 O.2       0 UNK        -0.5000 
      4 N          -2.0025  -14.1264  -52.4810 N.am      1 UNK        -0.5000 
      5 CA         -1.8325  -14.7676  -51.1709 C.3       1 UNK         0.1400 
      6 C6         -3.0551  -14.5052  -50.2550 C.3       23 UNK        -0.0398 
      7 S7         -4.5141  -15.4633  -50.7881 S.3       23 UNK        -0.2404 
      8 C8         -4.6530  -16.7020  -49.4551 C.3       23 UNK        -0.0205 
      9 C9         -3.3592  -17.4738  -49.2231 C.ar      23 UNK        -0.0193 
     10 C10        -2.7966  -18.2339  -50.2515 C.ar      23 UNK        -0.1150 
     11 C11        -1.5925  -18.9125  -50.0568 C.ar      23 UNK        -0.0193 
     12 C12        -0.9664  -18.8593  -48.8097 C.ar      23 UNK        -0.1150 
     13 C13        -1.5179  -18.1084  -47.7690 C.ar      23 UNK        -0.0193 
     14 C14        -2.7123  -17.4126  -47.9844 C.ar      23 UNK        -0.1150 
     15 C15        -0.7712  -17.9940  -46.4474 C.3       23 UNK        -0.0205 
     16 S16        -1.7988  -18.2931  -44.9735 S.3       23 UNK        -0.2404 
     17 C17        -2.2090  -20.0709  -44.8861 C.3       23 UNK        -0.0398 
     18 CA         -1.5663  -21.0783  -45.8741 C.3       11 UNK         0.1400 
     19 N          -0.1028  -21.1444  -45.8064 N.am      11 UNK        -0.5000 
     20 C           0.6608  -21.9238  -46.5909 C.2       10 UNK         0.5000 
     21 O           0.2227  -22.6195  -47.5064 O.2       10 UNK        -0.5000 
     22 CA          2.1582  -21.9924  -46.2570 C.3       10 UNK         0.1400 
     23 CB          2.9209  -20.8340  -46.9175 C.3       10 UNK        -0.1800 
     24 N           2.3838  -21.9951  -44.8113 N.am      10 UNK        -0.5000 
     25 C           2.1032  -23.0331  -44.0094 C.2       9 UNK         0.5000 
     26 O           1.6714  -24.1112  -44.4171 O.2       9 UNK        -0.5000 
     27 CA          2.2994  -22.8208  -42.4962 C.3       9 UNK         0.1400 
     28 CB          3.7583  -23.0877  -42.0975 C.3       9 UNK        -0.1800 
     29 N           1.9155  -21.4784  -42.0577 N.am      9 UNK        -0.5000 
     30 C           0.6601  -21.0085  -42.0681 C.2       8 UNK         0.5000 
     31 O          -0.3160  -21.6832  -42.3968 O.2       8 UNK        -0.5000 
     32 CA          0.4728  -19.5209  -41.7033 C.3       8 UNK         0.1400 
     33 CB          0.2868  -19.3608  -40.1875 C.3       8 UNK        -0.1800 
     34 N           1.5678  -18.6509  -42.1489 N.am      8 UNK        -0.5000 
     35 C           1.9997  -18.5355  -43.4119 C.2       7 UNK         0.5000 
     36 O           1.5321  -19.1984  -44.3364 O.2       7 UNK        -0.5000 
     37 CA          3.1435  -17.5437  -43.7043 C.3       7 UNK         0.1400 
     38 CB          3.0149  -16.9396  -45.1145 C.3       7 UNK        -0.1800 
     39 N           3.2339  -16.4509  -42.7361 N.am      7 UNK        -0.5000 
     40 C           3.8861  -16.4850  -41.5671 C.2       6 UNK         0.5000 
     41 O           4.4148  -17.5006  -41.1153 O.2       6 UNK        -0.5000 
     42 CA          3.9407  -15.1760  -40.7620 C.3       6 UNK         0.1400 
     43 CB          5.0793  -14.2814  -41.2767 C.3       6 UNK        -0.1800 
     44 N           2.6790  -14.4426  -40.8609 N.am      6 UNK        -0.5000 
     45 C           1.8426  -14.2022  -39.8424 C.2       5 UNK         0.5000 
     46 O           2.0694  -14.5259  -38.6758 O.2       5 UNK        -0.5000 
     47 CA          0.5183  -13.4843  -40.1800 C.3       5 UNK         0.1400 
     48 CB          0.6660  -11.9675  -39.9867 C.3       5 UNK        -0.1800 
     49 N           0.0450  -13.7458  -41.5410 N.am      5 UNK        -0.5000 
     50 C          -0.3337  -14.9460  -42.0004 C.2       4 UNK         0.5000 
     51 O          -0.4183  -15.9479  -41.2910 O.2       4 UNK        -0.5000 
     52 CA         -0.6524  -15.0644  -43.5037 C.3       4 UNK         0.1400 
     53 CB         -2.1730  -15.0323  -43.7210 C.3       4 UNK        -0.1800 
     54 N          -0.0422  -14.0683  -44.3925 N.am      4 UNK        -0.5000 
     55 C           1.2466  -13.7173  -44.4767 C.2       3 UNK         0.5000 
     56 O           2.1159  -14.0999  -43.6921 O.2       3 UNK        -0.5000 
     57 CA          1.6248  -12.8114  -45.6647 C.3       3 UNK         0.1400 
     58 CB          2.9154  -12.0186  -45.3931 C.3       3 UNK        -0.1800 
     59 N           1.7972  -13.5800  -46.9001 N.am      3 UNK        -0.5000 
     60 C           0.8174  -14.1706  -47.5971 C.2       2 UNK         0.5000 
     61 O          -0.3708  -14.1408  -47.2639 O.2       2 UNK        -0.5000 
     62 CA          1.2465  -14.9146  -48.8795 C.3       2 UNK         0.1400 
     63 CB          1.9695  -16.2314  -48.5535 C.3       2 UNK        -0.1800 
     64 N           0.1002  -15.2083  -49.7390 N.am      2 UNK        -0.5000 
     65 C          -0.5448  -14.2921  -50.4707 C.2       1 UNK         0.5000 
     66 O          -0.1755  -13.1205  -50.5883 O.2       1 UNK        -0.5000 
     67 C          -2.1772  -22.4714  -45.6233 C.2       11 UNK         0.5000 
     68 O          -2.9988  -22.9214  -46.4188 O.2       11 UNK        -0.5000 
     69 N          -1.7385  -23.1368  -44.5443 N.am      12 UNK        -0.5000 
     70 CA         -2.1768  -24.4776  -44.1580 C.3       12 UNK         0.1400 
     71 CB         -1.5815  -24.8352  -42.7878 C.3       12 UNK        -0.1800 
     72 C          -1.8319  -25.5539  -45.2034 C.2       12 UNK         0.5000 
     73 O          -2.6793  -26.3954  -45.5028 O.2       12 UNK        -0.5000 
     74 N          -0.6111  -25.4951  -45.7540 N.am      13 UNK        -0.5000 
     75 CA         -0.1232  -26.4126  -46.7847 C.3       13 UNK         0.1400 
     76 CB          1.3862  -26.2056  -46.9820 C.3       13 UNK        -0.1800 
     77 C          -0.8685  -26.2702  -48.1246 C.2       13 UNK         0.5000 
     78 O          -1.2091  -27.2812  -48.7400 O.2       13 UNK        -0.5000 
     79 N          -1.1092  -25.0236  -48.5501 N.am      14 UNK        -0.5000 
     80 CA         -1.7757  -24.6976  -49.8123 C.3       14 UNK         0.1400 
     81 CB         -1.3305  -23.2924  -50.2407 C.3       14 UNK        -0.1800 
     82 C          -3.3136  -24.7616  -49.7352 C.2       14 UNK         0.5000 
     83 O          -3.9647  -24.7476  -50.7797 O.2       14 UNK        -0.5000 
     84 N          -3.8624  -24.7828  -48.5113 N.am      15 UNK        -0.5000 
     85 CA         -5.2768  -24.5870  -48.1701 C.3       15 UNK         0.1400 
     86 CB         -6.1537  -25.7464  -48.6859 C.3       15 UNK        -0.1800 
     87 C          -5.7788  -23.1806  -48.5719 C.2       15 UNK         0.5000 
     88 O          -6.9205  -23.0174  -49.0071 O.2       15 UNK        -0.5000 
     89 N          -4.8876  -22.1932  -48.3981 N.am      16 UNK        -0.5000 
     90 CA         -5.0357  -20.7574  -48.6277 C.3       16 UNK         0.1400 
     91 CB         -5.7380  -20.1140  -47.4134 C.3       16 UNK        -0.1800 
     92 C          -5.6929  -20.4252  -49.9829 C.2       16 UNK         0.5000 
     93 O          -5.0805  -20.6469  -51.0294 O.2       16 UNK        -0.5000 
     94 N          -6.9300  -19.9135  -49.9395 N.am      17 UNK        -0.5000 
     95 CA         -7.7359  -19.4832  -51.0823 C.3       17 UNK         0.1400 
     96 CB         -8.9974  -18.7824  -50.5556 C.3       17 UNK        -0.1800 
     97 C          -8.1091  -20.6003  -52.0780 C.2       17 UNK         0.5000 
     98 O          -8.5308  -20.2813  -53.1900 O.2       17 UNK        -0.5000 
     99 N          -7.9378  -21.8759  -51.6957 N.am      18 UNK        -0.5000 
    100 CA        -8.0638  -23.0195  -52.6034 C.3       18 UNK         0.1400 
    101 CB        -8.0288  -24.3250  -51.7988 C.3       18 UNK        -0.1800 
    102 C         -6.9662  -23.0265  -53.6860 C.2       18 UNK         0.5000 
    103 O         -7.2400  -23.4139  -54.8227 O.2       18 UNK        -0.5000 
    104 N         -5.7609  -22.5692  -53.3205 N.am      19 UNK        -0.5000 
    105 CA        -4.6663  -22.2981  -54.2475 C.3       19 UNK         0.1400 
    106 CB        -3.3246  -22.5784  -53.5544 C.3       19 UNK        -0.1800 
    107 C         -4.7289  -20.8401  -54.7251 C.2       19 UNK         0.5000 
    108 O         -4.6557  -20.5912  -55.9294 O.2       19 UNK        -0.5000 
    109 N         -4.8689  -19.9128  -53.7640 N.am      20 UNK        -0.5000 
    110 CA        -4.8562  -18.4518  -53.8836 C.3       20 UNK         0.1400 
    111 CB        -6.0146  -17.9328  -54.7569 C.3       20 UNK        -0.1800 
    112 C         -3.4914  -17.9068  -54.3407 C.2       20 UNK         0.5000 
    113 O         -2.8323  -17.2075  -53.5754 O.2       20 UNK        -0.5000 
    114 N         -3.0773  -18.2583  -55.5616 N.am      21 UNK        -0.5000 
    115 CA        -1.7516  -17.9784  -56.0976 C.3       21 UNK         0.1400 
    116 CB        -1.8110  -18.0156  -57.6320 C.3       21 UNK        -0.1800 
    117 C         -0.7466  -19.0111  -55.5614 C.2       21 UNK         0.5000 
    118 O         -1.0024  -20.2144  -55.6473 O.2       21 UNK        -0.5000 
    119 N          0.3789  -18.5243  -55.0355 N.am      22 UNK        -0.5000 
    120 CA         1.4643  -19.3335  -54.4601 C.3       22 UNK         0.1400 
    121 C          2.8372  -18.5980  -54.4419 C.2       22 UNK         0.5000 
    122 N          3.0213  -17.5148  -55.1895 N.am      22 UNK        -0.7600 
    123 O          3.7667  -19.0238  -53.7619 O.2       22 UNK        -0.5000 
    124 C124        1.0826  -19.9862  -53.1004 C.3       23 UNK        -0.0398 
    125 S125        0.5050  -18.7985  -51.8378 S.3       23 UNK        -0.2404 
    126 C126       -0.9501  -19.6810  -51.1970 C.3       23 UNK        -0.0205 
    127 H127       -0.3130  -16.1835  -53.1089 H         1 UNK         0.0600 
    128 H128        0.7981  -14.8066  -53.0045 H         1 UNK         0.0600 
    129 H129        0.2934  -15.4218  -54.5733 H         1 UNK         0.0600 
    130 H130       -2.7781  -13.4835  -52.5337 H         1 UNK         0.3000 
    131 H131       -1.7469  -15.8431  -51.3347 H         1 UNK         0.0600 
    132 H132       -2.8337  -14.7510  -49.2145 H         1 UNK         0.0800 
    133 H133       -3.3140  -13.4451  -50.2528 H         1 UNK         0.0800 
    134 H134       -4.9716  -16.1989  -48.5408 H         1 UNK         0.0800 
    135 H135       -5.4479  -17.4019  -49.7117 H         1 UNK         0.0800 
    136 H136       -3.2860  -18.2747  -51.2129 H         1 UNK         0.1150 
    137 H137       -0.0311  -19.3816  -48.6628 H         1 UNK         0.1150 
    138 H138       -3.1288  -16.8126  -47.1876 H         1 UNK         0.1150 
    139 H139        0.1119  -18.6295  -46.4327 H         1 UNK         0.0800 
    140 H140       -0.3967  -16.9730  -46.3702 H         1 UNK         0.0800 
    141 H141       -2.0076  -20.3752  -43.8592 H         1 UNK         0.0800 
    142 H142       -3.2947  -20.1181  -44.9846 H         1 UNK         0.0800 
    143 H143       -1.8381  -20.7861  -46.8893 H         1 UNK         0.0600 
    144 H144        0.3533  -20.5654  -45.1075 H         1 UNK         0.3000 
    145 H145        2.5517  -22.9264  -46.6634 H         1 UNK         0.0600 
    146 H146        3.9785  -20.8532  -46.6546 H         1 UNK         0.0600 
    147 H147        2.8538  -20.9001  -48.0042 H         1 UNK         0.0600 
    148 H148        2.5187  -19.8637  -46.6307 H         1 UNK         0.0600 
    149 H149        2.6371  -21.1099  -44.3953 H         1 UNK         0.3000 
    150 H150        1.6661  -23.5419  -41.9751 H         1 UNK         0.0600 
    151 H151        4.0666  -24.0905  -42.3962 H         1 UNK         0.0600 
    152 H152        3.8913  -23.0162  -41.0179 H         1 UNK         0.0600 
    153 H153        4.4417  -22.3799  -42.5683 H         1 UNK         0.0600 
    154 H154        2.6590  -20.8564  -41.7762 H         1 UNK         0.3000 
    155 H155       -0.4369  -19.1744  -42.1974 H         1 UNK         0.0600 
    156 H156       -0.5374  -19.9781  -39.8275 H         1 UNK         0.0600 
    157 H157        0.0556  -18.3283  -39.9253 H         1 UNK         0.0600 
    158 H158        1.1825  -19.6540  -39.6387 H         1 UNK         0.0600 
    159 H159        2.0075  -18.0770  -41.4445 H         1 UNK         0.3000 
    160 H160        4.0735  -18.1146  -43.6727 H         1 UNK         0.0600 
    161 H161        2.0373  -16.4820  -45.2675 H         1 UNK         0.0600 
    162 H162        3.1397  -17.7032  -45.8819 H         1 UNK         0.0600 
    163 H163        3.7743  -16.1782  -45.2936 H         1 UNK         0.0600 
    164 H164        2.8233  -15.5702  -43.0393 H         1 UNK         0.3000 
    165 H165        4.1565  -15.4380  -39.7243 H         1 UNK         0.0600 
    166 H166        4.9192  -13.9809  -42.3133 H         1 UNK         0.0600 
    167 H167        5.1678  -13.3757  -40.6766 H         1 UNK         0.0600 
    168 H168        6.0377  -14.7997  -41.2273 H         1 UNK         0.0600 
    169 H169        2.3980  -14.1562  -41.7939 H         1 UNK         0.3000 
    170 H170       -0.2406  -13.8473  -39.4838 H         1 UNK         0.0600 
    171 H171       -0.2825  -11.4545  -40.1471 H         1 UNK         0.0600 
    172 H172        0.9935  -11.7330  -38.9730 H         1 UNK         0.0600 
    173 H173        1.3989  -11.5439  -40.6748 H         1 UNK         0.0600 
    174 H174        0.0868  -12.9776  -42.1940 H         1 UNK         0.3000 
    175 H175       -0.2762  -16.0373  -43.8232 H         1 UNK         0.0600 
    176 H176       -2.4271  -15.2284  -44.7631 H         1 UNK         0.0600 
    177 H177       -2.6721  -15.7932  -43.1192 H         1 UNK         0.0600 
    178 H178       -2.5970  -14.0653  -43.4479 H         1 UNK         0.0600 
    179 H179       -0.6353  -13.7563  -45.1522 H         1 UNK         0.3000 
    180 H180        0.8160  -12.0924  -45.8114 H         1 UNK         0.0600 
    181 H181        3.7795  -12.6755  -45.2843 H         1 UNK         0.0600 
    182 H182        2.8296  -11.4355  -44.4752 H         1 UNK         0.0600 
    183 H183        3.1261  -11.3192  -46.2023 H         1 UNK         0.0600 
    184 H184        2.7473  -13.6720  -47.2287 H         1 UNK         0.3000 
    185 H185        1.9364  -14.2717  -49.4302 H         1 UNK         0.0600 
    186 H186        2.2720  -16.7491  -49.4643 H         1 UNK         0.0600 
    187 H187        2.8736  -16.0509  -47.9717 H         1 UNK         0.0600 
    188 H188        1.3414  -16.9115  -47.9813 H         1 UNK         0.0600 
    189 H189       -0.2848  -16.1394  -49.6635 H         1 UNK         0.3000 
    190 H190       -1.0803  -22.6799  -43.9198 H         1 UNK         0.3000 
    191 H191       -3.2638  -24.4517  -44.0582 H         1 UNK         0.0600 
    192 H192       -1.9115  -25.8229  -42.4635 H         1 UNK         0.0600 
    193 H193       -1.8926  -24.1213  -42.0249 H         1 UNK         0.0600 
    194 H194       -0.4915  -24.8437  -42.8114 H         1 UNK         0.0600 
    195 H195        0.0474  -24.8011  -45.4149 H         1 UNK         0.3000 
    196 H196       -0.2794  -27.4320  -46.4256 H         1 UNK         0.0600 
    197 H197        1.7792  -26.8855  -47.7389 H         1 UNK         0.0600 
    198 H198        1.9338  -26.3957  -46.0589 H         1 UNK         0.0600 
    199 H199        1.6139  -25.1886  -47.3027 H         1 UNK         0.0600 
    200 H200       -0.7585  -24.2375  -48.0087 H         1 UNK         0.3000 
    201 H201       -1.4522  -25.4047  -50.5790 H         1 UNK         0.0600 
    202 H202       -0.2440  -23.2190  -50.2919 H         1 UNK         0.0600 
    203 H203       -1.6864  -22.5302  -49.5456 H         1 UNK         0.0600 
    204 H204       -1.7161  -23.0448  -51.2280 H         1 UNK         0.0600 
    205 H205       -3.2269  -24.7490  -47.7241 H         1 UNK         0.3000 
    206 H206       -5.3257  -24.6106  -47.0805 H         1 UNK         0.0600 
    207 H207       -5.8223  -26.6974  -48.2693 H         1 UNK         0.0600 
    208 H208       -7.1958  -25.6118  -48.3941 H         1 UNK         0.0600 
    209 H209       -6.1259  -25.8354  -49.7704 H         1 UNK         0.0600 
    210 H210       -4.0094  -22.4684  -47.9683 H         1 UNK         0.3000 
    211 H211       -4.0238  -20.3537  -48.6739 H         1 UNK         0.0600 
    212 H212       -6.7387  -20.5180  -47.2554 H         1 UNK         0.0600 
    213 H213       -5.8212  -19.0326  -47.5296 H         1 UNK         0.0600 
    214 H214       -5.1691  -20.2914  -46.5013 H         1 UNK         0.0600 
    215 H215       -7.3634  -19.8142  -49.0332 H         1 UNK         0.3000 
    216 H216       -7.1481  -18.7495  -51.6370 H         1 UNK         0.0600 
    217 H217       -9.6164  -19.4604  -49.9668 H         1 UNK         0.0600 
    218 H218       -8.7420  -17.9280  -49.9285 H         1 UNK         0.0600 
    219 H219       -9.6102  -18.4075  -51.3766 H         1 UNK         0.0600 
    220 H220       -7.6031  -22.0728  -50.7579 H         1 UNK         0.3000 
    221 H221       -9.0326  -22.9516  -53.1027 H         1 UNK         0.0600 
    222 H222       -8.7812  -24.3297  -51.0101 H         1 UNK         0.0600 
    223 H223       -8.2203  -25.1850  -52.4416 H         1 UNK         0.0600 
    224 H224       -7.0533  -24.4730  -51.3370 H         1 UNK         0.0600 
    225 H225       -5.6333  -22.2471  -52.3688 H         1 UNK         0.3000 
    226 H226       -4.7395  -22.9508  -55.1200 H         1 UNK         0.0600 
    227 H227       -3.1985  -21.9655  -52.6616 H         1 UNK         0.0600 
    228 H228       -3.2473  -23.6242  -53.2573 H         1 UNK         0.0600 
    229 H229       -2.4875  -22.3644  -54.2205 H         1 UNK         0.0600 
    230 H230       -4.8992  -20.2466  -52.8026 H         1 UNK         0.3000 
    231 H231       -5.0227  -18.0721  -52.8744 H         1 UNK         0.0600 
    232 H232       -6.0307  -16.8424  -54.7673 H         1 UNK         0.0600 
    233 H233       -6.9770  -18.2677  -54.3708 H         1 UNK         0.0600 
    234 H234       -5.9369  -18.2662  -55.7916 H         1 UNK         0.0600 
    235 H235       -3.6350  -18.9467  -56.0583 H         1 UNK         0.3000 
    236 H236       -1.4464  -16.9754  -55.7918 H         1 UNK         0.0600 
    237 H237       -2.5076  -17.2706  -58.0170 H         1 UNK         0.0600 
    238 H238       -0.8332  -17.8024  -58.0655 H         1 UNK         0.0600 
    239 H239       -2.1285  -18.9925  -57.9995 H         1 UNK         0.0600 
    240 H240        0.5014  -17.5267  -54.9572 H         1 UNK         0.3000 
    241 H241        1.6374  -20.1556  -55.1570 H         1 UNK         0.0600 
    242 H242        3.9206  -17.0593  -55.1671 H         1 UNK         0.3800 
    243 H243        2.3229  -17.1906  -55.8376 H         1 UNK         0.3800 
    244 H244        0.3008  -20.7265  -53.2734 H         1 UNK         0.0800 
    245 H245        1.9198  -20.5513  -52.6881 H         1 UNK         0.0800 
    246 H246       -0.6434  -20.6641  -50.8423 H         1 UNK         0.0800 
    247 H247       -1.6651  -19.8420  -52.0059 H         1 UNK         0.0800 
@<TRIPOS>BOND
     1    1    2 1    
     2    1  127 1    
     3    1  128 1    
     4    1  129 1    
     5    2    3 2    
     6    2    4 am   BACKBONE|DICT|INTERRES
     7    4    5 1    
     8    4  130 1    
     9    5    6 1    
    10    5   65 1    
    11    5  131 1    
    12    6    7 1    
    13    6  132 1    
    14    6  133 1    
    15    7    8 1    
    16    8    9 1    
    17    8  134 1    
    18    8  135 1    
    19    9   10 ar   
    20    9   14 ar   
    21   10   11 ar   
    22   10  136 1    
    23   11   12 ar   
    24   11  126 1    
    25   12   13 ar   
    26   12  137 1    
    27   13   14 ar   
    28   13   15 1    
    29   14  138 1    
    30   15   16 1    
    31   15  139 1    
    32   15  140 1    
    33   16   17 1    
    34   17   18 1    
    35   17  141 1    
    36   17  142 1    
    37   18   19 1    
    38   18   67 1    
    39   18  143 1    
    40   19   20 am   BACKBONE|DICT|INTERRES
    41   19  144 1    
    42   20   21 2    
    43   20   22 1    
    44   22   23 1    
    45   22   24 1    
    46   22  145 1    
    47   23  146 1    
    48   23  147 1    
    49   23  148 1    
    50   24   25 am   BACKBONE|DICT|INTERRES
    51   24  149 1    
    52   25   26 2    
    53   25   27 1    
    54   27   28 1    
    55   27   29 1    
    56   27  150 1    
    57   28  151 1    
    58   28  152 1    
    59   28  153 1    
    60   29   30 am   BACKBONE|DICT|INTERRES
    61   29  154 1    
    62   30   31 2    
    63   30   32 1    
    64   32   33 1    
    65   32   34 1    
    66   32  155 1    
    67   33  156 1    
    68   33  157 1    
    69   33  158 1    
    70   34   35 am   BACKBONE|DICT|INTERRES
    71   34  159 1    
    72   35   36 2    
    73   35   37 1    
    74   37   38 1    
    75   37   39 1    
    76   37  160 1    
    77   38  161 1    
    78   38  162 1    
    79   38  163 1    
    80   39   40 am   BACKBONE|DICT|INTERRES
    81   39  164 1    
    82   40   41 2    
    83   40   42 1    
    84   42   43 1    
    85   42   44 1    
    86   42  165 1    
    87   43  166 1    
    88   43  167 1    
    89   43  168 1    
    90   44   45 am   BACKBONE|DICT|INTERRES
    91   44  169 1    
    92   45   46 2    
    93   45   47 1    
    94   47   48 1    
    95   47   49 1    
    96   47  170 1    
    97   48  171 1    
    98   48  172 1    
    99   48  173 1    
   100   49   50 am   BACKBONE|DICT|INTERRES
   101   49  174 1    
   102   50   51 2    
   103   50   52 1    
   104   52   53 1    
   105   52   54 1    
   106   52  175 1    
   107   53  176 1    
   108   53  177 1    
   109   53  178 1    
   110   54   55 am   BACKBONE|DICT|INTERRES
   111   54  179 1    
   112   55   56 2    
   113   55   57 1    
   114   57   58 1    
   115   57   59 1    
   116   57  180 1    
   117   58  181 1    
   118   58  182 1    
   119   58  183 1    
   120   59   60 am   BACKBONE|DICT|INTERRES
   121   59  184 1    
   122   60   61 2    
   123   60   62 1    
   124   62   63 1    
   125   62   64 1    
   126   62  185 1    
   127   63  186 1    
   128   63  187 1    
   129   63  188 1    
   130   64   65 am   BACKBONE|DICT|INTERRES
   131   64  189 1    
   132   65   66 2    
   133   67   68 2    
   134   67   69 am   BACKBONE|DICT|INTERRES
   135   69   70 1    
   136   69  190 1    
   137   70   71 1    
   138   70   72 1    
   139   70  191 1    
   140   71  192 1    
   141   71  193 1    
   142   71  194 1    
   143   72   73 2    
   144   72   74 am   BACKBONE|DICT|INTERRES
   145   74   75 1    
   146   74  195 1    
   147   75   76 1    
   148   75   77 1    
   149   75  196 1    
   150   76  197 1    
   151   76  198 1    
   152   76  199 1    
   153   77   78 2    
   154   77   79 am   BACKBONE|DICT|INTERRES
   155   79   80 1    
   156   79  200 1    
   157   80   81 1    
   158   80   82 1    
   159   80  201 1    
   160   81  202 1    
   161   81  203 1    
   162   81  204 1    
   163   82   83 2    
   164   82   84 am   BACKBONE|DICT|INTERRES
   165   84   85 1    
   166   84  205 1    
   167   85   86 1    
   168   85   87 1    
   169   85  206 1    
   170   86  207 1    
   171   86  208 1    
   172   86  209 1    
   173   87   88 2    
   174   87   89 am   BACKBONE|DICT|INTERRES
   175   89   90 1    
   176   89  210 1    
   177   90   91 1    
   178   90   92 1    
   179   90  211 1    
   180   91  212 1    
   181   91  213 1    
   182   91  214 1    
   183   92   93 2    
   184   92   94 am   BACKBONE|DICT|INTERRES
   185   94   95 1    
   186   94  215 1    
   187   95   96 1    
   188   95   97 1    
   189   95  216 1    
   190   96  217 1    
   191   96  218 1    
   192   96  219 1    
   193   97   98 2    
   194   97   99 am   BACKBONE|DICT|INTERRES
   195   99  100 1    
   196   99  220 1    
   197  100  101 1    
   198  100  102 1    
   199  100  221 1    
   200  101  222 1    
   201  101  223 1    
   202  101  224 1    
   203  102  103 2    
   204  102  104 am   BACKBONE|DICT|INTERRES
   205  104  105 1    
   206  104  225 1    
   207  105  106 1    
   208  105  107 1    
   209  105  226 1    
   210  106  227 1    
   211  106  228 1    
   212  106  229 1    
   213  107  108 2    
   214  107  109 am   BACKBONE|DICT|INTERRES
   215  109  110 1    
   216  109  230 1    
   217  110  111 1    
   218  110  112 1    
   219  110  231 1    
   220  111  232 1    
   221  111  233 1    
   222  111  234 1    
   223  112  113 2    
   224  112  114 am   BACKBONE|DICT|INTERRES
   225  114  115 1    
   226  114  235 1    
   227  115  116 1    
   228  115  117 1    
   229  115  236 1    
   230  116  237 1    
   231  116  238 1    
   232  116  239 1    
   233  117  118 2    
   234  117  119 am   BACKBONE|DICT|INTERRES
   235  119  120 1    
   236  119  240 1    
   237  120  121 1    
   238  120  124 1    
   239  120  241 1    
   240  121  122 am   BACKBONE|DICT|INTERRES
   241  121  123 2    
   242  122  242 1    
   243  122  243 1    
   244  124  125 1    
   245  124  244 1    
   246  124  245 1    
   247  125  126 1    
   248  126  246 1    
   249  126  247 1    
@<TRIPOS>SUBSTRUCTURE
     1 UNK         1 GROUP             0       ****    0 ROOT    
