@<TRIPOS>MOLECULE
3R540
247   249    1
SMALL
USER_CHARGES


@<TRIPOS>ATOM
      1 CA          5.8271  -12.4994  -50.7135 C.3       0 UNK        -0.1800 
      2 C           5.1132  -11.7440  -49.5940 C.2       0 UNK         0.5000 
      3 O           5.0441  -10.5183  -49.6575 O.2       0 UNK        -0.5000 
      4 N           4.5806  -12.4087  -48.5615 N.am      1 UNK        -0.5000 
      5 CA          4.5431  -13.8570  -48.3438 C.3       1 UNK         0.1400 
      6 C6          3.6764  -14.6458  -49.3707 C.3       23 UNK        -0.0398 
      7 S7          2.0298  -13.9307  -49.7374 S.3       23 UNK        -0.2404 
      8 C8          0.9172  -14.8617  -48.6357 C.3       23 UNK        -0.0205 
      9 C9          0.7395  -16.3111  -49.0596 C.ar      23 UNK        -0.0193 
     10 C10        -0.1769  -16.6492  -50.0596 C.ar      23 UNK        -0.1150 
     11 C11        -0.3888  -17.9882  -50.4099 C.ar      23 UNK        -0.0193 
     12 C12         0.3316  -18.9893  -49.7521 C.ar      23 UNK        -0.1150 
     13 C13         1.2693  -18.6598  -48.7696 C.ar      23 UNK        -0.0193 
     14 C14         1.4674  -17.3212  -48.4279 C.ar      23 UNK        -0.1150 
     15 C15         2.0911  -19.7457  -48.0997 C.3       23 UNK        -0.0205 
     16 S16         1.6204  -19.9781  -46.3586 S.3       23 UNK        -0.2404 
     17 C17         2.3919  -21.6076  -46.0541 C.3       23 UNK        -0.0398 
     18 CA          1.4675  -22.8612  -46.0936 C.3       11 UNK         0.1400 
     19 N           1.0600  -23.2997  -44.7565 N.am      11 UNK        -0.5000 
     20 C           0.6974  -24.5563  -44.4614 C.2       10 UNK         0.5000 
     21 O           0.6667  -25.4685  -45.2882 O.2       10 UNK        -0.5000 
     22 CA          0.2805  -24.8360  -43.0063 C.3       10 UNK         0.1400 
     23 CB          1.5157  -25.0953  -42.1309 C.3       10 UNK        -0.1800 
     24 N          -0.5058  -23.7480  -42.4247 N.am      10 UNK        -0.5000 
     25 C          -1.7567  -23.4444  -42.7961 C.2       9 UNK         0.5000 
     26 O          -2.3814  -24.0582  -43.6616 O.2       9 UNK        -0.5000 
     27 CA         -2.3969  -22.2166  -42.1186 C.3       9 UNK         0.1400 
     28 CB         -2.9786  -22.5962  -40.7486 C.3       9 UNK        -0.1800 
     29 N          -1.4879  -21.0730  -41.9641 N.am      9 UNK        -0.5000 
     30 C          -0.8523  -20.4735  -42.9788 C.2       8 UNK         0.5000 
     31 O          -0.8837  -20.8907  -44.1367 O.2       8 UNK        -0.5000 
     32 CA         -0.0140  -19.2256  -42.6575 C.3       8 UNK         0.1400 
     33 CB          1.4219  -19.6243  -42.2846 C.3       8 UNK        -0.1800 
     34 N           0.0299  -18.3640  -43.8364 N.am      8 UNK        -0.5000 
     35 C          -0.9477  -17.5246  -44.1918 C.2       7 UNK         0.5000 
     36 O          -1.9077  -17.2386  -43.4712 O.2       7 UNK        -0.5000 
     37 CA         -0.8555  -16.9440  -45.6140 C.3       7 UNK         0.1400 
     38 CB         -1.7129  -17.7644  -46.5895 C.3       7 UNK        -0.1800 
     39 N          -1.2794  -15.5459  -45.6586 N.am      7 UNK        -0.5000 
     40 C          -0.5787  -14.5388  -45.1266 C.2       6 UNK         0.5000 
     41 O           0.5103  -14.6845  -44.5692 O.2       6 UNK        -0.5000 
     42 CA         -1.2022  -13.1403  -45.2180 C.3       6 UNK         0.1400 
     43 CB         -1.8570  -12.7552  -43.8826 C.3       6 UNK        -0.1800 
     44 N          -0.1545  -12.1722  -45.5292 N.am      6 UNK        -0.5000 
     45 C           0.0527  -11.6361  -46.7401 C.2       5 UNK         0.5000 
     46 O          -0.6808  -11.8553  -47.7052 O.2       5 UNK        -0.5000 
     47 CA          1.2553  -10.6888  -46.9226 C.3       5 UNK         0.1400 
     48 CB          0.8350   -9.3414  -47.5376 C.3       5 UNK        -0.1800 
     49 N           1.9689  -10.4457  -45.6702 N.am      5 UNK        -0.5000 
     50 C           3.2891  -10.2821  -45.5518 C.2       4 UNK         0.5000 
     51 O           4.0662  -10.2545  -46.5054 O.2       4 UNK        -0.5000 
     52 CA          3.8460  -10.1562  -44.1224 C.3       4 UNK         0.1400 
     53 CB          3.2555   -8.9489  -43.3656 C.3       4 UNK        -0.1800 
     54 N           3.7175  -11.4012  -43.3583 N.am      4 UNK        -0.5000 
     55 C           2.6040  -12.0171  -42.9397 C.2       3 UNK         0.5000 
     56 O           1.4636  -11.5786  -43.1096 O.2       3 UNK        -0.5000 
     57 CA          2.8201  -13.3827  -42.2651 C.3       3 UNK         0.1400 
     58 CB          1.6101  -13.8353  -41.4284 C.3       3 UNK        -0.1800 
     59 N           3.1028  -14.3903  -43.2837 N.am      3 UNK        -0.5000 
     60 C           4.3035  -14.6118  -43.8347 C.2       2 UNK         0.5000 
     61 O           5.3223  -14.0019  -43.5020 O.2       2 UNK        -0.5000 
     62 CA          4.4063  -15.6891  -44.9375 C.3       2 UNK         0.1400 
     63 CB          3.1965  -16.6421  -45.0172 C.3       2 UNK        -0.1800 
     64 N           4.7042  -15.1444  -46.2684 N.am      2 UNK        -0.5000 
     65 C           4.0892  -14.1313  -46.8992 C.2       1 UNK         0.5000 
     66 O           3.1879  -13.4501  -46.4104 O.2       1 UNK        -0.5000 
     67 C           0.2507  -22.7744  -47.0427 C.2       11 UNK         0.5000 
     68 O           0.3594  -23.1665  -48.2037 O.2       11 UNK        -0.5000 
     69 N          -0.8983  -22.3252  -46.5168 N.am      12 UNK        -0.5000 
     70 CA         -2.1883  -22.3124  -47.2003 C.3       12 UNK         0.1400 
     71 CB         -3.2327  -21.5914  -46.3370 C.3       12 UNK        -0.1800 
     72 C          -2.6631  -23.7301  -47.5511 C.2       12 UNK         0.5000 
     73 O          -3.1089  -23.9497  -48.6750 O.2       12 UNK        -0.5000 
     74 N          -2.5127  -24.6765  -46.6122 N.am      13 UNK        -0.5000 
     75 CA         -2.7985  -26.0966  -46.8225 C.3       13 UNK         0.1400 
     76 CB         -2.6761  -26.8589  -45.4951 C.3       13 UNK        -0.1800 
     77 C          -1.9056  -26.7267  -47.9077 C.2       13 UNK         0.5000 
     78 O          -2.4168  -27.4537  -48.7595 O.2       13 UNK        -0.5000 
     79 N          -0.6059  -26.3939  -47.8989 N.am      14 UNK        -0.5000 
     80 CA          0.3620  -26.8032  -48.9220 C.3       14 UNK         0.1400 
     81 CB          1.7805  -26.4277  -48.4683 C.3       14 UNK        -0.1800 
     82 C           0.0555  -26.2156  -50.3157 C.2       14 UNK         0.5000 
     83 O           0.2530  -26.8993  -51.3204 O.2       14 UNK        -0.5000 
     84 N          -0.4617  -24.9801  -50.3483 N.am      15 UNK        -0.5000 
     85 CA         -0.9437  -24.2874  -51.5467 C.3       15 UNK         0.1400 
     86 CB         -0.9444  -22.7734  -51.2722 C.3       15 UNK        -0.1800 
     87 C          -2.3378  -24.7597  -52.0198 C.2       15 UNK         0.5000 
     88 O          -2.8101  -24.2837  -53.0524 O.2       15 UNK        -0.5000 
     89 N          -2.9735  -25.6681  -51.2639 N.am      16 UNK        -0.5000 
     90 CA         -4.3136  -26.2261  -51.4685 C.3       16 UNK         0.1400 
     91 CB         -4.3794  -27.0718  -52.7574 C.3       16 UNK        -0.1800 
     92 C          -5.4417  -25.1790  -51.3417 C.2       16 UNK         0.5000 
     93 O          -6.4691  -25.2906  -52.0140 O.2       16 UNK        -0.5000 
     94 N          -5.2306  -24.2046  -50.4436 N.am      17 UNK        -0.5000 
     95 CA         -6.1525  -23.1798  -49.9532 C.3       17 UNK         0.1400 
     96 CB         -7.0878  -23.7946  -48.8915 C.3       17 UNK        -0.1800 
     97 C          -6.8988  -22.4366  -51.0752 C.2       17 UNK         0.5000 
     98 O          -6.3274  -21.5342  -51.6897 O.2       17 UNK        -0.5000 
     99 N          -8.1541  -22.8313  -51.3264 N.am      18 UNK        -0.5000 
    100 CA        -9.0529  -22.2785  -52.3398 C.3       18 UNK         0.1400 
    101 CB       -10.4230  -22.9609  -52.2130 C.3       18 UNK        -0.1800 
    102 C         -8.5298  -22.3860  -53.7852 C.2       18 UNK         0.5000 
    103 O         -8.9323  -21.5780  -54.6217 O.2       18 UNK        -0.5000 
    104 N         -7.6225  -23.3377  -54.0521 N.am      19 UNK        -0.5000 
    105 CA        -6.9379  -23.4855  -55.3393 C.3       19 UNK         0.1400 
    106 CB        -6.1508  -24.8025  -55.3463 C.3       19 UNK        -0.1800 
    107 C         -5.9998  -22.3038  -55.6569 C.2       19 UNK         0.5000 
    108 O         -5.8801  -21.9203  -56.8210 O.2       19 UNK        -0.5000 
    109 N         -5.3733  -21.7401  -54.6156 N.am      20 UNK        -0.5000 
    110 CA        -4.5171  -20.5550  -54.6928 C.3       20 UNK         0.1400 
    111 CB        -3.3246  -20.7609  -53.7463 C.3       20 UNK        -0.1800 
    112 C         -5.2738  -19.2630  -54.3249 C.2       20 UNK         0.5000 
    113 O         -4.7342  -18.1749  -54.5250 O.2       20 UNK        -0.5000 
    114 N         -6.4909  -19.4119  -53.7800 N.am      21 UNK        -0.5000 
    115 CA        -7.3304  -18.3895  -53.1467 C.3       21 UNK         0.1400 
    116 CB        -7.7437  -17.2926  -54.1500 C.3       21 UNK        -0.1800 
    117 C         -6.6944  -17.8359  -51.8521 C.2       21 UNK         0.5000 
    118 O         -6.8384  -16.6500  -51.5492 O.2       21 UNK        -0.5000 
    119 N         -6.0069  -18.7175  -51.1145 N.am      22 UNK        -0.5000 
    120 CA        -5.2585  -18.4179  -49.8807 C.3       22 UNK         0.1400 
    121 C         -5.8386  -19.1332  -48.6266 C.2       22 UNK         0.5000 
    122 N         -6.9908  -19.7887  -48.7053 N.am      22 UNK        -0.7600 
    123 O         -5.2500  -19.0719  -47.5520 O.2       22 UNK        -0.5000 
    124 C124       -3.7407  -18.6971  -50.0550 C.3       23 UNK        -0.0398 
    125 S125       -3.0049  -17.6281  -51.3363 S.3       23 UNK        -0.2404 
    126 C126       -1.3493  -18.3576  -51.5336 C.3       23 UNK        -0.0205 
    127 H127        5.1086  -12.8270  -51.4646 H         1 UNK         0.0600 
    128 H128        6.5470  -11.8458  -51.2066 H         1 UNK         0.0600 
    129 H129        6.3773  -13.3654  -50.3487 H         1 UNK         0.0600 
    130 H130        4.1516  -11.8731  -47.8117 H         1 UNK         0.3000 
    131 H131        5.5699  -14.2194  -48.4165 H         1 UNK         0.0600 
    132 H132        3.5707  -15.6861  -49.0648 H         1 UNK         0.0800 
    133 H133        4.2068  -14.7044  -50.3200 H         1 UNK         0.0800 
    134 H134       -0.0572  -14.3717  -48.6342 H         1 UNK         0.0800 
    135 H135        1.2764  -14.8058  -47.6082 H         1 UNK         0.0800 
    136 H136       -0.7300  -15.8686  -50.5628 H         1 UNK         0.1150 
    137 H137        0.1809  -20.0253  -50.0213 H         1 UNK         0.1150 
    138 H138        2.1855  -17.0691  -47.6626 H         1 UNK         0.1150 
    139 H139        1.9722  -20.6874  -48.6383 H         1 UNK         0.0800 
    140 H140        3.1499  -19.4888  -48.1560 H         1 UNK         0.0800 
    141 H141        3.1892  -21.7413  -46.7866 H         1 UNK         0.0800 
    142 H142        2.9143  -21.5547  -45.0981 H         1 UNK         0.0800 
    143 H143        2.0895  -23.6653  -46.4941 H         1 UNK         0.0600 
    144 H144        0.9845  -22.5870  -44.0463 H         1 UNK         0.3000 
    145 H145       -0.3326  -25.7399  -43.0048 H         1 UNK         0.0600 
    146 H146        1.2284  -25.3715  -41.1162 H         1 UNK         0.0600 
    147 H147        2.1132  -25.9147  -42.5327 H         1 UNK         0.0600 
    148 H148        2.1604  -24.2175  -42.0706 H         1 UNK         0.0600 
    149 H149       -0.0628  -23.1876  -41.7117 H         1 UNK         0.3000 
    150 H150       -3.2214  -21.8907  -42.7562 H         1 UNK         0.0600 
    151 H151       -3.6706  -23.4349  -40.8369 H         1 UNK         0.0600 
    152 H152       -3.5325  -21.7655  -40.3110 H         1 UNK         0.0600 
    153 H153       -2.1977  -22.8875  -40.0451 H         1 UNK         0.0600 
    154 H154       -1.4025  -20.6884  -41.0343 H         1 UNK         0.3000 
    155 H155       -0.4662  -18.6883  -41.8213 H         1 UNK         0.0600 
    156 H156        2.0284  -18.7456  -42.0644 H         1 UNK         0.0600 
    157 H157        1.9111  -20.1739  -43.0897 H         1 UNK         0.0600 
    158 H158        1.4352  -20.2585  -41.3974 H         1 UNK         0.0600 
    159 H159        0.7234  -18.6122  -44.5289 H         1 UNK         0.3000 
    160 H160        0.1814  -16.9950  -45.9479 H         1 UNK         0.0600 
    161 H161       -2.7598  -17.7957  -46.2848 H         1 UNK         0.0600 
    162 H162       -1.3545  -18.7931  -46.6473 H         1 UNK         0.0600 
    163 H163       -1.6681  -17.3520  -47.5968 H         1 UNK         0.0600 
    164 H164       -2.1870  -15.3637  -46.0600 H         1 UNK         0.3000 
    165 H165       -1.9739  -13.1406  -45.9905 H         1 UNK         0.0600 
    166 H166       -1.1320  -12.7337  -43.0683 H         1 UNK         0.0600 
    167 H167       -2.3201  -11.7702  -43.9422 H         1 UNK         0.0600 
    168 H168       -2.6368  -13.4674  -43.6099 H         1 UNK         0.0600 
    169 H169        0.5305  -12.0392  -44.7930 H         1 UNK         0.3000 
    170 H170        1.9229  -11.1943  -47.6236 H         1 UNK         0.0600 
    171 H171        0.3258   -9.4841  -48.4914 H         1 UNK         0.0600 
    172 H172        0.1578   -8.7963  -46.8792 H         1 UNK         0.0600 
    173 H173        1.7014   -8.7077  -47.7280 H         1 UNK         0.0600 
    174 H174        1.4294  -10.5075  -44.8142 H         1 UNK         0.3000 
    175 H175        4.9184   -9.9796  -44.2195 H         1 UNK         0.0600 
    176 H176        2.1806   -9.0378  -43.2091 H         1 UNK         0.0600 
    177 H177        3.7249   -8.8320  -42.3889 H         1 UNK         0.0600 
    178 H178        3.4261   -8.0254  -43.9201 H         1 UNK         0.0600 
    179 H179        4.5819  -11.9171  -43.2426 H         1 UNK         0.3000 
    180 H180        3.6726  -13.2958  -41.5881 H         1 UNK         0.0600 
    181 H181        0.7176  -13.9705  -42.0385 H         1 UNK         0.0600 
    182 H182        1.3724  -13.0996  -40.6593 H         1 UNK         0.0600 
    183 H183        1.8133  -14.7801  -40.9243 H         1 UNK         0.0600 
    184 H184        2.2840  -14.8108  -43.7154 H         1 UNK         0.3000 
    185 H185        5.2678  -16.2981  -44.6595 H         1 UNK         0.0600 
    186 H186        2.9016  -17.0086  -44.0330 H         1 UNK         0.0600 
    187 H187        2.3357  -16.1567  -45.4707 H         1 UNK         0.0600 
    188 H188        3.4354  -17.5164  -45.6223 H         1 UNK         0.0600 
    189 H189        5.4622  -15.6089  -46.7483 H         1 UNK         0.3000 
    190 H190       -0.8850  -21.9444  -45.5716 H         1 UNK         0.3000 
    191 H191       -2.0692  -21.7541  -48.1310 H         1 UNK         0.0600 
    192 H192       -4.2040  -21.5746  -46.8328 H         1 UNK         0.0600 
    193 H193       -2.9463  -20.5568  -46.1507 H         1 UNK         0.0600 
    194 H194       -3.3648  -22.0787  -45.3709 H         1 UNK         0.0600 
    195 H195       -2.1871  -24.4078  -45.6898 H         1 UNK         0.3000 
    196 H196       -3.8336  -26.1764  -47.1616 H         1 UNK         0.0600 
    197 H197       -2.9031  -27.9171  -45.6302 H         1 UNK         0.0600 
    198 H198       -3.3729  -26.4697  -44.7526 H         1 UNK         0.0600 
    199 H199       -1.6715  -26.7892  -45.0786 H         1 UNK         0.0600 
    200 H200       -0.2528  -25.8242  -47.1377 H         1 UNK         0.3000 
    201 H201        0.3126  -27.8908  -49.0062 H         1 UNK         0.0600 
    202 H202        2.0196  -26.8791  -47.5052 H         1 UNK         0.0600 
    203 H203        1.9019  -25.3492  -48.3716 H         1 UNK         0.0600 
    204 H204        2.5239  -26.7773  -49.1857 H         1 UNK         0.0600 
    205 H205       -0.5195  -24.4600  -49.4784 H         1 UNK         0.3000 
    206 H206       -0.2442  -24.4818  -52.3620 H         1 UNK         0.0600 
    207 H207        0.0396  -22.4299  -50.9528 H         1 UNK         0.0600 
    208 H208       -1.2061  -22.2115  -52.1686 H         1 UNK         0.0600 
    209 H209       -1.6610  -22.5047  -50.4961 H         1 UNK         0.0600 
    210 H210       -2.5068  -25.9811  -50.4220 H         1 UNK         0.3000 
    211 H211       -4.4739  -26.9117  -50.6355 H         1 UNK         0.0600 
    212 H212       -4.1803  -26.4805  -53.6493 H         1 UNK         0.0600 
    213 H213       -5.3607  -27.5315  -52.8800 H         1 UNK         0.0600 
    214 H214       -3.6480  -27.8794  -52.7284 H         1 UNK         0.0600 
    215 H215       -4.3327  -24.2066  -49.9613 H         1 UNK         0.3000 
    216 H216       -5.5379  -22.4298  -49.4526 H         1 UNK         0.0600 
    217 H217       -7.6617  -24.6350  -49.2837 H         1 UNK         0.0600 
    218 H218       -7.7922  -23.0550  -48.5084 H         1 UNK         0.0600 
    219 H219       -6.5138  -24.1603  -48.0397 H         1 UNK         0.0600 
    220 H220       -8.5137  -23.6099  -50.7939 H         1 UNK         0.3000 
    221 H221       -9.1789  -21.2167  -52.1197 H         1 UNK         0.0600 
    222 H222      -10.3541  -24.0348  -52.3913 H         1 UNK         0.0600 
    223 H223      -10.8491  -22.8108  -51.2208 H         1 UNK         0.0600 
    224 H224      -11.1324  -22.5528  -52.9343 H         1 UNK         0.0600 
    225 H225       -7.3392  -23.9694  -53.3085 H         1 UNK         0.3000 
    226 H226       -7.6971  -23.5345  -56.1227 H         1 UNK         0.0600 
    227 H227       -6.7917  -25.6531  -55.1138 H         1 UNK         0.0600 
    228 H228       -5.7030  -24.9855  -56.3237 H         1 UNK         0.0600 
    229 H229       -5.3431  -24.7780  -54.6152 H         1 UNK         0.0600 
    230 H230       -5.5368  -22.1112  -53.6878 H         1 UNK         0.3000 
    231 H231       -4.1299  -20.4336  -55.7064 H         1 UNK         0.0600 
    232 H232       -3.6457  -20.8776  -52.7103 H         1 UNK         0.0600 
    233 H233       -2.7550  -21.6477  -54.0234 H         1 UNK         0.0600 
    234 H234       -2.6423  -19.9115  -53.7883 H         1 UNK         0.0600 
    235 H235       -6.8127  -20.3618  -53.6626 H         1 UNK         0.3000 
    236 H236       -8.2414  -18.9025  -52.8363 H         1 UNK         0.0600 
    237 H237       -8.1730  -17.7266  -55.0530 H         1 UNK         0.0600 
    238 H238       -8.4974  -16.6340  -53.7171 H         1 UNK         0.0600 
    239 H239       -6.8993  -16.6691  -54.4444 H         1 UNK         0.0600 
    240 H240       -5.9746  -19.6853  -51.4232 H         1 UNK         0.3000 
    241 H241       -5.3622  -17.3567  -49.6492 H         1 UNK         0.0600 
    242 H242       -7.5185  -19.7932  -49.5623 H         1 UNK         0.3800 
    243 H243       -7.3684  -20.2166  -47.8753 H         1 UNK         0.3800 
    244 H244       -3.1987  -18.5188  -49.1253 H         1 UNK         0.0800 
    245 H245       -3.5736  -19.7432  -50.3165 H         1 UNK         0.0800 
    246 H246       -0.9267  -18.0044  -52.4749 H         1 UNK         0.0800 
    247 H247       -1.4439  -19.4403  -51.6280 H         1 UNK         0.0800 
@<TRIPOS>BOND
     1    1    2 1    
     2    1  127 1    
     3    1  128 1    
     4    1  129 1    
     5    2    3 2    
     6    2    4 am   BACKBONE|DICT|INTERRES
     7    4    5 1    
     8    4  130 1    
     9    5    6 1    
    10    5   65 1    
    11    5  131 1    
    12    6    7 1    
    13    6  132 1    
    14    6  133 1    
    15    7    8 1    
    16    8    9 1    
    17    8  134 1    
    18    8  135 1    
    19    9   10 ar   
    20    9   14 ar   
    21   10   11 ar   
    22   10  136 1    
    23   11   12 ar   
    24   11  126 1    
    25   12   13 ar   
    26   12  137 1    
    27   13   14 ar   
    28   13   15 1    
    29   14  138 1    
    30   15   16 1    
    31   15  139 1    
    32   15  140 1    
    33   16   17 1    
    34   17   18 1    
    35   17  141 1    
    36   17  142 1    
    37   18   19 1    
    38   18   67 1    
    39   18  143 1    
    40   19   20 am   BACKBONE|DICT|INTERRES
    41   19  144 1    
    42   20   21 2    
    43   20   22 1    
    44   22   23 1    
    45   22   24 1    
    46   22  145 1    
    47   23  146 1    
    48   23  147 1    
    49   23  148 1    
    50   24   25 am   BACKBONE|DICT|INTERRES
    51   24  149 1    
    52   25   26 2    
    53   25   27 1    
    54   27   28 1    
    55   27   29 1    
    56   27  150 1    
    57   28  151 1    
    58   28  152 1    
    59   28  153 1    
    60   29   30 am   BACKBONE|DICT|INTERRES
    61   29  154 1    
    62   30   31 2    
    63   30   32 1    
    64   32   33 1    
    65   32   34 1    
    66   32  155 1    
    67   33  156 1    
    68   33  157 1    
    69   33  158 1    
    70   34   35 am   BACKBONE|DICT|INTERRES
    71   34  159 1    
    72   35   36 2    
    73   35   37 1    
    74   37   38 1    
    75   37   39 1    
    76   37  160 1    
    77   38  161 1    
    78   38  162 1    
    79   38  163 1    
    80   39   40 am   BACKBONE|DICT|INTERRES
    81   39  164 1    
    82   40   41 2    
    83   40   42 1    
    84   42   43 1    
    85   42   44 1    
    86   42  165 1    
    87   43  166 1    
    88   43  167 1    
    89   43  168 1    
    90   44   45 am   BACKBONE|DICT|INTERRES
    91   44  169 1    
    92   45   46 2    
    93   45   47 1    
    94   47   48 1    
    95   47   49 1    
    96   47  170 1    
    97   48  171 1    
    98   48  172 1    
    99   48  173 1    
   100   49   50 am   BACKBONE|DICT|INTERRES
   101   49  174 1    
   102   50   51 2    
   103   50   52 1    
   104   52   53 1    
   105   52   54 1    
   106   52  175 1    
   107   53  176 1    
   108   53  177 1    
   109   53  178 1    
   110   54   55 am   BACKBONE|DICT|INTERRES
   111   54  179 1    
   112   55   56 2    
   113   55   57 1    
   114   57   58 1    
   115   57   59 1    
   116   57  180 1    
   117   58  181 1    
   118   58  182 1    
   119   58  183 1    
   120   59   60 am   BACKBONE|DICT|INTERRES
   121   59  184 1    
   122   60   61 2    
   123   60   62 1    
   124   62   63 1    
   125   62   64 1    
   126   62  185 1    
   127   63  186 1    
   128   63  187 1    
   129   63  188 1    
   130   64   65 am   BACKBONE|DICT|INTERRES
   131   64  189 1    
   132   65   66 2    
   133   67   68 2    
   134   67   69 am   BACKBONE|DICT|INTERRES
   135   69   70 1    
   136   69  190 1    
   137   70   71 1    
   138   70   72 1    
   139   70  191 1    
   140   71  192 1    
   141   71  193 1    
   142   71  194 1    
   143   72   73 2    
   144   72   74 am   BACKBONE|DICT|INTERRES
   145   74   75 1    
   146   74  195 1    
   147   75   76 1    
   148   75   77 1    
   149   75  196 1    
   150   76  197 1    
   151   76  198 1    
   152   76  199 1    
   153   77   78 2    
   154   77   79 am   BACKBONE|DICT|INTERRES
   155   79   80 1    
   156   79  200 1    
   157   80   81 1    
   158   80   82 1    
   159   80  201 1    
   160   81  202 1    
   161   81  203 1    
   162   81  204 1    
   163   82   83 2    
   164   82   84 am   BACKBONE|DICT|INTERRES
   165   84   85 1    
   166   84  205 1    
   167   85   86 1    
   168   85   87 1    
   169   85  206 1    
   170   86  207 1    
   171   86  208 1    
   172   86  209 1    
   173   87   88 2    
   174   87   89 am   BACKBONE|DICT|INTERRES
   175   89   90 1    
   176   89  210 1    
   177   90   91 1    
   178   90   92 1    
   179   90  211 1    
   180   91  212 1    
   181   91  213 1    
   182   91  214 1    
   183   92   93 2    
   184   92   94 am   BACKBONE|DICT|INTERRES
   185   94   95 1    
   186   94  215 1    
   187   95   96 1    
   188   95   97 1    
   189   95  216 1    
   190   96  217 1    
   191   96  218 1    
   192   96  219 1    
   193   97   98 2    
   194   97   99 am   BACKBONE|DICT|INTERRES
   195   99  100 1    
   196   99  220 1    
   197  100  101 1    
   198  100  102 1    
   199  100  221 1    
   200  101  222 1    
   201  101  223 1    
   202  101  224 1    
   203  102  103 2    
   204  102  104 am   BACKBONE|DICT|INTERRES
   205  104  105 1    
   206  104  225 1    
   207  105  106 1    
   208  105  107 1    
   209  105  226 1    
   210  106  227 1    
   211  106  228 1    
   212  106  229 1    
   213  107  108 2    
   214  107  109 am   BACKBONE|DICT|INTERRES
   215  109  110 1    
   216  109  230 1    
   217  110  111 1    
   218  110  112 1    
   219  110  231 1    
   220  111  232 1    
   221  111  233 1    
   222  111  234 1    
   223  112  113 2    
   224  112  114 am   BACKBONE|DICT|INTERRES
   225  114  115 1    
   226  114  235 1    
   227  115  116 1    
   228  115  117 1    
   229  115  236 1    
   230  116  237 1    
   231  116  238 1    
   232  116  239 1    
   233  117  118 2    
   234  117  119 am   BACKBONE|DICT|INTERRES
   235  119  120 1    
   236  119  240 1    
   237  120  121 1    
   238  120  124 1    
   239  120  241 1    
   240  121  122 am   BACKBONE|DICT|INTERRES
   241  121  123 2    
   242  122  242 1    
   243  122  243 1    
   244  124  125 1    
   245  124  244 1    
   246  124  245 1    
   247  125  126 1    
   248  126  246 1    
   249  126  247 1    
@<TRIPOS>SUBSTRUCTURE
     1 UNK         1 GROUP             0       ****    0 ROOT    
