@<TRIPOS>MOLECULE
3R540
247   249    1
SMALL
USER_CHARGES


@<TRIPOS>ATOM
      1 CA          3.5408  -18.4728  -47.3161 C.3       0 UNK        -0.1800 
      2 C           3.4564  -17.1033  -46.6608 C.2       0 UNK         0.5000 
      3 O           3.4279  -17.0137  -45.4349 O.2       0 UNK        -0.5000 
      4 N           3.4530  -16.0295  -47.4637 N.am      1 UNK        -0.5000 
      5 CA          3.3434  -14.6303  -47.0149 C.3       1 UNK         0.1400 
      6 C6          2.9911  -13.6622  -48.1696 C.3       23 UNK        -0.0398 
      7 S7          1.3004  -13.9876  -48.7811 S.3       23 UNK        -0.2404 
      8 C8          1.5784  -14.4676  -50.5129 C.3       23 UNK        -0.0205 
      9 C9          0.5206  -15.4609  -50.9665 C.ar      23 UNK        -0.0193 
     10 C10        -0.7778  -15.0353  -51.2600 C.ar      23 UNK        -0.1150 
     11 C11        -1.7562  -15.9560  -51.6484 C.ar      23 UNK        -0.0193 
     12 C12        -1.4291  -17.3125  -51.7344 C.ar      23 UNK        -0.1150 
     13 C13        -0.1326  -17.7514  -51.4493 C.ar      23 UNK        -0.0193 
     14 C14         0.8391  -16.8155  -51.0779 C.ar      23 UNK        -0.1150 
     15 C15         0.2003  -19.2373  -51.5513 C.3       23 UNK        -0.0205 
     16 S16         1.3072  -19.8334  -50.2308 S.3       23 UNK        -0.2404 
     17 C17         0.3091  -19.4573  -48.7526 C.3       23 UNK        -0.0398 
     18 CA          0.1367  -20.6893  -47.8384 C.3       11 UNK         0.1400 
     19 N          -0.1475  -20.2973  -46.4582 N.am      11 UNK        -0.5000 
     20 C          -0.2333  -21.1424  -45.4222 C.2       10 UNK         0.5000 
     21 O          -0.0200  -22.3519  -45.4981 O.2       10 UNK        -0.5000 
     22 CA         -0.6930  -20.5362  -44.0879 C.3       10 UNK         0.1400 
     23 CB          0.4896  -19.9101  -43.3335 C.3       10 UNK        -0.1800 
     24 N          -1.7572  -19.5485  -44.2826 N.am      10 UNK        -0.5000 
     25 C          -3.0008  -19.8610  -44.6784 C.2       9 UNK         0.5000 
     26 O          -3.3911  -21.0152  -44.8524 O.2       9 UNK        -0.5000 
     27 CA         -3.9524  -18.6905  -44.9815 C.3       9 UNK         0.1400 
     28 CB         -4.6162  -18.1798  -43.6943 C.3       9 UNK        -0.1800 
     29 N          -3.2761  -17.5890  -45.6693 N.am      9 UNK        -0.5000 
     30 C          -2.8368  -17.6609  -46.9360 C.2       8 UNK         0.5000 
     31 O          -2.9875  -18.6503  -47.6500 O.2       8 UNK        -0.5000 
     32 CA         -2.0597  -16.4548  -47.4966 C.3       8 UNK         0.1400 
     33 CB         -3.0127  -15.4907  -48.2159 C.3       8 UNK        -0.1800 
     34 N          -1.3072  -15.7174  -46.4843 N.am      8 UNK        -0.5000 
     35 C          -0.3529  -16.2310  -45.6980 C.2       7 UNK         0.5000 
     36 O           0.0067  -17.4088  -45.7461 O.2       7 UNK        -0.5000 
     37 CA          0.2805  -15.2805  -44.6634 C.3       7 UNK         0.1400 
     38 CB         -0.0173  -13.7854  -44.9173 C.3       7 UNK        -0.1800 
     39 N          -0.0622  -15.6246  -43.2871 N.am      7 UNK        -0.5000 
     40 C          -1.2794  -15.7820  -42.7514 C.2       6 UNK         0.5000 
     41 O          -2.3260  -15.7334  -43.3989 O.2       6 UNK        -0.5000 
     42 CA         -1.3377  -16.0053  -41.2312 C.3       6 UNK         0.1400 
     43 CB         -1.1726  -17.4924  -40.8883 C.3       6 UNK        -0.1800 
     44 N          -0.3006  -15.2371  -40.5368 N.am      6 UNK        -0.5000 
     45 C          -0.5183  -14.3844  -39.5270 C.2       5 UNK         0.5000 
     46 O          -1.6266  -14.1788  -39.0301 O.2       5 UNK        -0.5000 
     47 CA          0.7054  -13.6253  -38.9691 C.3       5 UNK         0.1400 
     48 CB          1.2652  -14.3477  -37.7342 C.3       5 UNK        -0.1800 
     49 N           1.7854  -13.4489  -39.9429 N.am      5 UNK        -0.5000 
     50 C           1.7055  -12.7037  -41.0532 C.2       4 UNK         0.5000 
     51 O           0.7282  -12.0095  -41.3348 O.2       4 UNK        -0.5000 
     52 CA          2.9026  -12.7407  -42.0267 C.3       4 UNK         0.1400 
     53 CB          3.7360  -11.4568  -41.8966 C.3       4 UNK        -0.1800 
     54 N           3.8069  -13.8926  -41.9246 N.am      4 UNK        -0.5000 
     55 C           3.4850  -15.1921  -41.9773 C.2       3 UNK         0.5000 
     56 O           2.3298  -15.6179  -41.9180 O.2       3 UNK        -0.5000 
     57 CA          4.6641  -16.1611  -42.1778 C.3       3 UNK         0.1400 
     58 CB          4.2305  -17.6378  -42.1311 C.3       3 UNK        -0.1800 
     59 N           5.2962  -15.8869  -43.4692 N.am      3 UNK        -0.5000 
     60 C           6.2808  -14.9988  -43.6763 C.2       2 UNK         0.5000 
     61 O           6.8147  -14.3607  -42.7683 O.2       2 UNK        -0.5000 
     62 CA          6.7149  -14.7422  -45.1361 C.3       2 UNK         0.1400 
     63 CB          7.8736  -15.6728  -45.5242 C.3       2 UNK        -0.1800 
     64 N           5.6214  -14.9146  -46.0939 N.am      2 UNK        -0.5000 
     65 C           4.5349  -14.1318  -46.1635 C.2       1 UNK         0.5000 
     66 O           4.4246  -13.0751  -45.5408 O.2       1 UNK        -0.5000 
     67 C          -0.9261  -21.6634  -48.3880 C.2       11 UNK         0.5000 
     68 O          -0.5714  -22.7259  -48.8977 O.2       11 UNK        -0.5000 
     69 N          -2.2095  -21.3096  -48.2245 N.am      12 UNK        -0.5000 
     70 CA         -3.3539  -22.1375  -48.5985 C.3       12 UNK         0.1400 
     71 CB         -4.6577  -21.3547  -48.3900 C.3       12 UNK        -0.1800 
     72 C          -3.3936  -23.4739  -47.8408 C.2       12 UNK         0.5000 
     73 O          -3.6383  -24.5029  -48.4670 O.2       12 UNK        -0.5000 
     74 N          -3.1153  -23.4501  -46.5295 N.am      13 UNK        -0.5000 
     75 CA         -3.0236  -24.6452  -45.6887 C.3       13 UNK         0.1400 
     76 CB         -2.8576  -24.2395  -44.2166 C.3       13 UNK        -0.1800 
     77 C          -1.8964  -25.5974  -46.1292 C.2       13 UNK         0.5000 
     78 O          -2.1344  -26.7997  -46.2487 O.2       13 UNK        -0.5000 
     79 N          -0.7085  -25.0413  -46.4076 N.am      14 UNK        -0.5000 
     80 CA          0.4574  -25.7729  -46.9092 C.3       14 UNK         0.1400 
     81 CB          1.6828  -24.8463  -46.9029 C.3       14 UNK        -0.1800 
     82 C           0.2366  -26.3727  -48.3111 C.2       14 UNK         0.5000 
     83 O           0.6743  -27.4943  -48.5698 O.2       14 UNK        -0.5000 
     84 N          -0.4587  -25.6269  -49.1789 N.am      15 UNK        -0.5000 
     85 CA         -0.8166  -26.0328  -50.5385 C.3       15 UNK         0.1400 
     86 CB         -1.0977  -24.7696  -51.3665 C.3       15 UNK        -0.1800 
     87 C          -2.0244  -26.9887  -50.6102 C.2       15 UNK         0.5000 
     88 O          -2.3457  -27.4510  -51.7043 O.2       15 UNK        -0.5000 
     89 N          -2.7017  -27.2338  -49.4781 N.am      16 UNK        -0.5000 
     90 CA         -3.9485  -27.9986  -49.3455 C.3       16 UNK         0.1400 
     91 CB         -3.7104  -29.4952  -49.6347 C.3       16 UNK        -0.1800 
     92 C          -5.0969  -27.3888  -50.1809 C.2       16 UNK         0.5000 
     93 O          -5.8224  -28.1054  -50.8720 O.2       16 UNK        -0.5000 
     94 N          -5.2027  -26.0546  -50.1120 N.am      17 UNK        -0.5000 
     95 CA         -6.1480  -25.1600  -50.7860 C.3       17 UNK         0.1400 
     96 CB         -7.6066  -25.5158  -50.4350 C.3       17 UNK        -0.1800 
     97 C          -5.9356  -25.0093  -52.3067 C.2       17 UNK         0.5000 
     98 O          -6.6997  -24.2808  -52.9390 O.2       17 UNK        -0.5000 
     99 N          -4.9005  -25.6429  -52.8786 N.am      18 UNK        -0.5000 
    100 CA        -4.6040  -25.5952  -54.3150 C.3       18 UNK         0.1400 
    101 CB        -3.5761  -26.6824  -54.6603 C.3       18 UNK        -0.1800 
    102 C         -4.1077  -24.2183  -54.7990 C.2       18 UNK         0.5000 
    103 O         -4.3276  -23.8699  -55.9594 O.2       18 UNK        -0.5000 
    104 N         -3.4483  -23.4663  -53.9074 N.am      19 UNK        -0.5000 
    105 CA        -2.9062  -22.1336  -54.1842 C.3       19 UNK         0.1400 
    106 CB        -1.6314  -21.9353  -53.3509 C.3       19 UNK        -0.1800 
    107 C         -3.9116  -20.9997  -53.9047 C.2       19 UNK         0.5000 
    108 O         -3.6486  -19.8585  -54.2857 O.2       19 UNK        -0.5000 
    109 N         -5.0301  -21.3118  -53.2363 N.am      20 UNK        -0.5000 
    110 CA        -6.1036  -20.3640  -52.9444 C.3       20 UNK         0.1400 
    111 CB        -6.9368  -20.9096  -51.7734 C.3       20 UNK        -0.1800 
    112 C         -6.9913  -20.1440  -54.1903 C.2       20 UNK         0.5000 
    113 O         -7.1181  -21.0588  -55.0046 O.2       20 UNK        -0.5000 
    114 N         -7.6338  -18.9805  -54.3641 N.am      21 UNK        -0.5000 
    115 CA        -7.5774  -17.7723  -53.5312 C.3       21 UNK         0.1400 
    116 CB        -8.9469  -17.0771  -53.6118 C.3       21 UNK        -0.1800 
    117 C         -6.4502  -16.8011  -53.9488 C.2       21 UNK         0.5000 
    118 O         -6.3464  -15.7271  -53.3606 O.2       21 UNK        -0.5000 
    119 N         -5.6624  -17.1838  -54.9632 N.am      22 UNK        -0.5000 
    120 CA        -4.5534  -16.4479  -55.6015 C.3       22 UNK         0.1400 
    121 C         -4.9496  -15.1947  -56.4429 C.2       22 UNK         0.5000 
    122 N         -6.2279  -14.8789  -56.6093 N.am      22 UNK        -0.7600 
    123 O         -4.0852  -14.5255  -57.0030 O.2       22 UNK        -0.5000 
    124 C124       -3.3032  -16.2510  -54.6887 C.3       23 UNK        -0.0398 
    125 S125       -3.2820  -14.7602  -53.6252 S.3       23 UNK        -0.2404 
    126 C126       -3.1677  -15.4812  -51.9592 C.3       23 UNK        -0.0205 
    127 H127        3.3930  -18.4148  -48.3944 H         1 UNK         0.0600 
    128 H128        2.7815  -19.1342  -46.8990 H         1 UNK         0.0600 
    129 H129        4.5176  -18.9176  -47.1275 H         1 UNK         0.0600 
    130 H130        3.4901  -16.1633  -48.4636 H         1 UNK         0.3000 
    131 H131        2.5028  -14.5934  -46.3277 H         1 UNK         0.0600 
    132 H132        3.7229  -13.7308  -48.9755 H         1 UNK         0.0800 
    133 H133        3.0105  -12.6253  -47.8289 H         1 UNK         0.0800 
    134 H134        2.5720  -14.9019  -50.6302 H         1 UNK         0.0800 
    135 H135        1.5521  -13.5787  -51.1448 H         1 UNK         0.0800 
    136 H136       -1.0289  -13.9871  -51.1783 H         1 UNK         0.1150 
    137 H137       -2.1854  -18.0280  -52.0267 H         1 UNK         0.1150 
    138 H138        1.8451  -17.1435  -50.8591 H         1 UNK         0.1150 
    139 H139       -0.7141  -19.8303  -51.5174 H         1 UNK         0.0800 
    140 H140        0.6660  -19.4284  -52.5187 H         1 UNK         0.0800 
    141 H141       -0.6590  -19.0438  -49.0380 H         1 UNK         0.0800 
    142 H142        0.8181  -18.6536  -48.2204 H         1 UNK         0.0800 
    143 H143        1.0865  -21.2281  -47.8074 H         1 UNK         0.0600 
    144 H144       -0.2916  -19.3081  -46.2803 H         1 UNK         0.3000 
    145 H145       -1.0870  -21.3504  -43.4760 H         1 UNK         0.0600 
    146 H146        0.2136  -19.6793  -42.3069 H         1 UNK         0.0600 
    147 H147        1.3331  -20.6003  -43.2860 H         1 UNK         0.0600 
    148 H148        0.8446  -18.9940  -43.8062 H         1 UNK         0.0600 
    149 H149       -1.4900  -18.5754  -44.2396 H         1 UNK         0.3000 
    150 H150       -4.7409  -19.0641  -45.6383 H         1 UNK         0.0600 
    151 H151       -5.1988  -18.9703  -43.2196 H         1 UNK         0.0600 
    152 H152       -5.2964  -17.3535  -43.9008 H         1 UNK         0.0600 
    153 H153       -3.8819  -17.8364  -42.9660 H         1 UNK         0.0600 
    154 H154       -3.0743  -16.7606  -45.1198 H         1 UNK         0.3000 
    155 H155       -1.3426  -16.8319  -48.2283 H         1 UNK         0.0600 
    156 H156       -2.4631  -14.6858  -48.7043 H         1 UNK         0.0600 
    157 H157       -3.7282  -15.0414  -47.5262 H         1 UNK         0.0600 
    158 H158       -3.5818  -16.0107  -48.9875 H         1 UNK         0.0600 
    159 H159       -1.5543  -14.7467  -46.3607 H         1 UNK         0.3000 
    160 H160        1.3557  -15.4341  -44.7225 H         1 UNK         0.0600 
    161 H161       -1.0761  -13.5514  -44.8006 H         1 UNK         0.0600 
    162 H162        0.2845  -13.4823  -45.9202 H         1 UNK         0.0600 
    163 H163        0.5285  -13.1552  -44.2170 H         1 UNK         0.0600 
    164 H164        0.7509  -15.7364  -42.6853 H         1 UNK         0.3000 
    165 H165       -2.3319  -15.6893  -40.9086 H         1 UNK         0.0600 
    166 H166       -0.1510  -17.8254  -41.0691 H         1 UNK         0.0600 
    167 H167       -1.3985  -17.6768  -39.8380 H         1 UNK         0.0600 
    168 H168       -1.8417  -18.1177  -41.4807 H         1 UNK         0.0600 
    169 H169        0.6465  -15.3271  -40.8894 H         1 UNK         0.3000 
    170 H170        0.3646  -12.6347  -38.6611 H         1 UNK         0.0600 
    171 H171        0.4950  -14.4728  -36.9719 H         1 UNK         0.0600 
    172 H172        1.6423  -15.3399  -37.9856 H         1 UNK         0.0600 
    173 H173        2.0798  -13.7825  -37.2811 H         1 UNK         0.0600 
    174 H174        2.6234  -13.9918  -39.7961 H         1 UNK         0.3000 
    175 H175        2.4872  -12.7650  -43.0348 H         1 UNK         0.0600 
    176 H176        4.2295  -11.3963  -40.9259 H         1 UNK         0.0600 
    177 H177        4.5039  -11.4061  -42.6691 H         1 UNK         0.0600 
    178 H178        3.1118  -10.5687  -42.0047 H         1 UNK         0.0600 
    179 H179        4.7932  -13.6717  -41.9813 H         1 UNK         0.3000 
    180 H180        5.3772  -15.9961  -41.3676 H         1 UNK         0.0600 
    181 H181        3.4922  -17.8704  -42.8994 H         1 UNK         0.0600 
    182 H182        3.7851  -17.8824  -41.1661 H         1 UNK         0.0600 
    183 H183        5.0821  -18.3027  -42.2745 H         1 UNK         0.0600 
    184 H184        4.8411  -16.3148  -44.2707 H         1 UNK         0.3000 
    185 H185        7.0665  -13.7105  -45.2019 H         1 UNK         0.0600 
    186 H186        8.2355  -15.4546  -46.5291 H         1 UNK         0.0600 
    187 H187        8.7166  -15.5512  -44.8427 H         1 UNK         0.0600 
    188 H188        7.5754  -16.7216  -45.4939 H         1 UNK         0.0600 
    189 H189        5.6256  -15.7650  -46.6375 H         1 UNK         0.3000 
    190 H190       -2.4280  -20.3953  -47.8346 H         1 UNK         0.3000 
    191 H191       -3.2627  -22.3641  -49.6627 H         1 UNK         0.0600 
    192 H192       -4.7807  -21.0478  -47.3509 H         1 UNK         0.0600 
    193 H193       -5.5251  -21.9585  -48.6594 H         1 UNK         0.0600 
    194 H194       -4.6799  -20.4567  -49.0078 H         1 UNK         0.0600 
    195 H195       -2.9716  -22.5566  -46.0697 H         1 UNK         0.3000 
    196 H196       -3.9673  -25.1866  -45.7828 H         1 UNK         0.0600 
    197 H197       -2.8056  -25.1182  -43.5728 H         1 UNK         0.0600 
    198 H198       -3.7004  -23.6374  -43.8770 H         1 UNK         0.0600 
    199 H199       -1.9478  -23.6611  -44.0567 H         1 UNK         0.0600 
    200 H200       -0.5848  -24.0439  -46.2538 H         1 UNK         0.3000 
    201 H201        0.6529  -26.5993  -46.2229 H         1 UNK         0.0600 
    202 H202        1.8976  -24.4849  -45.8971 H         1 UNK         0.0600 
    203 H203        1.5332  -23.9770  -47.5443 H         1 UNK         0.0600 
    204 H204        2.5715  -25.3692  -47.2581 H         1 UNK         0.0600 
    205 H205       -0.7225  -24.6838  -48.9065 H         1 UNK         0.3000 
    206 H206        0.0347  -26.5500  -50.9855 H         1 UNK         0.0600 
    207 H207       -0.2396  -24.0970  -51.3623 H         1 UNK         0.0600 
    208 H208       -1.3060  -25.0195  -52.4073 H         1 UNK         0.0600 
    209 H209       -1.9551  -24.2200  -50.9768 H         1 UNK         0.0600 
    210 H210       -2.3800  -26.7775  -48.6343 H         1 UNK         0.3000 
    211 H211       -4.2503  -27.9089  -48.3010 H         1 UNK         0.0600 
    212 H212       -3.4526  -29.6729  -50.6791 H         1 UNK         0.0600 
    213 H213       -4.6036  -30.0811  -49.4152 H         1 UNK         0.0600 
    214 H214       -2.9034  -29.8910  -49.0181 H         1 UNK         0.0600 
    215 H215       -4.5376  -25.5714  -49.5063 H         1 UNK         0.3000 
    216 H216       -5.9510  -24.1716  -50.3681 H         1 UNK         0.0600 
    217 H217       -7.7461  -25.5899  -49.3565 H         1 UNK         0.0600 
    218 H218       -7.9133  -26.4623  -50.8807 H         1 UNK         0.0600 
    219 H219       -8.2937  -24.7501  -50.7971 H         1 UNK         0.0600 
    220 H220       -4.3162  -26.2431  -52.3111 H         1 UNK         0.3000 
    221 H221       -5.5262  -25.8208  -54.8549 H         1 UNK         0.0600 
    222 H222       -2.6102  -26.4856  -54.1941 H         1 UNK         0.0600 
    223 H223       -3.9133  -27.6660  -54.3326 H         1 UNK         0.0600 
    224 H224       -3.4130  -26.7360  -55.7374 H         1 UNK         0.0600 
    225 H225       -3.3115  -23.8335  -52.9783 H         1 UNK         0.3000 
    226 H226       -2.6282  -22.0667  -55.2382 H         1 UNK         0.0600 
    227 H227       -0.8954  -22.7104  -53.5641 H         1 UNK         0.0600 
    228 H228       -1.1637  -20.9790  -53.5866 H         1 UNK         0.0600 
    229 H229       -1.8395  -21.9496  -52.2803 H         1 UNK         0.0600 
    230 H230       -5.2289  -22.2850  -53.0560 H         1 UNK         0.3000 
    231 H231       -5.6416  -19.4242  -52.6390 H         1 UNK         0.0600 
    232 H232       -7.7126  -20.2033  -51.4771 H         1 UNK         0.0600 
    233 H233       -6.3146  -21.0933  -50.8983 H         1 UNK         0.0600 
    234 H234       -7.4333  -21.8450  -52.0332 H         1 UNK         0.0600 
    235 H235       -8.2186  -18.8968  -55.1829 H         1 UNK         0.3000 
    236 H236       -7.4123  -18.0364  -52.4864 H         1 UNK         0.0600 
    237 H237       -9.7463  -17.7433  -53.2866 H         1 UNK         0.0600 
    238 H238       -8.9819  -16.1971  -52.9681 H         1 UNK         0.0600 
    239 H239       -9.1750  -16.7504  -54.6270 H         1 UNK         0.0600 
    240 H240       -5.8607  -18.0819  -55.3798 H         1 UNK         0.3000 
    241 H241       -4.2279  -17.1512  -56.3690 H         1 UNK         0.0600 
    242 H242       -6.9508  -15.4155  -56.1588 H         1 UNK         0.3800 
    243 H243       -6.4722  -14.0780  -57.1707 H         1 UNK         0.3800 
    244 H244       -3.1544  -17.1429  -54.0806 H         1 UNK         0.0800 
    245 H245       -2.4147  -16.1898  -55.3185 H         1 UNK         0.0800 
    246 H246       -3.4626  -14.7233  -51.2323 H         1 UNK         0.0800 
    247 H247       -3.8874  -16.2951  -51.8575 H         1 UNK         0.0800 
@<TRIPOS>BOND
     1    1    2 1    
     2    1  127 1    
     3    1  128 1    
     4    1  129 1    
     5    2    3 2    
     6    2    4 am   BACKBONE|DICT|INTERRES
     7    4    5 1    
     8    4  130 1    
     9    5    6 1    
    10    5   65 1    
    11    5  131 1    
    12    6    7 1    
    13    6  132 1    
    14    6  133 1    
    15    7    8 1    
    16    8    9 1    
    17    8  134 1    
    18    8  135 1    
    19    9   10 ar   
    20    9   14 ar   
    21   10   11 ar   
    22   10  136 1    
    23   11   12 ar   
    24   11  126 1    
    25   12   13 ar   
    26   12  137 1    
    27   13   14 ar   
    28   13   15 1    
    29   14  138 1    
    30   15   16 1    
    31   15  139 1    
    32   15  140 1    
    33   16   17 1    
    34   17   18 1    
    35   17  141 1    
    36   17  142 1    
    37   18   19 1    
    38   18   67 1    
    39   18  143 1    
    40   19   20 am   BACKBONE|DICT|INTERRES
    41   19  144 1    
    42   20   21 2    
    43   20   22 1    
    44   22   23 1    
    45   22   24 1    
    46   22  145 1    
    47   23  146 1    
    48   23  147 1    
    49   23  148 1    
    50   24   25 am   BACKBONE|DICT|INTERRES
    51   24  149 1    
    52   25   26 2    
    53   25   27 1    
    54   27   28 1    
    55   27   29 1    
    56   27  150 1    
    57   28  151 1    
    58   28  152 1    
    59   28  153 1    
    60   29   30 am   BACKBONE|DICT|INTERRES
    61   29  154 1    
    62   30   31 2    
    63   30   32 1    
    64   32   33 1    
    65   32   34 1    
    66   32  155 1    
    67   33  156 1    
    68   33  157 1    
    69   33  158 1    
    70   34   35 am   BACKBONE|DICT|INTERRES
    71   34  159 1    
    72   35   36 2    
    73   35   37 1    
    74   37   38 1    
    75   37   39 1    
    76   37  160 1    
    77   38  161 1    
    78   38  162 1    
    79   38  163 1    
    80   39   40 am   BACKBONE|DICT|INTERRES
    81   39  164 1    
    82   40   41 2    
    83   40   42 1    
    84   42   43 1    
    85   42   44 1    
    86   42  165 1    
    87   43  166 1    
    88   43  167 1    
    89   43  168 1    
    90   44   45 am   BACKBONE|DICT|INTERRES
    91   44  169 1    
    92   45   46 2    
    93   45   47 1    
    94   47   48 1    
    95   47   49 1    
    96   47  170 1    
    97   48  171 1    
    98   48  172 1    
    99   48  173 1    
   100   49   50 am   BACKBONE|DICT|INTERRES
   101   49  174 1    
   102   50   51 2    
   103   50   52 1    
   104   52   53 1    
   105   52   54 1    
   106   52  175 1    
   107   53  176 1    
   108   53  177 1    
   109   53  178 1    
   110   54   55 am   BACKBONE|DICT|INTERRES
   111   54  179 1    
   112   55   56 2    
   113   55   57 1    
   114   57   58 1    
   115   57   59 1    
   116   57  180 1    
   117   58  181 1    
   118   58  182 1    
   119   58  183 1    
   120   59   60 am   BACKBONE|DICT|INTERRES
   121   59  184 1    
   122   60   61 2    
   123   60   62 1    
   124   62   63 1    
   125   62   64 1    
   126   62  185 1    
   127   63  186 1    
   128   63  187 1    
   129   63  188 1    
   130   64   65 am   BACKBONE|DICT|INTERRES
   131   64  189 1    
   132   65   66 2    
   133   67   68 2    
   134   67   69 am   BACKBONE|DICT|INTERRES
   135   69   70 1    
   136   69  190 1    
   137   70   71 1    
   138   70   72 1    
   139   70  191 1    
   140   71  192 1    
   141   71  193 1    
   142   71  194 1    
   143   72   73 2    
   144   72   74 am   BACKBONE|DICT|INTERRES
   145   74   75 1    
   146   74  195 1    
   147   75   76 1    
   148   75   77 1    
   149   75  196 1    
   150   76  197 1    
   151   76  198 1    
   152   76  199 1    
   153   77   78 2    
   154   77   79 am   BACKBONE|DICT|INTERRES
   155   79   80 1    
   156   79  200 1    
   157   80   81 1    
   158   80   82 1    
   159   80  201 1    
   160   81  202 1    
   161   81  203 1    
   162   81  204 1    
   163   82   83 2    
   164   82   84 am   BACKBONE|DICT|INTERRES
   165   84   85 1    
   166   84  205 1    
   167   85   86 1    
   168   85   87 1    
   169   85  206 1    
   170   86  207 1    
   171   86  208 1    
   172   86  209 1    
   173   87   88 2    
   174   87   89 am   BACKBONE|DICT|INTERRES
   175   89   90 1    
   176   89  210 1    
   177   90   91 1    
   178   90   92 1    
   179   90  211 1    
   180   91  212 1    
   181   91  213 1    
   182   91  214 1    
   183   92   93 2    
   184   92   94 am   BACKBONE|DICT|INTERRES
   185   94   95 1    
   186   94  215 1    
   187   95   96 1    
   188   95   97 1    
   189   95  216 1    
   190   96  217 1    
   191   96  218 1    
   192   96  219 1    
   193   97   98 2    
   194   97   99 am   BACKBONE|DICT|INTERRES
   195   99  100 1    
   196   99  220 1    
   197  100  101 1    
   198  100  102 1    
   199  100  221 1    
   200  101  222 1    
   201  101  223 1    
   202  101  224 1    
   203  102  103 2    
   204  102  104 am   BACKBONE|DICT|INTERRES
   205  104  105 1    
   206  104  225 1    
   207  105  106 1    
   208  105  107 1    
   209  105  226 1    
   210  106  227 1    
   211  106  228 1    
   212  106  229 1    
   213  107  108 2    
   214  107  109 am   BACKBONE|DICT|INTERRES
   215  109  110 1    
   216  109  230 1    
   217  110  111 1    
   218  110  112 1    
   219  110  231 1    
   220  111  232 1    
   221  111  233 1    
   222  111  234 1    
   223  112  113 2    
   224  112  114 am   BACKBONE|DICT|INTERRES
   225  114  115 1    
   226  114  235 1    
   227  115  116 1    
   228  115  117 1    
   229  115  236 1    
   230  116  237 1    
   231  116  238 1    
   232  116  239 1    
   233  117  118 2    
   234  117  119 am   BACKBONE|DICT|INTERRES
   235  119  120 1    
   236  119  240 1    
   237  120  121 1    
   238  120  124 1    
   239  120  241 1    
   240  121  122 am   BACKBONE|DICT|INTERRES
   241  121  123 2    
   242  122  242 1    
   243  122  243 1    
   244  124  125 1    
   245  124  244 1    
   246  124  245 1    
   247  125  126 1    
   248  126  246 1    
   249  126  247 1    
@<TRIPOS>SUBSTRUCTURE
     1 UNK         1 GROUP             0       ****    0 ROOT    
