@<TRIPOS>MOLECULE
3R540
247   249    1
SMALL
USER_CHARGES


@<TRIPOS>ATOM
      1 CA          3.5485  -13.4260  -47.0672 C.3       0 UNK        -0.1800 
      2 C           3.1310  -14.4570  -48.1059 C.2       0 UNK         0.5000 
      3 O           3.9801  -14.9724  -48.8322 O.2       0 UNK        -0.5000 
      4 N           1.8292  -14.7558  -48.1780 N.am      1 UNK        -0.5000 
      5 CA          1.2540  -15.7765  -49.0587 C.3       1 UNK         0.1400 
      6 C6         -0.2545  -15.5393  -49.3012 C.3       23 UNK        -0.0398 
      7 S7         -0.5490  -14.0611  -50.3359 S.3       23 UNK        -0.2404 
      8 C8         -2.2046  -13.5246  -49.7931 C.3       23 UNK        -0.0205 
      9 C9         -3.2372  -14.6242  -49.9828 C.ar      23 UNK        -0.0193 
     10 C10        -3.8371  -14.8401  -51.2279 C.ar      23 UNK        -0.1150 
     11 C11        -4.7307  -15.9017  -51.4144 C.ar      23 UNK        -0.0193 
     12 C12        -5.0023  -16.7577  -50.3389 C.ar      23 UNK        -0.1150 
     13 C13        -4.4146  -16.5435  -49.0911 C.ar      23 UNK        -0.0193 
     14 C14        -3.5563  -15.4595  -48.9122 C.ar      23 UNK        -0.1150 
     15 C15        -4.6538  -17.5060  -47.9437 C.3       23 UNK        -0.0205 
     16 S16        -3.1404  -18.4538  -47.6119 S.3       23 UNK        -0.2404 
     17 C17        -3.6619  -19.4463  -46.1832 C.3       23 UNK        -0.0398 
     18 CA         -2.7567  -20.6914  -46.0177 C.3       11 UNK         0.1400 
     19 N          -2.3331  -20.8888  -44.6264 N.am      11 UNK        -0.5000 
     20 C          -1.3653  -21.7337  -44.2431 C.2       10 UNK         0.5000 
     21 O          -0.8244  -22.5286  -45.0130 O.2       10 UNK        -0.5000 
     22 CA         -0.9129  -21.6459  -42.7755 C.3       10 UNK         0.1400 
     23 CB          0.5009  -22.2161  -42.5603 C.3       10 UNK        -0.1800 
     24 N          -0.9463  -20.2551  -42.3172 N.am      10 UNK        -0.5000 
     25 C          -1.5124  -19.8295  -41.1822 C.2       9 UNK         0.5000 
     26 O          -2.0814  -20.5710  -40.3806 O.2       9 UNK        -0.5000 
     27 CA         -1.4305  -18.3187  -40.8829 C.3       9 UNK         0.1400 
     28 CB         -0.2910  -18.0368  -39.8933 C.3       9 UNK        -0.1800 
     29 N          -1.2773  -17.4647  -42.0709 N.am      9 UNK        -0.5000 
     30 C          -2.2480  -17.2692  -42.9782 C.2       8 UNK         0.5000 
     31 O          -3.3314  -17.8520  -42.9300 O.2       8 UNK        -0.5000 
     32 CA         -1.9733  -16.2723  -44.1232 C.3       8 UNK         0.1400 
     33 CB         -3.2421  -15.5312  -44.5829 C.3       8 UNK        -0.1800 
     34 N          -0.9476  -15.2939  -43.7584 N.am      8 UNK        -0.5000 
     35 C           0.0326  -14.8741  -44.5669 C.2       7 UNK         0.5000 
     36 O           0.1878  -15.2742  -45.7200 O.2       7 UNK        -0.5000 
     37 CA          1.0319  -13.8436  -44.0086 C.3       7 UNK         0.1400 
     38 CB          0.6621  -12.4360  -44.4998 C.3       7 UNK        -0.1800 
     39 N           1.1635  -13.8185  -42.5496 N.am      7 UNK        -0.5000 
     40 C           1.5368  -14.8449  -41.7764 C.2       6 UNK         0.5000 
     41 O           1.7374  -15.9919  -42.1991 O.2       6 UNK        -0.5000 
     42 CA          1.6801  -14.5362  -40.2774 C.3       6 UNK         0.1400 
     43 CB          0.3402  -14.1101  -39.6473 C.3       6 UNK        -0.1800 
     44 N           2.1863  -15.7377  -39.6358 N.am      6 UNK        -0.5000 
     45 C           2.8777  -15.8251  -38.4963 C.2       5 UNK         0.5000 
     46 O           3.0838  -14.8741  -37.7415 O.2       5 UNK        -0.5000 
     47 CA          3.4558  -17.2169  -38.1572 C.3       5 UNK         0.1400 
     48 CB          2.5860  -17.9184  -37.1027 C.3       5 UNK        -0.1800 
     49 N           3.5827  -18.0932  -39.3301 N.am      5 UNK        -0.5000 
     50 C           4.4320  -17.8873  -40.3475 C.2       4 UNK         0.5000 
     51 O           5.2605  -16.9747  -40.3579 O.2       4 UNK        -0.5000 
     52 CA          4.3293  -18.8233  -41.5671 C.3       4 UNK         0.1400 
     53 CB          3.1841  -19.8538  -41.4959 C.3       4 UNK        -0.1800 
     54 N           4.1489  -18.0124  -42.7692 N.am      4 UNK        -0.5000 
     55 C           5.1138  -17.7183  -43.6494 C.2       3 UNK         0.5000 
     56 O           6.2754  -18.1207  -43.5535 O.2       3 UNK        -0.5000 
     57 CA          4.6905  -16.8403  -44.8485 C.3       3 UNK         0.1400 
     58 CB          5.7669  -16.7710  -45.9516 C.3       3 UNK        -0.1800 
     59 N           3.3959  -17.2310  -45.4223 N.am      3 UNK        -0.5000 
     60 C           3.0485  -18.4375  -45.9026 C.2       2 UNK         0.5000 
     61 O           3.7931  -19.4167  -45.9398 O.2       2 UNK        -0.5000 
     62 CA          1.6121  -18.5612  -46.4353 C.3       2 UNK         0.1400 
     63 CB          0.6312  -18.7671  -45.2723 C.3       2 UNK        -0.1800 
     64 N           1.2303  -17.3739  -47.1977 N.am      2 UNK        -0.5000 
     65 C           1.5261  -17.1838  -48.4902 C.2       1 UNK         0.5000 
     66 O           2.0302  -18.0463  -49.2100 O.2       1 UNK        -0.5000 
     67 C          -3.3776  -21.9411  -46.6759 C.2       11 UNK         0.5000 
     68 O          -3.2574  -22.1052  -47.8906 O.2       11 UNK        -0.5000 
     69 N          -3.9935  -22.8127  -45.8649 N.am      12 UNK        -0.5000 
     70 CA         -4.5298  -24.1038  -46.2964 C.3       12 UNK         0.1400 
     71 CB         -5.4355  -24.6730  -45.1940 C.3       12 UNK        -0.1800 
     72 C          -3.4201  -25.1076  -46.6612 C.2       12 UNK         0.5000 
     73 O          -3.5620  -25.8361  -47.6430 O.2       12 UNK        -0.5000 
     74 N          -2.3230  -25.1031  -45.8896 N.am      13 UNK        -0.5000 
     75 CA         -1.1374  -25.9294  -46.1293 C.3       13 UNK         0.1400 
     76 CB         -0.2899  -25.9978  -44.8497 C.3       13 UNK        -0.1800 
     77 C          -0.3051  -25.4032  -47.3116 C.2       13 UNK         0.5000 
     78 O           0.2212  -26.1983  -48.0903 O.2       13 UNK        -0.5000 
     79 N          -0.2413  -24.0713  -47.4466 N.am      14 UNK        -0.5000 
     80 CA          0.3783  -23.3682  -48.5719 C.3       14 UNK         0.1400 
     81 CB          0.6373  -21.9110  -48.1607 C.3       14 UNK        -0.1800 
     82 C          -0.4607  -23.4171  -49.8661 C.2       14 UNK         0.5000 
     83 O           0.0324  -22.9937  -50.9112 O.2       14 UNK        -0.5000 
     84 N          -1.7117  -23.8934  -49.7745 N.am      15 UNK        -0.5000 
     85 CA         -2.7066  -24.0201  -50.8434 C.3       15 UNK         0.1400 
     86 CB         -2.3005  -25.1363  -51.8269 C.3       15 UNK        -0.1800 
     87 C          -3.0020  -22.6783  -51.5426 C.2       15 UNK         0.5000 
     88 O          -3.0384  -22.6169  -52.7733 O.2       15 UNK        -0.5000 
     89 N          -3.1803  -21.6207  -50.7360 N.am      16 UNK        -0.5000 
     90 CA         -3.3949  -20.2298  -51.1528 C.3       16 UNK         0.1400 
     91 CB         -4.7482  -20.0891  -51.8813 C.3       16 UNK        -0.1800 
     92 C          -2.2125  -19.6766  -51.9767 C.2       16 UNK         0.5000 
     93 O          -2.4239  -19.0845  -53.0339 O.2       16 UNK        -0.5000 
     94 N          -0.9844  -19.9332  -51.4999 N.am      17 UNK        -0.5000 
     95 CA          0.2934  -19.6551  -52.1732 C.3       17 UNK         0.1400 
     96 CB          0.5184  -18.1375  -52.3423 C.3       17 UNK        -0.1800 
     97 C           0.4257  -20.4314  -53.5020 C.2       17 UNK         0.5000 
     98 O           0.8335  -19.8683  -54.5192 O.2       17 UNK        -0.5000 
     99 N           0.0380  -21.7138  -53.4594 N.am      18 UNK        -0.5000 
    100 CA        -0.0275  -22.6851  -54.5563 C.3       18 UNK         0.1400 
    101 CB         1.3816  -22.9769  -55.1119 C.3       18 UNK        -0.1800 
    102 C         -1.0399  -22.3422  -55.6729 C.2       18 UNK         0.5000 
    103 O         -1.0167  -22.9892  -56.7216 O.2       18 UNK        -0.5000 
    104 N         -1.9209  -21.3579  -55.4451 N.am      19 UNK        -0.5000 
    105 CA        -2.9479  -20.9361  -56.3985 C.3       19 UNK         0.1400 
    106 CB        -3.3541  -19.4869  -56.0972 C.3       19 UNK        -0.1800 
    107 C         -4.1904  -21.8455  -56.3932 C.2       19 UNK         0.5000 
    108 O         -4.9318  -21.8278  -57.3751 O.2       19 UNK        -0.5000 
    109 N         -4.3944  -22.6033  -55.3023 N.am      20 UNK        -0.5000 
    110 CA        -5.5385  -23.4715  -55.0088 C.3       20 UNK         0.1400 
    111 CB        -5.6731  -24.6065  -56.0446 C.3       20 UNK        -0.1800 
    112 C         -6.8298  -22.6468  -54.8502 C.2       20 UNK         0.5000 
    113 O         -7.5562  -22.4278  -55.8217 O.2       20 UNK        -0.5000 
    114 N         -7.0566  -22.1573  -53.6216 N.am      21 UNK        -0.5000 
    115 CA        -8.1850  -21.3094  -53.2041 C.3       21 UNK         0.1400 
    116 CB        -9.5057  -22.1067  -53.2388 C.3       21 UNK        -0.1800 
    117 C         -8.2652  -19.9762  -53.9819 C.2       21 UNK         0.5000 
    118 O         -9.3587  -19.4845  -54.2661 O.2       21 UNK        -0.5000 
    119 N         -7.0883  -19.4332  -54.3196 N.am      22 UNK        -0.5000 
    120 CA        -6.8734  -18.2183  -55.1247 C.3       22 UNK         0.1400 
    121 C         -7.2379  -18.3698  -56.6343 C.2       22 UNK         0.5000 
    122 N         -7.4744  -19.5703  -57.1510 N.am      22 UNK        -0.7600 
    123 O         -7.2762  -17.3830  -57.3641 O.2       22 UNK        -0.5000 
    124 C124       -7.4697  -16.9223  -54.4988 C.3       23 UNK        -0.0398 
    125 S125       -7.0829  -16.6885  -52.7289 S.3       23 UNK        -0.2404 
    126 C126       -5.3416  -16.1440  -52.7936 C.3       23 UNK        -0.0205 
    127 H127        4.2229  -12.6950  -47.5130 H         1 UNK         0.0600 
    128 H128        4.0687  -13.9117  -46.2419 H         1 UNK         0.0600 
    129 H129        2.6906  -12.8883  -46.6654 H         1 UNK         0.0600 
    130 H130        1.1801  -14.3298  -47.5303 H         1 UNK         0.3000 
    131 H131        1.7592  -15.7233  -50.0260 H         1 UNK         0.0600 
    132 H132       -0.7709  -15.4282  -48.3470 H         1 UNK         0.0800 
    133 H133       -0.7182  -16.3916  -49.8003 H         1 UNK         0.0800 
    134 H134       -2.4978  -12.6414  -50.3622 H         1 UNK         0.0800 
    135 H135       -2.1600  -13.2148  -48.7477 H         1 UNK         0.0800 
    136 H136       -3.5859  -14.1945  -52.0579 H         1 UNK         0.1150 
    137 H137       -5.6644  -17.6005  -50.4716 H         1 UNK         0.1150 
    138 H138       -3.0935  -15.3034  -47.9480 H         1 UNK         0.1150 
    139 H139       -4.9473  -16.9487  -47.0534 H         1 UNK         0.0800 
    140 H140       -5.4714  -18.1909  -48.1739 H         1 UNK         0.0800 
    141 H141       -4.7175  -19.7116  -46.2719 H         1 UNK         0.0800 
    142 H142       -3.5981  -18.7949  -45.3140 H         1 UNK         0.0800 
    143 H143       -1.8275  -20.5141  -46.5608 H         1 UNK         0.0600 
    144 H144       -2.7482  -20.2829  -43.9319 H         1 UNK         0.3000 
    145 H145       -1.6167  -22.2539  -42.2040 H         1 UNK         0.0600 
    146 H146        0.8140  -22.1141  -41.5211 H         1 UNK         0.0600 
    147 H147        0.5380  -23.2778  -42.8059 H         1 UNK         0.0600 
    148 H148        1.2369  -21.7089  -43.1845 H         1 UNK         0.0600 
    149 H149       -0.5151  -19.5719  -42.9213 H         1 UNK         0.3000 
    150 H150       -2.3679  -18.0470  -40.3924 H         1 UNK         0.0600 
    151 H151       -0.3097  -18.7376  -39.0575 H         1 UNK         0.0600 
    152 H152       -0.3798  -17.0398  -39.4672 H         1 UNK         0.0600 
    153 H153        0.6840  -18.1180  -40.3689 H         1 UNK         0.0600 
    154 H154       -0.3927  -16.9876  -42.1846 H         1 UNK         0.3000 
    155 H155       -1.6255  -16.8771  -44.9620 H         1 UNK         0.0600 
    156 H156       -3.6586  -14.9182  -43.7831 H         1 UNK         0.0600 
    157 H157       -4.0167  -16.2291  -44.9014 H         1 UNK         0.0600 
    158 H158       -3.0301  -14.8787  -45.4299 H         1 UNK         0.0600 
    159 H159       -1.0110  -14.8994  -42.8308 H         1 UNK         0.3000 
    160 H160        2.0110  -14.1012  -44.4167 H         1 UNK         0.0600 
    161 H161       -0.2747  -12.0914  -44.0601 H         1 UNK         0.0600 
    162 H162        0.5398  -12.4128  -45.5835 H         1 UNK         0.0600 
    163 H163        1.4382  -11.7133  -44.2472 H         1 UNK         0.0600 
    164 H164        1.0053  -12.9220  -42.1121 H         1 UNK         0.3000 
    165 H165        2.4143  -13.7365  -40.1614 H         1 UNK         0.0600 
    166 H166        0.4160  -14.0333  -38.5626 H         1 UNK         0.0600 
    167 H167        0.0295  -13.1316  -40.0144 H         1 UNK         0.0600 
    168 H168       -0.4618  -14.8106  -39.8779 H         1 UNK         0.0600 
    169 H169        2.1307  -16.5551  -40.2284 H         1 UNK         0.3000 
    170 H170        4.4514  -17.0650  -37.7351 H         1 UNK         0.0600 
    171 H171        2.5005  -17.3108  -36.2008 H         1 UNK         0.0600 
    172 H172        1.5761  -18.1023  -37.4700 H         1 UNK         0.0600 
    173 H173        3.0170  -18.8754  -36.8080 H         1 UNK         0.0600 
    174 H174        2.9492  -18.8775  -39.3777 H         1 UNK         0.3000 
    175 H175        5.2680  -19.3788  -41.6140 H         1 UNK         0.0600 
    176 H176        2.2030  -19.3810  -41.4984 H         1 UNK         0.0600 
    177 H177        3.2227  -20.5205  -42.3574 H         1 UNK         0.0600 
    178 H178        3.2606  -20.4832  -40.6086 H         1 UNK         0.0600 
    179 H179        3.2445  -17.5721  -42.8818 H         1 UNK         0.3000 
    180 H180        4.5600  -15.8323  -44.4521 H         1 UNK         0.0600 
    181 H181        5.9813  -17.7551  -46.3693 H         1 UNK         0.0600 
    182 H182        6.7027  -16.3689  -45.5619 H         1 UNK         0.0600 
    183 H183        5.4544  -16.1232  -46.7696 H         1 UNK         0.0600 
    184 H184        2.6921  -16.5089  -45.4397 H         1 UNK         0.3000 
    185 H185        1.5611  -19.4374  -47.0831 H         1 UNK         0.0600 
    186 H186        0.8637  -19.6885  -44.7381 H         1 UNK         0.0600 
    187 H187        0.6758  -17.9488  -44.5532 H         1 UNK         0.0600 
    188 H188       -0.3926  -18.8442  -45.6347 H         1 UNK         0.0600 
    189 H189        0.8056  -16.6073  -46.6778 H         1 UNK         0.3000 
    190 H190       -4.0538  -22.5970  -44.8807 H         1 UNK         0.3000 
    191 H191       -5.1394  -23.9413  -47.1881 H         1 UNK         0.0600 
    192 H192       -4.8879  -24.8385  -44.2654 H         1 UNK         0.0600 
    193 H193       -5.8645  -25.6291  -45.4970 H         1 UNK         0.0600 
    194 H194       -6.2654  -23.9995  -44.9793 H         1 UNK         0.0600 
    195 H195       -2.2567  -24.4297  -45.1401 H         1 UNK         0.3000 
    196 H196       -1.4647  -26.9425  -46.3732 H         1 UNK         0.0600 
    197 H197        0.5728  -26.6502  -44.9901 H         1 UNK         0.0600 
    198 H198       -0.8663  -26.3965  -44.0149 H         1 UNK         0.0600 
    199 H199        0.0872  -25.0170  -44.5599 H         1 UNK         0.0600 
    200 H200       -0.6368  -23.4946  -46.7098 H         1 UNK         0.3000 
    201 H201        1.3397  -23.8393  -48.7860 H         1 UNK         0.0600 
    202 H202        1.2057  -21.8589  -47.2318 H         1 UNK         0.0600 
    203 H203       -0.2934  -21.3637  -48.0178 H         1 UNK         0.0600 
    204 H204        1.2116  -21.3839  -48.9239 H         1 UNK         0.0600 
    205 H205       -2.0322  -24.1656  -48.8560 H         1 UNK         0.3000 
    206 H206       -3.6378  -24.3240  -50.3633 H         1 UNK         0.0600 
    207 H207       -3.0689  -25.2922  -52.5851 H         1 UNK         0.0600 
    208 H208       -2.1621  -26.0841  -51.3066 H         1 UNK         0.0600 
    209 H209       -1.3706  -24.9022  -52.3446 H         1 UNK         0.0600 
    210 H210       -3.1434  -21.7813  -49.7306 H         1 UNK         0.3000 
    211 H211       -3.4451  -19.6309  -50.2444 H         1 UNK         0.0600 
    212 H212       -4.9514  -19.0495  -52.1321 H         1 UNK         0.0600 
    213 H213       -5.5702  -20.4408  -51.2583 H         1 UNK         0.0600 
    214 H214       -4.7621  -20.6482  -52.8157 H         1 UNK         0.0600 
    215 H215       -0.9168  -20.4688  -50.6470 H         1 UNK         0.3000 
    216 H216        1.0766  -20.0333  -51.5143 H         1 UNK         0.0600 
    217 H217        1.5264  -17.9320  -52.7038 H         1 UNK         0.0600 
    218 H218        0.4042  -17.6165  -51.3952 H         1 UNK         0.0600 
    219 H219       -0.1797  -17.6946  -53.0531 H         1 UNK         0.0600 
    220 H220       -0.2279  -22.0886  -52.5518 H         1 UNK         0.3000 
    221 H221       -0.3951  -23.6067  -54.1050 H         1 UNK         0.0600 
    222 H222        1.7931  -22.1193  -55.6446 H         1 UNK         0.0600 
    223 H223        2.0736  -23.2398  -54.3118 H         1 UNK         0.0600 
    224 H224        1.3631  -23.8149  -55.8095 H         1 UNK         0.0600 
    225 H225       -1.8952  -20.8757  -54.5558 H         1 UNK         0.3000 
    226 H226       -2.5230  -20.9608  -57.4042 H         1 UNK         0.0600 
    227 H227       -2.4867  -18.8270  -56.0711 H         1 UNK         0.0600 
    228 H228       -4.0330  -19.1057  -56.8610 H         1 UNK         0.0600 
    229 H229       -3.8642  -19.4106  -55.1379 H         1 UNK         0.0600 
    230 H230       -3.7227  -22.5235  -54.5417 H         1 UNK         0.3000 
    231 H231       -5.3255  -23.9418  -54.0474 H         1 UNK         0.0600 
    232 H232       -4.7504  -25.1821  -56.1178 H         1 UNK         0.0600 
    233 H233       -5.9148  -24.2344  -57.0402 H         1 UNK         0.0600 
    234 H234       -6.4665  -25.2972  -55.7574 H         1 UNK         0.0600 
    235 H235       -6.3938  -22.3815  -52.8931 H         1 UNK         0.3000 
    236 H236       -7.9956  -21.0371  -52.1649 H         1 UNK         0.0600 
    237 H237      -10.3225  -21.5307  -52.8022 H         1 UNK         0.0600 
    238 H238       -9.7966  -22.3651  -54.2574 H         1 UNK         0.0600 
    239 H239       -9.4228  -23.0319  -52.6687 H         1 UNK         0.0600 
    240 H240       -6.2528  -19.9280  -54.0499 H         1 UNK         0.3000 
    241 H241       -5.7935  -18.0810  -55.1321 H         1 UNK         0.0600 
    242 H242       -7.6892  -19.6482  -58.1321 H         1 UNK         0.3800 
    243 H243       -7.4382  -20.4098  -56.5856 H         1 UNK         0.3800 
    244 H244       -7.1213  -16.0420  -55.0415 H         1 UNK         0.0800 
    245 H245       -8.5557  -16.9235  -54.6015 H         1 UNK         0.0800 
    246 H246       -5.2855  -15.2356  -53.3953 H         1 UNK         0.0800 
    247 H247       -4.7413  -16.8971  -53.3052 H         1 UNK         0.0800 
@<TRIPOS>BOND
     1    1    2 1    
     2    1  127 1    
     3    1  128 1    
     4    1  129 1    
     5    2    3 2    
     6    2    4 am   BACKBONE|DICT|INTERRES
     7    4    5 1    
     8    4  130 1    
     9    5    6 1    
    10    5   65 1    
    11    5  131 1    
    12    6    7 1    
    13    6  132 1    
    14    6  133 1    
    15    7    8 1    
    16    8    9 1    
    17    8  134 1    
    18    8  135 1    
    19    9   10 ar   
    20    9   14 ar   
    21   10   11 ar   
    22   10  136 1    
    23   11   12 ar   
    24   11  126 1    
    25   12   13 ar   
    26   12  137 1    
    27   13   14 ar   
    28   13   15 1    
    29   14  138 1    
    30   15   16 1    
    31   15  139 1    
    32   15  140 1    
    33   16   17 1    
    34   17   18 1    
    35   17  141 1    
    36   17  142 1    
    37   18   19 1    
    38   18   67 1    
    39   18  143 1    
    40   19   20 am   BACKBONE|DICT|INTERRES
    41   19  144 1    
    42   20   21 2    
    43   20   22 1    
    44   22   23 1    
    45   22   24 1    
    46   22  145 1    
    47   23  146 1    
    48   23  147 1    
    49   23  148 1    
    50   24   25 am   BACKBONE|DICT|INTERRES
    51   24  149 1    
    52   25   26 2    
    53   25   27 1    
    54   27   28 1    
    55   27   29 1    
    56   27  150 1    
    57   28  151 1    
    58   28  152 1    
    59   28  153 1    
    60   29   30 am   BACKBONE|DICT|INTERRES
    61   29  154 1    
    62   30   31 2    
    63   30   32 1    
    64   32   33 1    
    65   32   34 1    
    66   32  155 1    
    67   33  156 1    
    68   33  157 1    
    69   33  158 1    
    70   34   35 am   BACKBONE|DICT|INTERRES
    71   34  159 1    
    72   35   36 2    
    73   35   37 1    
    74   37   38 1    
    75   37   39 1    
    76   37  160 1    
    77   38  161 1    
    78   38  162 1    
    79   38  163 1    
    80   39   40 am   BACKBONE|DICT|INTERRES
    81   39  164 1    
    82   40   41 2    
    83   40   42 1    
    84   42   43 1    
    85   42   44 1    
    86   42  165 1    
    87   43  166 1    
    88   43  167 1    
    89   43  168 1    
    90   44   45 am   BACKBONE|DICT|INTERRES
    91   44  169 1    
    92   45   46 2    
    93   45   47 1    
    94   47   48 1    
    95   47   49 1    
    96   47  170 1    
    97   48  171 1    
    98   48  172 1    
    99   48  173 1    
   100   49   50 am   BACKBONE|DICT|INTERRES
   101   49  174 1    
   102   50   51 2    
   103   50   52 1    
   104   52   53 1    
   105   52   54 1    
   106   52  175 1    
   107   53  176 1    
   108   53  177 1    
   109   53  178 1    
   110   54   55 am   BACKBONE|DICT|INTERRES
   111   54  179 1    
   112   55   56 2    
   113   55   57 1    
   114   57   58 1    
   115   57   59 1    
   116   57  180 1    
   117   58  181 1    
   118   58  182 1    
   119   58  183 1    
   120   59   60 am   BACKBONE|DICT|INTERRES
   121   59  184 1    
   122   60   61 2    
   123   60   62 1    
   124   62   63 1    
   125   62   64 1    
   126   62  185 1    
   127   63  186 1    
   128   63  187 1    
   129   63  188 1    
   130   64   65 am   BACKBONE|DICT|INTERRES
   131   64  189 1    
   132   65   66 2    
   133   67   68 2    
   134   67   69 am   BACKBONE|DICT|INTERRES
   135   69   70 1    
   136   69  190 1    
   137   70   71 1    
   138   70   72 1    
   139   70  191 1    
   140   71  192 1    
   141   71  193 1    
   142   71  194 1    
   143   72   73 2    
   144   72   74 am   BACKBONE|DICT|INTERRES
   145   74   75 1    
   146   74  195 1    
   147   75   76 1    
   148   75   77 1    
   149   75  196 1    
   150   76  197 1    
   151   76  198 1    
   152   76  199 1    
   153   77   78 2    
   154   77   79 am   BACKBONE|DICT|INTERRES
   155   79   80 1    
   156   79  200 1    
   157   80   81 1    
   158   80   82 1    
   159   80  201 1    
   160   81  202 1    
   161   81  203 1    
   162   81  204 1    
   163   82   83 2    
   164   82   84 am   BACKBONE|DICT|INTERRES
   165   84   85 1    
   166   84  205 1    
   167   85   86 1    
   168   85   87 1    
   169   85  206 1    
   170   86  207 1    
   171   86  208 1    
   172   86  209 1    
   173   87   88 2    
   174   87   89 am   BACKBONE|DICT|INTERRES
   175   89   90 1    
   176   89  210 1    
   177   90   91 1    
   178   90   92 1    
   179   90  211 1    
   180   91  212 1    
   181   91  213 1    
   182   91  214 1    
   183   92   93 2    
   184   92   94 am   BACKBONE|DICT|INTERRES
   185   94   95 1    
   186   94  215 1    
   187   95   96 1    
   188   95   97 1    
   189   95  216 1    
   190   96  217 1    
   191   96  218 1    
   192   96  219 1    
   193   97   98 2    
   194   97   99 am   BACKBONE|DICT|INTERRES
   195   99  100 1    
   196   99  220 1    
   197  100  101 1    
   198  100  102 1    
   199  100  221 1    
   200  101  222 1    
   201  101  223 1    
   202  101  224 1    
   203  102  103 2    
   204  102  104 am   BACKBONE|DICT|INTERRES
   205  104  105 1    
   206  104  225 1    
   207  105  106 1    
   208  105  107 1    
   209  105  226 1    
   210  106  227 1    
   211  106  228 1    
   212  106  229 1    
   213  107  108 2    
   214  107  109 am   BACKBONE|DICT|INTERRES
   215  109  110 1    
   216  109  230 1    
   217  110  111 1    
   218  110  112 1    
   219  110  231 1    
   220  111  232 1    
   221  111  233 1    
   222  111  234 1    
   223  112  113 2    
   224  112  114 am   BACKBONE|DICT|INTERRES
   225  114  115 1    
   226  114  235 1    
   227  115  116 1    
   228  115  117 1    
   229  115  236 1    
   230  116  237 1    
   231  116  238 1    
   232  116  239 1    
   233  117  118 2    
   234  117  119 am   BACKBONE|DICT|INTERRES
   235  119  120 1    
   236  119  240 1    
   237  120  121 1    
   238  120  124 1    
   239  120  241 1    
   240  121  122 am   BACKBONE|DICT|INTERRES
   241  121  123 2    
   242  122  242 1    
   243  122  243 1    
   244  124  125 1    
   245  124  244 1    
   246  124  245 1    
   247  125  126 1    
   248  126  246 1    
   249  126  247 1    
@<TRIPOS>SUBSTRUCTURE
     1 UNK         1 GROUP             0       ****    0 ROOT    
