@<TRIPOS>MOLECULE
3R540
247   249    1
SMALL
USER_CHARGES


@<TRIPOS>ATOM
      1 CA          5.9956  -11.0648  -47.8000 C.3       0 UNK        -0.1800 
      2 C           4.9623  -12.1185  -48.1708 C.2       0 UNK         0.5000 
      3 O           4.2199  -11.9319  -49.1349 O.2       0 UNK        -0.5000 
      4 N           4.9005  -13.2099  -47.3956 N.am      1 UNK        -0.5000 
      5 CA          4.0113  -14.3765  -47.5196 C.3       1 UNK         0.1400 
      6 C6          4.1143  -15.1300  -48.8691 C.3       23 UNK        -0.0398 
      7 S7          5.7436  -15.8974  -49.1465 S.3       23 UNK        -0.2404 
      8 C8          5.5655  -16.4667  -50.8701 C.3       23 UNK        -0.0205 
      9 C9          4.3383  -17.3482  -51.0608 C.ar      23 UNK        -0.0193 
     10 C10         3.1635  -16.8086  -51.5916 C.ar      23 UNK        -0.1150 
     11 C11         2.0137  -17.5919  -51.7210 C.ar      23 UNK        -0.0193 
     12 C12         2.0536  -18.9381  -51.3452 C.ar      23 UNK        -0.1150 
     13 C13         3.2316  -19.4975  -50.8385 C.ar      23 UNK        -0.0193 
     14 C14         4.3677  -18.6950  -50.6909 C.ar      23 UNK        -0.1150 
     15 C15         3.2913  -20.9705  -50.4639 C.3       23 UNK        -0.0205 
     16 S16         2.6618  -21.2643  -48.7831 S.3       23 UNK        -0.2404 
     17 C17         0.8706  -21.4606  -49.0774 C.3       23 UNK        -0.0398 
     18 CA          0.2597  -22.5496  -48.1675 C.3       11 UNK         0.1400 
     19 N           0.3246  -22.1944  -46.7488 N.am      11 UNK        -0.5000 
     20 C           0.0351  -23.0238  -45.7381 C.2       10 UNK         0.5000 
     21 O          -0.2776  -24.2050  -45.8883 O.2       10 UNK        -0.5000 
     22 CA          0.0475  -22.4147  -44.3267 C.3       10 UNK         0.1400 
     23 CB          1.4766  -22.3418  -43.7677 C.3       10 UNK        -0.1800 
     24 N          -0.5604  -21.0842  -44.3084 N.am      10 UNK        -0.5000 
     25 C          -1.8724  -20.8537  -44.4547 C.2       9 UNK         0.5000 
     26 O          -2.7110  -21.7454  -44.5860 O.2       9 UNK        -0.5000 
     27 CA         -2.3163  -19.3794  -44.4943 C.3       9 UNK         0.1400 
     28 CB         -2.4631  -18.8231  -43.0705 C.3       9 UNK        -0.1800 
     29 N          -1.4015  -18.5335  -45.2652 N.am      9 UNK        -0.5000 
     30 C          -1.2336  -18.6404  -46.5922 C.2       8 UNK         0.5000 
     31 O          -1.8583  -19.4341  -47.2909 O.2       8 UNK        -0.5000 
     32 CA         -0.1642  -17.7550  -47.2559 C.3       8 UNK         0.1400 
     33 CB         -0.7702  -16.4130  -47.6816 C.3       8 UNK        -0.1800 
     34 N           1.0237  -17.5233  -46.4327 N.am      8 UNK        -0.5000 
     35 C           1.8114  -18.4934  -45.9410 C.2       7 UNK         0.5000 
     36 O           1.5586  -19.6924  -46.0429 O.2       7 UNK        -0.5000 
     37 CA          3.0800  -18.0674  -45.1922 C.3       7 UNK         0.1400 
     38 CB          4.2502  -17.9190  -46.1742 C.3       7 UNK        -0.1800 
     39 N           2.8566  -16.8147  -44.4681 N.am      7 UNK        -0.5000 
     40 C           2.8292  -16.7264  -43.1327 C.2       6 UNK         0.5000 
     41 O           3.1506  -17.6423  -42.3739 O.2       6 UNK        -0.5000 
     42 CA          2.3338  -15.3999  -42.5288 C.3       6 UNK         0.1400 
     43 CB          3.5042  -14.4177  -42.3714 C.3       6 UNK        -0.1800 
     44 N           1.2430  -14.7416  -43.2558 N.am      6 UNK        -0.5000 
     45 C           0.0681  -15.2942  -43.6046 C.2       5 UNK         0.5000 
     46 O          -0.1875  -16.4938  -43.4867 O.2       5 UNK        -0.5000 
     47 CA         -1.0047  -14.3464  -44.1884 C.3       5 UNK         0.1400 
     48 CB         -2.4370  -14.8983  -44.0473 C.3       5 UNK        -0.1800 
     49 N          -0.9286  -12.9766  -43.6743 N.am      5 UNK        -0.5000 
     50 C          -0.9540  -12.5653  -42.3961 C.2       4 UNK         0.5000 
     51 O          -1.1930  -13.3085  -41.4432 O.2       4 UNK        -0.5000 
     52 CA         -0.6252  -11.0728  -42.1440 C.3       4 UNK         0.1400 
     53 CB          0.1286  -10.8580  -40.8149 C.3       4 UNK        -0.1800 
     54 N           0.0969  -10.4282  -43.2532 N.am      4 UNK        -0.5000 
     55 C           1.2815  -10.7929  -43.7673 C.2       3 UNK         0.5000 
     56 O           1.9726  -11.7143  -43.3303 O.2       3 UNK        -0.5000 
     57 CA          1.7081  -10.0825  -45.0640 C.3       3 UNK         0.1400 
     58 CB          3.1576   -9.5780  -44.9752 C.3       3 UNK        -0.1800 
     59 N           1.5919  -10.9863  -46.2091 N.am      3 UNK        -0.5000 
     60 C           0.4708  -11.5914  -46.6300 C.2       2 UNK         0.5000 
     61 O          -0.6374  -11.4029  -46.1280 O.2       2 UNK        -0.5000 
     62 CA          0.6072  -12.5934  -47.7889 C.3       2 UNK         0.1400 
     63 CB          0.1782  -11.9459  -49.1121 C.3       2 UNK        -0.1800 
     64 N           1.9723  -13.0905  -47.9334 N.am      2 UNK        -0.5000 
     65 C           2.5352  -14.0623  -47.2090 C.2       1 UNK         0.5000 
     66 O           1.9459  -14.7125  -46.3421 O.2       1 UNK        -0.5000 
     67 C          -1.1778  -22.9056  -48.5971 C.2       11 UNK         0.5000 
     68 O          -1.3653  -23.9124  -49.2795 O.2       11 UNK        -0.5000 
     69 N          -2.1686  -22.1217  -48.1459 N.am      12 UNK        -0.5000 
     70 CA         -3.5915  -22.3955  -48.3427 C.3       12 UNK         0.1400 
     71 CB         -4.4366  -21.2270  -47.8203 C.3       12 UNK        -0.1800 
     72 C          -4.0360  -23.7061  -47.6783 C.2       12 UNK         0.5000 
     73 O          -4.7473  -24.4821  -48.3115 O.2       12 UNK        -0.5000 
     74 N          -3.5896  -23.9511  -46.4375 N.am      13 UNK        -0.5000 
     75 CA         -3.8580  -25.1859  -45.6974 C.3       13 UNK         0.1400 
     76 CB         -3.3419  -25.0578  -44.2566 C.3       13 UNK        -0.1800 
     77 C          -3.2726  -26.4314  -46.3882 C.2       13 UNK         0.5000 
     78 O          -3.9702  -27.4391  -46.5081 O.2       13 UNK        -0.5000 
     79 N          -2.0313  -26.3231  -46.8836 N.am      14 UNK        -0.5000 
     80 CA         -1.3538  -27.3569  -47.6717 C.3       14 UNK         0.1400 
     81 CB          0.1100  -26.9490  -47.8960 C.3       14 UNK        -0.1800 
     82 C          -2.0529  -27.6479  -49.0153 C.2       14 UNK         0.5000 
     83 O          -2.1041  -28.8031  -49.4382 O.2       14 UNK        -0.5000 
     84 N          -2.6116  -26.6027  -49.6379 N.am      15 UNK        -0.5000 
     85 CA         -3.4109  -26.6669  -50.8626 C.3       15 UNK         0.1400 
     86 CB         -3.3056  -25.3118  -51.5802 C.3       15 UNK        -0.1800 
     87 C          -4.8896  -27.0423  -50.6194 C.2       15 UNK         0.5000 
     88 O          -5.6656  -27.0481  -51.5756 O.2       15 UNK        -0.5000 
     89 N          -5.2740  -27.3134  -49.3614 N.am      16 UNK        -0.5000 
     90 CA         -6.6261  -27.6507  -48.8953 C.3       16 UNK         0.1400 
     91 CB         -7.0386  -29.0461  -49.4074 C.3       16 UNK        -0.1800 
     92 C          -7.6759  -26.5607  -49.2120 C.2       16 UNK         0.5000 
     93 O          -8.8374  -26.8756  -49.4762 O.2       16 UNK        -0.5000 
     94 N          -7.2293  -25.2965  -49.2000 N.am      17 UNK        -0.5000 
     95 CA         -7.9521  -24.0620  -49.5201 C.3       17 UNK         0.1400 
     96 CB         -9.1002  -23.8224  -48.5186 C.3       17 UNK        -0.1800 
     97 C          -8.4168  -23.9485  -50.9892 C.2       17 UNK         0.5000 
     98 O          -9.1939  -23.0457  -51.3043 O.2       17 UNK        -0.5000 
     99 N          -7.9323  -24.8335  -51.8727 N.am      18 UNK        -0.5000 
    100 CA        -8.2723  -24.8432  -53.2973 C.3       18 UNK         0.1400 
    101 CB        -8.0630  -26.2611  -53.8511 C.3       18 UNK        -0.1800 
    102 C         -7.4585  -23.8225  -54.1156 C.2       18 UNK         0.5000 
    103 O         -7.8699  -23.4727  -55.2228 O.2       18 UNK        -0.5000 
    104 N         -6.3228  -23.3721  -53.5717 N.am      19 UNK        -0.5000 
    105 CA        -5.3756  -22.4495  -54.1866 C.3       19 UNK         0.1400 
    106 CB        -4.5636  -23.1866  -55.2729 C.3       19 UNK        -0.1800 
    107 C         -4.4577  -21.8772  -53.0938 C.2       19 UNK         0.5000 
    108 O         -4.6015  -22.2346  -51.9226 O.2       19 UNK        -0.5000 
    109 N         -3.5230  -21.0096  -53.5072 N.am      20 UNK        -0.5000 
    110 CA        -2.3830  -20.4794  -52.7431 C.3       20 UNK         0.1400 
    111 CB        -1.4546  -21.6256  -52.2989 C.3       20 UNK        -0.1800 
    112 C         -2.7298  -19.5358  -51.5712 C.2       20 UNK         0.5000 
    113 O         -1.8233  -19.1025  -50.8585 O.2       20 UNK        -0.5000 
    114 N         -4.0111  -19.1834  -51.4160 N.am      21 UNK        -0.5000 
    115 CA        -4.5247  -18.2511  -50.4138 C.3       21 UNK         0.1400 
    116 CB        -5.9940  -18.6091  -50.1223 C.3       21 UNK        -0.1800 
    117 C         -4.3453  -16.7905  -50.8727 C.2       21 UNK         0.5000 
    118 O         -5.3290  -16.0769  -51.0767 O.2       21 UNK        -0.5000 
    119 N         -3.0854  -16.3816  -51.0582 N.am      22 UNK        -0.5000 
    120 CA        -2.6914  -15.0379  -51.5130 C.3       22 UNK         0.1400 
    121 C         -2.8280  -13.9001  -50.4569 C.2       22 UNK         0.5000 
    122 N         -3.1122  -14.1876  -49.1923 N.am      22 UNK        -0.7600 
    123 O         -2.7018  -12.7286  -50.8014 O.2       22 UNK        -0.5000 
    124 C124       -1.2992  -15.0442  -52.1961 C.3       23 UNK        -0.0398 
    125 S125        0.0463  -15.7236  -51.1621 S.3       23 UNK        -0.2404 
    126 C126        0.7410  -16.9784  -52.2839 C.3       23 UNK        -0.0205 
    127 H127        6.5771  -11.3558  -46.9249 H         1 UNK         0.0600 
    128 H128        6.6848  -10.9083  -48.6298 H         1 UNK         0.0600 
    129 H129        5.5028  -10.1175  -47.5810 H         1 UNK         0.0600 
    130 H130        5.5430  -13.2674  -46.6177 H         1 UNK         0.3000 
    131 H131        4.3417  -15.0552  -46.7332 H         1 UNK         0.0600 
    132 H132        3.3708  -15.9288  -48.9045 H         1 UNK         0.0800 
    133 H133        3.8862  -14.4707  -49.7076 H         1 UNK         0.0800 
    134 H134        5.5182  -15.5990  -51.5300 H         1 UNK         0.0800 
    135 H135        6.4617  -17.0188  -51.1566 H         1 UNK         0.0800 
    136 H136        3.1322  -15.7674  -51.8809 H         1 UNK         0.1150 
    137 H137        1.1695  -19.5502  -51.4497 H         1 UNK         0.1150 
    138 H138        5.2757  -19.1162  -50.2825 H         1 UNK         0.1150 
    139 H139        2.7457  -21.5711  -51.1928 H         1 UNK         0.0800 
    140 H140        4.3241  -21.3196  -50.5079 H         1 UNK         0.0800 
    141 H141        0.7222  -21.7326  -50.1213 H         1 UNK         0.0800 
    142 H142        0.3731  -20.5007  -48.9329 H         1 UNK         0.0800 
    143 H143        0.8536  -23.4574  -48.2952 H         1 UNK         0.0600 
    144 H144        0.6368  -21.2507  -46.5310 H         1 UNK         0.3000 
    145 H145       -0.5367  -23.0675  -43.6748 H         1 UNK         0.0600 
    146 H146        1.4825  -21.9490  -42.7509 H         1 UNK         0.0600 
    147 H147        1.9314  -23.3327  -43.7364 H         1 UNK         0.0600 
    148 H148        2.1205  -21.7064  -44.3762 H         1 UNK         0.0600 
    149 H149        0.0713  -20.2961  -44.2891 H         1 UNK         0.3000 
    150 H150       -3.2966  -19.3416  -44.9743 H         1 UNK         0.0600 
    151 H151       -3.1482  -19.4337  -42.4809 H         1 UNK         0.0600 
    152 H152       -2.8610  -17.8088  -43.0812 H         1 UNK         0.0600 
    153 H153       -1.5071  -18.8012  -42.5459 H         1 UNK         0.0600 
    154 H154       -0.8493  -17.8601  -44.7413 H         1 UNK         0.3000 
    155 H155        0.1717  -18.2665  -48.1600 H         1 UNK         0.0600 
    156 H156       -0.0267  -15.7791  -48.1632 H         1 UNK         0.0600 
    157 H157       -1.1855  -15.8689  -46.8353 H         1 UNK         0.0600 
    158 H158       -1.5751  -16.5697  -48.3999 H         1 UNK         0.0600 
    159 H159        1.2937  -16.5550  -46.3063 H         1 UNK         0.3000 
    160 H160        3.3322  -18.8738  -44.5005 H         1 UNK         0.0600 
    161 H161        3.9830  -17.2997  -47.0273 H         1 UNK         0.0600 
    162 H162        4.5420  -18.8922  -46.5711 H         1 UNK         0.0600 
    163 H163        5.1270  -17.4847  -45.6940 H         1 UNK         0.0600 
    164 H164        2.5517  -16.0103  -45.0061 H         1 UNK         0.3000 
    165 H165        1.9511  -15.6288  -41.5324 H         1 UNK         0.0600 
    166 H166        3.8593  -14.0593  -43.3385 H         1 UNK         0.0600 
    167 H167        3.2122  -13.5509  -41.7785 H         1 UNK         0.0600 
    168 H168        4.3476  -14.8858  -41.8619 H         1 UNK         0.0600 
    169 H169        1.3637  -13.7461  -43.4066 H         1 UNK         0.3000 
    170 H170       -0.7822  -14.2683  -45.2518 H         1 UNK         0.0600 
    171 H171       -2.7011  -15.0697  -43.0033 H         1 UNK         0.0600 
    172 H172       -2.5465  -15.8460  -44.5750 H         1 UNK         0.0600 
    173 H173       -3.1681  -14.2095  -44.4704 H         1 UNK         0.0600 
    174 H174       -0.7656  -12.2688  -44.3845 H         1 UNK         0.3000 
    175 H175       -1.5859  -10.5622  -42.0668 H         1 UNK         0.0600 
    176 H176        0.3508   -9.8032  -40.6534 H         1 UNK         0.0600 
    177 H177       -0.4676  -11.1952  -39.9663 H         1 UNK         0.0600 
    178 H178        1.0704  -11.4072  -40.7903 H         1 UNK         0.0600 
    179 H179       -0.4159   -9.6963  -43.7260 H         1 UNK         0.3000 
    180 H180        1.0550   -9.2247  -45.2369 H         1 UNK         0.0600 
    181 H181        3.8651  -10.3989  -44.8497 H         1 UNK         0.0600 
    182 H182        3.2838   -8.9034  -44.1275 H         1 UNK         0.0600 
    183 H183        3.4397   -9.0278  -45.8730 H         1 UNK         0.0600 
    184 H184        2.4538  -11.2302  -46.6720 H         1 UNK         0.3000 
    185 H185       -0.0606  -13.4319  -47.5842 H         1 UNK         0.0600 
    186 H186        0.1964  -12.6698  -49.9272 H         1 UNK         0.0600 
    187 H187       -0.8394  -11.5588  -49.0461 H         1 UNK         0.0600 
    188 H188        0.8297  -11.1150  -49.3855 H         1 UNK         0.0600 
    189 H189        2.5674  -12.6084  -48.6035 H         1 UNK         0.3000 
    190 H190       -1.9425  -21.2655  -47.6454 H         1 UNK         0.3000 
    191 H191       -3.7646  -22.4872  -49.4160 H         1 UNK         0.0600 
    192 H192       -4.1764  -20.3033  -48.3308 H         1 UNK         0.0600 
    193 H193       -5.4991  -21.4058  -47.9892 H         1 UNK         0.0600 
    194 H194       -4.2932  -21.0679  -46.7514 H         1 UNK         0.0600 
    195 H195       -3.0451  -23.2410  -45.9596 H         1 UNK         0.3000 
    196 H196       -4.9417  -25.3130  -45.6550 H         1 UNK         0.0600 
    197 H197       -3.5605  -25.9591  -43.6827 H         1 UNK         0.0600 
    198 H198       -3.8157  -24.2219  -43.7417 H         1 UNK         0.0600 
    199 H199       -2.2639  -24.9022  -44.2241 H         1 UNK         0.0600 
    200 H200       -1.5074  -25.4707  -46.7035 H         1 UNK         0.3000 
    201 H201       -1.3639  -28.2793  -47.0876 H         1 UNK         0.0600 
    202 H202        0.6298  -26.8093  -46.9480 H         1 UNK         0.0600 
    203 H203        0.1870  -26.0183  -48.4586 H         1 UNK         0.0600 
    204 H204        0.6487  -27.7161  -48.4535 H         1 UNK         0.0600 
    205 H205       -2.4716  -25.6769  -49.2467 H         1 UNK         0.3000 
    206 H206       -2.9909  -27.4303  -51.5203 H         1 UNK         0.0600 
    207 H207       -2.2694  -25.0654  -51.8123 H         1 UNK         0.0600 
    208 H208       -3.8574  -25.3114  -52.5209 H         1 UNK         0.0600 
    209 H209       -3.7063  -24.5090  -50.9618 H         1 UNK         0.0600 
    210 H210       -4.5759  -27.2399  -48.6317 H         1 UNK         0.3000 
    211 H211       -6.5660  -27.7027  -47.8074 H         1 UNK         0.0600 
    212 H212       -7.1759  -29.0558  -50.4891 H         1 UNK         0.0600 
    213 H213       -7.9775  -29.3680  -48.9555 H         1 UNK         0.0600 
    214 H214       -6.2869  -29.7949  -49.1577 H         1 UNK         0.0600 
    215 H215       -6.2507  -25.1504  -48.9496 H         1 UNK         0.3000 
    216 H216       -7.2273  -23.2584  -49.3814 H         1 UNK         0.0600 
    217 H217       -8.7447  -23.8844  -47.4901 H         1 UNK         0.0600 
    218 H218       -9.9037  -24.5489  -48.6415 H         1 UNK         0.0600 
    219 H219       -9.5350  -22.8310  -48.6497 H         1 UNK         0.0600 
    220 H220       -7.2919  -25.5517  -51.5543 H         1 UNK         0.3000 
    221 H221       -9.3290  -24.5919  -53.4104 H         1 UNK         0.0600 
    222 H222       -7.0120  -26.5507  -53.8297 H         1 UNK         0.0600 
    223 H223       -8.6264  -26.9977  -53.2778 H         1 UNK         0.0600 
    224 H224       -8.3984  -26.3280  -54.8867 H         1 UNK         0.0600 
    225 H225       -6.0758  -23.6501  -52.6301 H         1 UNK         0.3000 
    226 H226       -5.9256  -21.6196  -54.6345 H         1 UNK         0.0600 
    227 H227       -5.2117  -23.6050  -56.0428 H         1 UNK         0.0600 
    228 H228       -3.8678  -22.5166  -55.7784 H         1 UNK         0.0600 
    229 H229       -3.9815  -24.0055  -54.8481 H         1 UNK         0.0600 
    230 H230       -3.5272  -20.7506  -54.4841 H         1 UNK         0.3000 
    231 H231       -1.8210  -19.8669  -53.4495 H         1 UNK         0.0600 
    232 H232       -0.5078  -21.2317  -51.9345 H         1 UNK         0.0600 
    233 H233       -1.2249  -22.2956  -53.1273 H         1 UNK         0.0600 
    234 H234       -1.8991  -22.2199  -51.5001 H         1 UNK         0.0600 
    235 H235       -4.6862  -19.5741  -52.0556 H         1 UNK         0.3000 
    236 H236       -3.9570  -18.3656  -49.4885 H         1 UNK         0.0600 
    237 H237       -6.4020  -17.9735  -49.3355 H         1 UNK         0.0600 
    238 H238       -6.6224  -18.4864  -51.0052 H         1 UNK         0.0600 
    239 H239       -6.0918  -19.6420  -49.7889 H         1 UNK         0.0600 
    240 H240       -2.3323  -17.0387  -50.8852 H         1 UNK         0.3000 
    241 H241       -3.4017  -14.7598  -52.2941 H         1 UNK         0.0600 
    242 H242       -3.2541  -15.1402  -48.9044 H         1 UNK         0.3800 
    243 H243       -3.2215  -13.4370  -48.5300 H         1 UNK         0.3800 
    244 H244       -1.3668  -15.6243  -53.1172 H         1 UNK         0.0800 
    245 H245       -1.0165  -14.0386  -52.5122 H         1 UNK         0.0800 
    246 H246       -0.0095  -17.7474  -52.4715 H         1 UNK         0.0800 
    247 H247        0.9671  -16.5196  -53.2476 H         1 UNK         0.0800 
@<TRIPOS>BOND
     1    1    2 1    
     2    1  127 1    
     3    1  128 1    
     4    1  129 1    
     5    2    3 2    
     6    2    4 am   BACKBONE|DICT|INTERRES
     7    4    5 1    
     8    4  130 1    
     9    5    6 1    
    10    5   65 1    
    11    5  131 1    
    12    6    7 1    
    13    6  132 1    
    14    6  133 1    
    15    7    8 1    
    16    8    9 1    
    17    8  134 1    
    18    8  135 1    
    19    9   10 ar   
    20    9   14 ar   
    21   10   11 ar   
    22   10  136 1    
    23   11   12 ar   
    24   11  126 1    
    25   12   13 ar   
    26   12  137 1    
    27   13   14 ar   
    28   13   15 1    
    29   14  138 1    
    30   15   16 1    
    31   15  139 1    
    32   15  140 1    
    33   16   17 1    
    34   17   18 1    
    35   17  141 1    
    36   17  142 1    
    37   18   19 1    
    38   18   67 1    
    39   18  143 1    
    40   19   20 am   BACKBONE|DICT|INTERRES
    41   19  144 1    
    42   20   21 2    
    43   20   22 1    
    44   22   23 1    
    45   22   24 1    
    46   22  145 1    
    47   23  146 1    
    48   23  147 1    
    49   23  148 1    
    50   24   25 am   BACKBONE|DICT|INTERRES
    51   24  149 1    
    52   25   26 2    
    53   25   27 1    
    54   27   28 1    
    55   27   29 1    
    56   27  150 1    
    57   28  151 1    
    58   28  152 1    
    59   28  153 1    
    60   29   30 am   BACKBONE|DICT|INTERRES
    61   29  154 1    
    62   30   31 2    
    63   30   32 1    
    64   32   33 1    
    65   32   34 1    
    66   32  155 1    
    67   33  156 1    
    68   33  157 1    
    69   33  158 1    
    70   34   35 am   BACKBONE|DICT|INTERRES
    71   34  159 1    
    72   35   36 2    
    73   35   37 1    
    74   37   38 1    
    75   37   39 1    
    76   37  160 1    
    77   38  161 1    
    78   38  162 1    
    79   38  163 1    
    80   39   40 am   BACKBONE|DICT|INTERRES
    81   39  164 1    
    82   40   41 2    
    83   40   42 1    
    84   42   43 1    
    85   42   44 1    
    86   42  165 1    
    87   43  166 1    
    88   43  167 1    
    89   43  168 1    
    90   44   45 am   BACKBONE|DICT|INTERRES
    91   44  169 1    
    92   45   46 2    
    93   45   47 1    
    94   47   48 1    
    95   47   49 1    
    96   47  170 1    
    97   48  171 1    
    98   48  172 1    
    99   48  173 1    
   100   49   50 am   BACKBONE|DICT|INTERRES
   101   49  174 1    
   102   50   51 2    
   103   50   52 1    
   104   52   53 1    
   105   52   54 1    
   106   52  175 1    
   107   53  176 1    
   108   53  177 1    
   109   53  178 1    
   110   54   55 am   BACKBONE|DICT|INTERRES
   111   54  179 1    
   112   55   56 2    
   113   55   57 1    
   114   57   58 1    
   115   57   59 1    
   116   57  180 1    
   117   58  181 1    
   118   58  182 1    
   119   58  183 1    
   120   59   60 am   BACKBONE|DICT|INTERRES
   121   59  184 1    
   122   60   61 2    
   123   60   62 1    
   124   62   63 1    
   125   62   64 1    
   126   62  185 1    
   127   63  186 1    
   128   63  187 1    
   129   63  188 1    
   130   64   65 am   BACKBONE|DICT|INTERRES
   131   64  189 1    
   132   65   66 2    
   133   67   68 2    
   134   67   69 am   BACKBONE|DICT|INTERRES
   135   69   70 1    
   136   69  190 1    
   137   70   71 1    
   138   70   72 1    
   139   70  191 1    
   140   71  192 1    
   141   71  193 1    
   142   71  194 1    
   143   72   73 2    
   144   72   74 am   BACKBONE|DICT|INTERRES
   145   74   75 1    
   146   74  195 1    
   147   75   76 1    
   148   75   77 1    
   149   75  196 1    
   150   76  197 1    
   151   76  198 1    
   152   76  199 1    
   153   77   78 2    
   154   77   79 am   BACKBONE|DICT|INTERRES
   155   79   80 1    
   156   79  200 1    
   157   80   81 1    
   158   80   82 1    
   159   80  201 1    
   160   81  202 1    
   161   81  203 1    
   162   81  204 1    
   163   82   83 2    
   164   82   84 am   BACKBONE|DICT|INTERRES
   165   84   85 1    
   166   84  205 1    
   167   85   86 1    
   168   85   87 1    
   169   85  206 1    
   170   86  207 1    
   171   86  208 1    
   172   86  209 1    
   173   87   88 2    
   174   87   89 am   BACKBONE|DICT|INTERRES
   175   89   90 1    
   176   89  210 1    
   177   90   91 1    
   178   90   92 1    
   179   90  211 1    
   180   91  212 1    
   181   91  213 1    
   182   91  214 1    
   183   92   93 2    
   184   92   94 am   BACKBONE|DICT|INTERRES
   185   94   95 1    
   186   94  215 1    
   187   95   96 1    
   188   95   97 1    
   189   95  216 1    
   190   96  217 1    
   191   96  218 1    
   192   96  219 1    
   193   97   98 2    
   194   97   99 am   BACKBONE|DICT|INTERRES
   195   99  100 1    
   196   99  220 1    
   197  100  101 1    
   198  100  102 1    
   199  100  221 1    
   200  101  222 1    
   201  101  223 1    
   202  101  224 1    
   203  102  103 2    
   204  102  104 am   BACKBONE|DICT|INTERRES
   205  104  105 1    
   206  104  225 1    
   207  105  106 1    
   208  105  107 1    
   209  105  226 1    
   210  106  227 1    
   211  106  228 1    
   212  106  229 1    
   213  107  108 2    
   214  107  109 am   BACKBONE|DICT|INTERRES
   215  109  110 1    
   216  109  230 1    
   217  110  111 1    
   218  110  112 1    
   219  110  231 1    
   220  111  232 1    
   221  111  233 1    
   222  111  234 1    
   223  112  113 2    
   224  112  114 am   BACKBONE|DICT|INTERRES
   225  114  115 1    
   226  114  235 1    
   227  115  116 1    
   228  115  117 1    
   229  115  236 1    
   230  116  237 1    
   231  116  238 1    
   232  116  239 1    
   233  117  118 2    
   234  117  119 am   BACKBONE|DICT|INTERRES
   235  119  120 1    
   236  119  240 1    
   237  120  121 1    
   238  120  124 1    
   239  120  241 1    
   240  121  122 am   BACKBONE|DICT|INTERRES
   241  121  123 2    
   242  122  242 1    
   243  122  243 1    
   244  124  125 1    
   245  124  244 1    
   246  124  245 1    
   247  125  126 1    
   248  126  246 1    
   249  126  247 1    
@<TRIPOS>SUBSTRUCTURE
     1 UNK         1 GROUP             0       ****    0 ROOT    
