@<TRIPOS>MOLECULE
3R540
247   249    1
SMALL
USER_CHARGES


@<TRIPOS>ATOM
      1 CA          1.0813  -16.4935  -41.7285 C.3       0 UNK        -0.1800 
      2 C          -0.3088  -15.9366  -41.9974 C.2       0 UNK         0.5000 
      3 O          -0.9072  -15.3244  -41.1125 O.2       0 UNK        -0.5000 
      4 N          -0.8237  -16.1534  -43.2136 N.am      1 UNK        -0.5000 
      5 CA         -2.0989  -15.6205  -43.7007 C.3       1 UNK         0.1400 
      6 C6         -2.4922  -16.2195  -45.0708 C.3       23 UNK        -0.0398 
      7 S7         -2.7510  -18.0214  -45.0004 S.3       23 UNK        -0.2404 
      8 C8         -2.9508  -18.4143  -46.7664 C.3       23 UNK        -0.0205 
      9 C9         -1.6519  -18.2364  -47.5379 C.ar      23 UNK        -0.0193 
     10 C10        -1.4496  -17.1168  -48.3503 C.ar      23 UNK        -0.1150 
     11 C11        -0.2394  -16.9399  -49.0285 C.ar      23 UNK        -0.0193 
     12 C12         0.7594  -17.9144  -48.9165 C.ar      23 UNK        -0.1150 
     13 C13         0.5587  -19.0491  -48.1243 C.ar      23 UNK        -0.0193 
     14 C14        -0.6428  -19.1931  -47.4253 C.ar      23 UNK        -0.1150 
     15 C15         1.6512  -20.1006  -47.9817 C.3       23 UNK        -0.0205 
     16 S16         1.6304  -21.3616  -49.3037 S.3       23 UNK        -0.2404 
     17 C17        -0.0406  -22.0893  -49.1761 C.3       23 UNK        -0.0398 
     18 CA         -0.1655  -23.3473  -48.2806 C.3       11 UNK         0.1400 
     19 N           0.5026  -23.1880  -46.9835 N.am      11 UNK        -0.5000 
     20 C           0.6434  -24.1450  -46.0569 C.2       10 UNK         0.5000 
     21 O           0.2439  -25.2993  -46.2071 O.2       10 UNK        -0.5000 
     22 CA          1.2952  -23.7411  -44.7196 C.3       10 UNK         0.1400 
     23 CB          2.7955  -24.0701  -44.7415 C.3       10 UNK        -0.1800 
     24 N           1.1288  -22.3378  -44.3187 N.am      10 UNK        -0.5000 
     25 C          -0.0193  -21.6481  -44.2271 C.2       9 UNK         0.5000 
     26 O          -1.1018  -22.0781  -44.6231 O.2       9 UNK        -0.5000 
     27 CA          0.0446  -20.2472  -43.5833 C.3       9 UNK         0.1400 
     28 CB         -0.9262  -20.1442  -42.3959 C.3       9 UNK        -0.1800 
     29 N           1.3903  -19.8924  -43.1209 N.am      9 UNK        -0.5000 
     30 C           2.2935  -19.2439  -43.8625 C.2       8 UNK         0.5000 
     31 O           2.0870  -18.8617  -45.0155 O.2       8 UNK        -0.5000 
     32 CA          3.6595  -18.9902  -43.2146 C.3       8 UNK         0.1400 
     33 CB          4.5657  -20.2284  -43.3332 C.3       8 UNK        -0.1800 
     34 N           4.2651  -17.8590  -43.9012 N.am      8 UNK        -0.5000 
     35 C           5.1929  -17.0324  -43.4099 C.2       7 UNK         0.5000 
     36 O           5.7171  -17.1690  -42.3039 O.2       7 UNK        -0.5000 
     37 CA          5.5965  -15.8435  -44.3049 C.3       7 UNK         0.1400 
     38 CB          6.8514  -16.1884  -45.1216 C.3       7 UNK        -0.1800 
     39 N           4.5298  -15.4249  -45.2210 N.am      7 UNK        -0.5000 
     40 C           3.4164  -14.7864  -44.8391 C.2       6 UNK         0.5000 
     41 O           3.1764  -14.4664  -43.6724 O.2       6 UNK        -0.5000 
     42 CA          2.3885  -14.4861  -45.9443 C.3       6 UNK         0.1400 
     43 CB          1.3997  -15.6489  -46.0967 C.3       6 UNK        -0.1800 
     44 N           1.6440  -13.2635  -45.6466 N.am      6 UNK        -0.5000 
     45 C           2.1280  -12.0366  -45.8679 C.2       5 UNK         0.5000 
     46 O           3.2276  -11.8140  -46.3843 O.2       5 UNK        -0.5000 
     47 CA          1.2359  -10.8580  -45.4582 C.3       5 UNK         0.1400 
     48 CB          1.4602  -10.4808  -43.9838 C.3       5 UNK        -0.1800 
     49 N           1.5675   -9.7374  -46.3399 N.am      5 UNK        -0.5000 
     50 C           0.8856   -8.6278  -46.6643 C.2       4 UNK         0.5000 
     51 O           1.3665   -7.8168  -47.4560 O.2       4 UNK        -0.5000 
     52 CA         -0.5146   -8.3500  -46.0588 C.3       4 UNK         0.1400 
     53 CB         -1.1456   -7.0363  -46.5681 C.3       4 UNK        -0.1800 
     54 N          -1.4515   -9.4603  -46.2350 N.am      4 UNK        -0.5000 
     55 C          -1.8469  -10.0486  -47.3742 C.2       3 UNK         0.5000 
     56 O          -1.5778   -9.6231  -48.4978 O.2       3 UNK        -0.5000 
     57 CA         -2.6372  -11.3699  -47.2295 C.3       3 UNK         0.1400 
     58 CB         -1.9869  -12.4929  -48.0578 C.3       3 UNK        -0.1800 
     59 N          -2.7176  -11.8292  -45.8400 N.am      3 UNK        -0.5000 
     60 C          -3.6094  -11.4392  -44.9237 C.2       2 UNK         0.5000 
     61 O          -4.5371  -10.6672  -45.1688 O.2       2 UNK        -0.5000 
     62 CA         -3.3990  -11.9914  -43.4947 C.3       2 UNK         0.1400 
     63 CB         -4.5670  -11.6519  -42.5513 C.3       2 UNK        -0.1800 
     64 N          -3.1761  -13.4395  -43.4616 N.am      2 UNK        -0.5000 
     65 C          -2.0545  -14.0834  -43.8107 C.2       1 UNK         0.5000 
     66 O          -1.0491  -13.5223  -44.2632 O.2       1 UNK        -0.5000 
     67 C          -1.6612  -23.7230  -48.1422 C.2       11 UNK         0.5000 
     68 O          -2.2250  -24.3218  -49.0592 O.2       11 UNK        -0.5000 
     69 N          -2.2872  -23.3635  -47.0094 N.am      12 UNK        -0.5000 
     70 CA         -3.6869  -23.6609  -46.7031 C.3       12 UNK         0.1400 
     71 CB         -4.1174  -22.8740  -45.4574 C.3       12 UNK        -0.1800 
     72 C          -3.9658  -25.1641  -46.5187 C.2       12 UNK         0.5000 
     73 O          -5.0883  -25.6007  -46.7749 O.2       12 UNK        -0.5000 
     74 N          -2.9422  -25.9330  -46.1142 N.am      13 UNK        -0.5000 
     75 CA         -3.0176  -27.3796  -45.8931 C.3       13 UNK         0.1400 
     76 CB         -1.7256  -27.8590  -45.2157 C.3       13 UNK        -0.1800 
     77 C          -3.2837  -28.1863  -47.1783 C.2       13 UNK         0.5000 
     78 O          -3.8605  -29.2713  -47.1023 O.2       13 UNK        -0.5000 
     79 N          -2.9132  -27.6303  -48.3401 N.am      14 UNK        -0.5000 
     80 CA         -3.1683  -28.1872  -49.6698 C.3       14 UNK         0.1400 
     81 CB         -2.0757  -27.6803  -50.6276 C.3       14 UNK        -0.1800 
     82 C          -4.5910  -27.8466  -50.1656 C.2       14 UNK         0.5000 
     83 O          -4.7546  -27.3853  -51.2961 O.2       14 UNK        -0.5000 
     84 N          -5.5940  -28.0269  -49.2912 N.am      15 UNK        -0.5000 
     85 CA         -7.0254  -27.7487  -49.4893 C.3       15 UNK         0.1400 
     86 CB         -7.6323  -28.7868  -50.4554 C.3       15 UNK        -0.1800 
     87 C          -7.3261  -26.2948  -49.9241 C.2       15 UNK         0.5000 
     88 O          -8.3022  -26.0523  -50.6354 O.2       15 UNK        -0.5000 
     89 N          -6.4455  -25.3653  -49.5238 N.am      16 UNK        -0.5000 
     90 CA         -6.3644  -23.9569  -49.9261 C.3       16 UNK         0.1400 
     91 CB         -7.5815  -23.1651  -49.4096 C.3       16 UNK        -0.1800 
     92 C          -6.1038  -23.7152  -51.4316 C.2       16 UNK         0.5000 
     93 O          -6.1396  -22.5628  -51.8659 O.2       16 UNK        -0.5000 
     94 N          -5.8025  -24.7702  -52.2035 N.am      17 UNK        -0.5000 
     95 CA         -5.5400  -24.6893  -53.6410 C.3       17 UNK         0.1400 
     96 CB         -5.6055  -26.0929  -54.2613 C.3       17 UNK        -0.1800 
     97 C          -4.1902  -24.0196  -53.9410 C.2       17 UNK         0.5000 
     98 O          -4.0958  -23.2420  -54.8906 O.2       17 UNK        -0.5000 
     99 N          -3.1824  -24.2992  -53.1016 N.am      18 UNK        -0.5000 
    100 CA        -1.8825  -23.6333  -53.1557 C.3       18 UNK         0.1400 
    101 CB        -0.8304  -24.4596  -52.4032 C.3       18 UNK        -0.1800 
    102 C         -1.9562  -22.2007  -52.6034 C.2       18 UNK         0.5000 
    103 O         -1.3107  -21.3145  -53.1595 O.2       18 UNK        -0.5000 
    104 N         -2.7557  -21.9864  -51.5451 N.am      19 UNK        -0.5000 
    105 CA        -2.9671  -20.6825  -50.9027 C.3       19 UNK         0.1400 
    106 CB        -3.8213  -20.8474  -49.6380 C.3       19 UNK        -0.1800 
    107 C         -3.5950  -19.6310  -51.8314 C.2       19 UNK         0.5000 
    108 O         -3.2632  -18.4531  -51.7144 O.2       19 UNK        -0.5000 
    109 N         -4.4369  -20.0770  -52.7736 N.am      20 UNK        -0.5000 
    110 CA        -5.0327  -19.2485  -53.8247 C.3       20 UNK         0.1400 
    111 CB        -6.0474  -20.0947  -54.6083 C.3       20 UNK        -0.1800 
    112 C         -4.0000  -18.6145  -54.7829 C.2       20 UNK         0.5000 
    113 O         -4.2892  -17.5729  -55.3730 O.2       20 UNK        -0.5000 
    114 N         -2.8215  -19.2394  -54.9086 N.am      21 UNK        -0.5000 
    115 CA        -1.6852  -18.7602  -55.6970 C.3       21 UNK         0.1400 
    116 CB        -1.2423  -19.9000  -56.6300 C.3       21 UNK        -0.1800 
    117 C         -0.5074  -18.3032  -54.8103 C.2       21 UNK         0.5000 
    118 O          0.5035  -17.8506  -55.3498 O.2       21 UNK        -0.5000 
    119 N         -0.6377  -18.4496  -53.4838 N.am      22 UNK        -0.5000 
    120 CA         0.4225  -18.2877  -52.4730 C.3       22 UNK         0.1400 
    121 C          1.6304  -19.2563  -52.6691 C.2       22 UNK         0.5000 
    122 N          1.3970  -20.4825  -53.1192 N.am      22 UNK        -0.7600 
    123 O          2.7798  -18.9104  -52.4078 O.2       22 UNK        -0.5000 
    124 C124        0.8417  -16.8070  -52.2662 C.3       23 UNK        -0.0398 
    125 S125       -0.5145  -15.8075  -51.5657 S.3       23 UNK        -0.2404 
    126 C126        0.0043  -15.6644  -49.8255 C.3       23 UNK        -0.0205 
    127 H127        1.6582  -15.7950  -41.1222 H         1 UNK         0.0600 
    128 H128        1.6285  -16.6534  -42.6567 H         1 UNK         0.0600 
    129 H129        1.0140  -17.4405  -41.1935 H         1 UNK         0.0600 
    130 H130       -0.2917  -16.6792  -43.8904 H         1 UNK         0.3000 
    131 H131       -2.8663  -15.8915  -42.9722 H         1 UNK         0.0600 
    132 H132       -1.7224  -15.9958  -45.8102 H         1 UNK         0.0800 
    133 H133       -3.4158  -15.7699  -45.4408 H         1 UNK         0.0800 
    134 H134       -3.7443  -17.7989  -47.1930 H         1 UNK         0.0800 
    135 H135       -3.2835  -19.4494  -46.8542 H         1 UNK         0.0800 
    136 H136       -2.2233  -16.3667  -48.4333 H         1 UNK         0.1150 
    137 H137        1.7002  -17.7854  -49.4319 H         1 UNK         0.1150 
    138 H138       -0.7980  -20.0534  -46.7904 H         1 UNK         0.1150 
    139 H139        2.6248  -19.6086  -47.9864 H         1 UNK         0.0800 
    140 H140        1.5773  -20.5877  -47.0100 H         1 UNK         0.0800 
    141 H141       -0.3281  -22.3537  -50.1926 H         1 UNK         0.0800 
    142 H142       -0.7491  -21.3238  -48.8722 H         1 UNK         0.0800 
    143 H143        0.3279  -24.1761  -48.7925 H         1 UNK         0.0600 
    144 H144        0.8675  -22.2716  -46.7782 H         1 UNK         0.3000 
    145 H145        0.8251  -24.3494  -43.9445 H         1 UNK         0.0600 
    146 H146        3.2502  -23.9120  -43.7633 H         1 UNK         0.0600 
    147 H147        2.9648  -25.1138  -45.0105 H         1 UNK         0.0600 
    148 H148        3.3308  -23.4535  -45.4648 H         1 UNK         0.0600 
    149 H149        1.9608  -21.8811  -43.9786 H         1 UNK         0.3000 
    150 H150       -0.2804  -19.5339  -44.3425 H         1 UNK         0.0600 
    151 H151       -1.9501  -20.3569  -42.7068 H         1 UNK         0.0600 
    152 H152       -0.9241  -19.1400  -41.9721 H         1 UNK         0.0600 
    153 H153       -0.6700  -20.8467  -41.6022 H         1 UNK         0.0600 
    154 H154        1.6324  -20.1819  -42.1834 H         1 UNK         0.3000 
    155 H155        3.5077  -18.7375  -42.1631 H         1 UNK         0.0600 
    156 H156        4.7254  -20.5104  -44.3748 H         1 UNK         0.0600 
    157 H157        4.1292  -21.0869  -42.8217 H         1 UNK         0.0600 
    158 H158        5.5422  -20.0482  -42.8835 H         1 UNK         0.0600 
    159 H159        3.8489  -17.6622  -44.8029 H         1 UNK         0.3000 
    160 H160        5.8368  -15.0036  -43.6494 H         1 UNK         0.0600 
    161 H161        6.6703  -17.0157  -45.8090 H         1 UNK         0.0600 
    162 H162        7.6747  -16.4796  -44.4678 H         1 UNK         0.0600 
    163 H163        7.1898  -15.3326  -45.7061 H         1 UNK         0.0600 
    164 H164        4.6583  -15.6542  -46.1961 H         1 UNK         0.3000 
    165 H165        2.9113  -14.3582  -46.8949 H         1 UNK         0.0600 
    166 H166        0.5919  -15.3944  -46.7817 H         1 UNK         0.0600 
    167 H167        1.8967  -16.5353  -46.4918 H         1 UNK         0.0600 
    168 H168        0.9562  -15.9247  -45.1435 H         1 UNK         0.0600 
    169 H169        0.7638  -13.3768  -45.1533 H         1 UNK         0.3000 
    170 H170        0.2099  -11.1865  -45.5992 H         1 UNK         0.0600 
    171 H171        0.7827   -9.6946  -43.6555 H         1 UNK         0.0600 
    172 H172        1.2889  -11.3403  -43.3339 H         1 UNK         0.0600 
    173 H173        2.4809  -10.1380  -43.8101 H         1 UNK         0.0600 
    174 H174        2.4617   -9.8862  -46.7917 H         1 UNK         0.3000 
    175 H175       -0.3682   -8.2325  -44.9855 H         1 UNK         0.0600 
    176 H176       -1.3051   -7.0520  -47.6466 H         1 UNK         0.0600 
    177 H177       -2.1080   -6.8513  -46.0909 H         1 UNK         0.0600 
    178 H178       -0.5049   -6.1825  -46.3445 H         1 UNK         0.0600 
    179 H179       -1.7572   -9.8988  -45.3798 H         1 UNK         0.3000 
    180 H180       -3.6447  -11.1954  -47.6122 H         1 UNK         0.0600 
    181 H181       -2.5490  -13.4231  -47.9717 H         1 UNK         0.0600 
    182 H182       -0.9635  -12.6899  -47.7352 H         1 UNK         0.0600 
    183 H183       -1.9536  -12.2345  -49.1170 H         1 UNK         0.0600 
    184 H184       -1.9904  -12.4656  -45.5271 H         1 UNK         0.3000 
    185 H185       -2.5057  -11.5031  -43.0994 H         1 UNK         0.0600 
    186 H186       -4.3723  -12.0064  -41.5389 H         1 UNK         0.0600 
    187 H187       -4.7224  -10.5740  -42.4889 H         1 UNK         0.0600 
    188 H188       -5.5016  -12.1005  -42.8906 H         1 UNK         0.0600 
    189 H189       -3.9621  -13.9872  -43.1416 H         1 UNK         0.3000 
    190 H190       -1.7639  -22.8882  -46.2786 H         1 UNK         0.3000 
    191 H191       -4.2920  -23.3126  -47.5392 H         1 UNK         0.0600 
    192 H192       -5.1803  -23.0133  -45.2561 H         1 UNK         0.0600 
    193 H193       -3.9475  -21.8046  -45.5860 H         1 UNK         0.0600 
    194 H194       -3.5710  -23.1958  -44.5701 H         1 UNK         0.0600 
    195 H195       -2.0374  -25.5025  -45.9705 H         1 UNK         0.3000 
    196 H196       -3.8493  -27.5672  -45.2109 H         1 UNK         0.0600 
    197 H197       -0.8596  -27.7315  -45.8661 H         1 UNK         0.0600 
    198 H198       -1.5355  -27.3131  -44.2914 H         1 UNK         0.0600 
    199 H199       -1.7892  -28.9177  -44.9610 H         1 UNK         0.0600 
    200 H200       -2.4915  -26.7117  -48.3161 H         1 UNK         0.3000 
    201 H201       -3.0944  -29.2756  -49.6252 H         1 UNK         0.0600 
    202 H202       -2.1145  -26.5967  -50.7344 H         1 UNK         0.0600 
    203 H203       -2.1893  -28.1146  -51.6217 H         1 UNK         0.0600 
    204 H204       -1.0810  -27.9464  -50.2698 H         1 UNK         0.0600 
    205 H205       -5.3433  -28.4024  -48.3840 H         1 UNK         0.3000 
    206 H206       -7.5016  -27.8784  -48.5166 H         1 UNK         0.0600 
    207 H207       -7.4227  -29.8037  -50.1239 H         1 UNK         0.0600 
    208 H208       -8.7166  -28.6844  -50.5138 H         1 UNK         0.0600 
    209 H209       -7.2373  -28.6754  -51.4660 H         1 UNK         0.0600 
    210 H210       -5.7188  -25.6745  -48.8896 H         1 UNK         0.3000 
    211 H211       -5.4829  -23.5642  -49.4231 H         1 UNK         0.0600 
    212 H212       -7.4532  -22.0947  -49.5753 H         1 UNK         0.0600 
    213 H213       -7.7196  -23.3109  -48.3382 H         1 UNK         0.0600 
    214 H214       -8.5020  -23.4639  -49.9115 H         1 UNK         0.0600 
    215 H215       -5.7244  -25.6901  -51.7815 H         1 UNK         0.3000 
    216 H216       -6.3248  -24.0814  -54.0964 H         1 UNK         0.0600 
    217 H217       -4.8133  -26.7404  -53.8843 H         1 UNK         0.0600 
    218 H218       -5.4980  -26.0433  -55.3455 H         1 UNK         0.0600 
    219 H219       -6.5606  -26.5740  -54.0495 H         1 UNK         0.0600 
    220 H220       -3.3395  -24.9616  -52.3556 H         1 UNK         0.3000 
    221 H221       -1.5681  -23.5694  -54.1999 H         1 UNK         0.0600 
    222 H222       -0.7476  -25.4645  -52.8174 H         1 UNK         0.0600 
    223 H223       -1.0660  -24.5517  -51.3449 H         1 UNK         0.0600 
    224 H224        0.1539  -23.9952  -52.4777 H         1 UNK         0.0600 
    225 H225       -3.2478  -22.7736  -51.1507 H         1 UNK         0.3000 
    226 H226       -1.9902  -20.2957  -50.6062 H         1 UNK         0.0600 
    227 H227       -4.8001  -21.2690  -49.8627 H         1 UNK         0.0600 
    228 H228       -3.3330  -21.4863  -48.9065 H         1 UNK         0.0600 
    229 H229       -3.9903  -19.8825  -49.1593 H         1 UNK         0.0600 
    230 H230       -4.6996  -21.0549  -52.7627 H         1 UNK         0.3000 
    231 H231       -5.5706  -18.4328  -53.3376 H         1 UNK         0.0600 
    232 H232       -5.5652  -20.9305  -55.1161 H         1 UNK         0.0600 
    233 H233       -6.5525  -19.4962  -55.3674 H         1 UNK         0.0600 
    234 H234       -6.8155  -20.5011  -53.9497 H         1 UNK         0.0600 
    235 H235       -2.6622  -20.0892  -54.3813 H         1 UNK         0.3000 
    236 H236       -1.9746  -17.9063  -56.3124 H         1 UNK         0.0600 
    237 H237       -2.0570  -20.2131  -57.2833 H         1 UNK         0.0600 
    238 H238       -0.4161  -19.5877  -57.2699 H         1 UNK         0.0600 
    239 H239       -0.9105  -20.7730  -56.0661 H         1 UNK         0.0600 
    240 H240       -1.5213  -18.7854  -53.1285 H         1 UNK         0.3000 
    241 H241       -0.0257  -18.6259  -51.5387 H         1 UNK         0.0600 
    242 H242        2.1640  -21.1218  -53.2476 H         1 UNK         0.3800 
    243 H243        0.4405  -20.7884  -53.2818 H         1 UNK         0.3800 
    244 H244        1.1563  -16.3604  -53.2098 H         1 UNK         0.0800 
    245 H245        1.7044  -16.7296  -51.6041 H         1 UNK         0.0800 
    246 H246        1.0553  -15.3769  -49.7702 H         1 UNK         0.0800 
    247 H247       -0.5492  -14.8423  -49.3700 H         1 UNK         0.0800 
@<TRIPOS>BOND
     1    1    2 1    
     2    1  127 1    
     3    1  128 1    
     4    1  129 1    
     5    2    3 2    
     6    2    4 am   BACKBONE|DICT|INTERRES
     7    4    5 1    
     8    4  130 1    
     9    5    6 1    
    10    5   65 1    
    11    5  131 1    
    12    6    7 1    
    13    6  132 1    
    14    6  133 1    
    15    7    8 1    
    16    8    9 1    
    17    8  134 1    
    18    8  135 1    
    19    9   10 ar   
    20    9   14 ar   
    21   10   11 ar   
    22   10  136 1    
    23   11   12 ar   
    24   11  126 1    
    25   12   13 ar   
    26   12  137 1    
    27   13   14 ar   
    28   13   15 1    
    29   14  138 1    
    30   15   16 1    
    31   15  139 1    
    32   15  140 1    
    33   16   17 1    
    34   17   18 1    
    35   17  141 1    
    36   17  142 1    
    37   18   19 1    
    38   18   67 1    
    39   18  143 1    
    40   19   20 am   BACKBONE|DICT|INTERRES
    41   19  144 1    
    42   20   21 2    
    43   20   22 1    
    44   22   23 1    
    45   22   24 1    
    46   22  145 1    
    47   23  146 1    
    48   23  147 1    
    49   23  148 1    
    50   24   25 am   BACKBONE|DICT|INTERRES
    51   24  149 1    
    52   25   26 2    
    53   25   27 1    
    54   27   28 1    
    55   27   29 1    
    56   27  150 1    
    57   28  151 1    
    58   28  152 1    
    59   28  153 1    
    60   29   30 am   BACKBONE|DICT|INTERRES
    61   29  154 1    
    62   30   31 2    
    63   30   32 1    
    64   32   33 1    
    65   32   34 1    
    66   32  155 1    
    67   33  156 1    
    68   33  157 1    
    69   33  158 1    
    70   34   35 am   BACKBONE|DICT|INTERRES
    71   34  159 1    
    72   35   36 2    
    73   35   37 1    
    74   37   38 1    
    75   37   39 1    
    76   37  160 1    
    77   38  161 1    
    78   38  162 1    
    79   38  163 1    
    80   39   40 am   BACKBONE|DICT|INTERRES
    81   39  164 1    
    82   40   41 2    
    83   40   42 1    
    84   42   43 1    
    85   42   44 1    
    86   42  165 1    
    87   43  166 1    
    88   43  167 1    
    89   43  168 1    
    90   44   45 am   BACKBONE|DICT|INTERRES
    91   44  169 1    
    92   45   46 2    
    93   45   47 1    
    94   47   48 1    
    95   47   49 1    
    96   47  170 1    
    97   48  171 1    
    98   48  172 1    
    99   48  173 1    
   100   49   50 am   BACKBONE|DICT|INTERRES
   101   49  174 1    
   102   50   51 2    
   103   50   52 1    
   104   52   53 1    
   105   52   54 1    
   106   52  175 1    
   107   53  176 1    
   108   53  177 1    
   109   53  178 1    
   110   54   55 am   BACKBONE|DICT|INTERRES
   111   54  179 1    
   112   55   56 2    
   113   55   57 1    
   114   57   58 1    
   115   57   59 1    
   116   57  180 1    
   117   58  181 1    
   118   58  182 1    
   119   58  183 1    
   120   59   60 am   BACKBONE|DICT|INTERRES
   121   59  184 1    
   122   60   61 2    
   123   60   62 1    
   124   62   63 1    
   125   62   64 1    
   126   62  185 1    
   127   63  186 1    
   128   63  187 1    
   129   63  188 1    
   130   64   65 am   BACKBONE|DICT|INTERRES
   131   64  189 1    
   132   65   66 2    
   133   67   68 2    
   134   67   69 am   BACKBONE|DICT|INTERRES
   135   69   70 1    
   136   69  190 1    
   137   70   71 1    
   138   70   72 1    
   139   70  191 1    
   140   71  192 1    
   141   71  193 1    
   142   71  194 1    
   143   72   73 2    
   144   72   74 am   BACKBONE|DICT|INTERRES
   145   74   75 1    
   146   74  195 1    
   147   75   76 1    
   148   75   77 1    
   149   75  196 1    
   150   76  197 1    
   151   76  198 1    
   152   76  199 1    
   153   77   78 2    
   154   77   79 am   BACKBONE|DICT|INTERRES
   155   79   80 1    
   156   79  200 1    
   157   80   81 1    
   158   80   82 1    
   159   80  201 1    
   160   81  202 1    
   161   81  203 1    
   162   81  204 1    
   163   82   83 2    
   164   82   84 am   BACKBONE|DICT|INTERRES
   165   84   85 1    
   166   84  205 1    
   167   85   86 1    
   168   85   87 1    
   169   85  206 1    
   170   86  207 1    
   171   86  208 1    
   172   86  209 1    
   173   87   88 2    
   174   87   89 am   BACKBONE|DICT|INTERRES
   175   89   90 1    
   176   89  210 1    
   177   90   91 1    
   178   90   92 1    
   179   90  211 1    
   180   91  212 1    
   181   91  213 1    
   182   91  214 1    
   183   92   93 2    
   184   92   94 am   BACKBONE|DICT|INTERRES
   185   94   95 1    
   186   94  215 1    
   187   95   96 1    
   188   95   97 1    
   189   95  216 1    
   190   96  217 1    
   191   96  218 1    
   192   96  219 1    
   193   97   98 2    
   194   97   99 am   BACKBONE|DICT|INTERRES
   195   99  100 1    
   196   99  220 1    
   197  100  101 1    
   198  100  102 1    
   199  100  221 1    
   200  101  222 1    
   201  101  223 1    
   202  101  224 1    
   203  102  103 2    
   204  102  104 am   BACKBONE|DICT|INTERRES
   205  104  105 1    
   206  104  225 1    
   207  105  106 1    
   208  105  107 1    
   209  105  226 1    
   210  106  227 1    
   211  106  228 1    
   212  106  229 1    
   213  107  108 2    
   214  107  109 am   BACKBONE|DICT|INTERRES
   215  109  110 1    
   216  109  230 1    
   217  110  111 1    
   218  110  112 1    
   219  110  231 1    
   220  111  232 1    
   221  111  233 1    
   222  111  234 1    
   223  112  113 2    
   224  112  114 am   BACKBONE|DICT|INTERRES
   225  114  115 1    
   226  114  235 1    
   227  115  116 1    
   228  115  117 1    
   229  115  236 1    
   230  116  237 1    
   231  116  238 1    
   232  116  239 1    
   233  117  118 2    
   234  117  119 am   BACKBONE|DICT|INTERRES
   235  119  120 1    
   236  119  240 1    
   237  120  121 1    
   238  120  124 1    
   239  120  241 1    
   240  121  122 am   BACKBONE|DICT|INTERRES
   241  121  123 2    
   242  122  242 1    
   243  122  243 1    
   244  124  125 1    
   245  124  244 1    
   246  124  245 1    
   247  125  126 1    
   248  126  246 1    
   249  126  247 1    
@<TRIPOS>SUBSTRUCTURE
     1 UNK         1 GROUP             0       ****    0 ROOT    
