@<TRIPOS>MOLECULE
3R540
247   249    1
SMALL
USER_CHARGES


@<TRIPOS>ATOM
      1 CA         -2.1065  -14.9681  -49.6070 C.3       0 UNK        -0.1800 
      2 C          -1.3179  -13.7223  -49.2252 C.2       0 UNK         0.5000 
      3 O          -1.6958  -12.6157  -49.6096 O.2       0 UNK        -0.5000 
      4 N          -0.2188  -13.9004  -48.4819 N.am      1 UNK        -0.5000 
      5 CA          0.6504  -12.8317  -47.9827 C.3       1 UNK         0.1400 
      6 C6          1.9849  -13.3726  -47.4052 C.3       23 UNK        -0.0398 
      7 S7          2.9388  -14.3849  -48.5866 S.3       23 UNK        -0.2404 
      8 C8          2.6164  -16.0732  -47.9645 C.3       23 UNK        -0.0205 
      9 C9          2.2545  -17.0654  -49.0654 C.ar      23 UNK        -0.0193 
     10 C10         1.3660  -16.7162  -50.0890 C.ar      23 UNK        -0.1150 
     11 C11         0.9991  -17.6444  -51.0644 C.ar      23 UNK        -0.0193 
     12 C12         1.5368  -18.9324  -51.0245 C.ar      23 UNK        -0.1150 
     13 C13         2.4189  -19.3011  -50.0053 C.ar      23 UNK        -0.0193 
     14 C14         2.7717  -18.3645  -49.0279 C.ar      23 UNK        -0.1150 
     15 C15         2.9787  -20.7160  -49.9567 C.3       23 UNK        -0.0205 
     16 S16         1.6786  -21.9595  -49.6681 S.3       23 UNK        -0.2404 
     17 C17         1.0360  -21.4369  -48.0426 C.3       23 UNK        -0.0398 
     18 CA          0.4836  -22.6174  -47.2104 C.3       11 UNK         0.1400 
     19 N           0.4215  -22.2974  -45.7841 N.am      11 UNK        -0.5000 
     20 C           0.1576  -23.1816  -44.8122 C.2       10 UNK         0.5000 
     21 O          -0.0133  -24.3848  -45.0085 O.2       10 UNK        -0.5000 
     22 CA          0.0083  -22.6169  -43.3882 C.3       10 UNK         0.1400 
     23 CB          1.3831  -22.3785  -42.7470 C.3       10 UNK        -0.1800 
     24 N          -0.7768  -21.3812  -43.3564 N.am      10 UNK        -0.5000 
     25 C          -2.0672  -21.3001  -43.7125 C.2       9 UNK         0.5000 
     26 O          -2.7422  -22.2703  -44.0555 O.2       9 UNK        -0.5000 
     27 CA         -2.7027  -19.8994  -43.7318 C.3       9 UNK         0.1400 
     28 CB         -3.1051  -19.4644  -42.3150 C.3       9 UNK        -0.1800 
     29 N          -1.8324  -18.8878  -44.3309 N.am      9 UNK        -0.5000 
     30 C          -1.4149  -18.8923  -45.6055 C.2       8 UNK         0.5000 
     31 O          -1.7388  -19.7444  -46.4317 O.2       8 UNK        -0.5000 
     32 CA         -0.4224  -17.7867  -46.0088 C.3       8 UNK         0.1400 
     33 CB         -1.1443  -16.4427  -46.1861 C.3       8 UNK        -0.1800 
     34 N           0.6605  -17.6372  -45.0366 N.am      8 UNK        -0.5000 
     35 C           1.5367  -18.6017  -44.7197 C.2       7 UNK         0.5000 
     36 O           1.5687  -19.7059  -45.2602 O.2       7 UNK        -0.5000 
     37 CA          2.5032  -18.3008  -43.5646 C.3       7 UNK         0.1400 
     38 CB          3.7207  -17.5082  -44.0643 C.3       7 UNK        -0.1800 
     39 N           1.8354  -17.5756  -42.4827 N.am      7 UNK        -0.5000 
     40 C           0.9200  -18.1204  -41.6671 C.2       6 UNK         0.5000 
     41 O           0.5788  -19.3020  -41.7173 O.2       6 UNK        -0.5000 
     42 CA          0.2413  -17.1789  -40.6544 C.3       6 UNK         0.1400 
     43 CB          1.1116  -17.0138  -39.3998 C.3       6 UNK        -0.1800 
     44 N          -0.0513  -15.8612  -41.2201 N.am      6 UNK        -0.5000 
     45 C          -0.9388  -15.6390  -42.2001 C.2       5 UNK         0.5000 
     46 O          -1.6495  -16.5181  -42.6848 O.2       5 UNK        -0.5000 
     47 CA         -1.0087  -14.2085  -42.7695 C.3       5 UNK         0.1400 
     48 CB         -2.0654  -13.3794  -42.0259 C.3       5 UNK        -0.1800 
     49 N           0.2724  -13.4966  -42.7409 N.am      5 UNK        -0.5000 
     50 C           1.3849  -13.8998  -43.3684 C.2       4 UNK         0.5000 
     51 O           1.4615  -14.9437  -44.0193 O.2       4 UNK        -0.5000 
     52 CA          2.5926  -12.9617  -43.2520 C.3       4 UNK         0.1400 
     53 CB          3.8645  -13.5122  -43.9259 C.3       4 UNK        -0.1800 
     54 N           2.2426  -11.6653  -43.8252 N.am      4 UNK        -0.5000 
     55 C           2.7142  -10.4855  -43.4024 C.2       3 UNK         0.5000 
     56 O           3.4736  -10.3664  -42.4398 O.2       3 UNK        -0.5000 
     57 CA          2.2966   -9.2235  -44.1855 C.3       3 UNK         0.1400 
     58 CB          3.5167   -8.5966  -44.8802 C.3       3 UNK        -0.1800 
     59 N           1.2721   -9.4796  -45.1997 N.am      3 UNK        -0.5000 
     60 C          -0.0486   -9.5006  -44.9752 C.2       2 UNK         0.5000 
     61 O          -0.5601   -9.3105  -43.8718 O.2       2 UNK        -0.5000 
     62 CA         -0.9425   -9.8057  -46.1936 C.3       2 UNK         0.1400 
     63 CB         -1.3323   -8.5071  -46.9158 C.3       2 UNK        -0.1800 
     64 N          -0.3060  -10.7184  -47.1498 N.am      2 UNK        -0.5000 
     65 C          -0.0876  -12.0162  -46.9036 C.2       1 UNK         0.5000 
     66 O          -0.4194  -12.5717  -45.8560 O.2       1 UNK        -0.5000 
     67 C          -0.8772  -23.1158  -47.7398 C.2       11 UNK         0.5000 
     68 O          -0.9176  -24.1360  -48.4251 O.2       11 UNK        -0.5000 
     69 N          -1.9709  -22.4315  -47.3721 N.am      12 UNK        -0.5000 
     70 CA         -3.3415  -22.8181  -47.7119 C.3       12 UNK         0.1400 
     71 CB         -4.3226  -21.7203  -47.2750 C.3       12 UNK        -0.1800 
     72 C          -3.7425  -24.1809  -47.1248 C.2       12 UNK         0.5000 
     73 O          -4.3346  -24.9881  -47.8387 O.2       12 UNK        -0.5000 
     74 N          -3.3767  -24.4351  -45.8617 N.am      13 UNK        -0.5000 
     75 CA         -3.5897  -25.7151  -45.1852 C.3       13 UNK         0.1400 
     76 CB         -3.2268  -25.5774  -43.6988 C.3       13 UNK        -0.1800 
     77 C          -2.8104  -26.8750  -45.8344 C.2       13 UNK         0.5000 
     78 O          -3.3487  -27.9771  -45.9452 O.2       13 UNK        -0.5000 
     79 N          -1.5699  -26.6041  -46.2628 N.am      14 UNK        -0.5000 
     80 CA         -0.7091  -27.5583  -46.9592 C.3       14 UNK         0.1400 
     81 CB          0.7379  -27.0405  -46.9550 C.3       14 UNK        -0.1800 
     82 C          -1.1830  -27.8482  -48.3953 C.2       14 UNK         0.5000 
     83 O          -1.2355  -29.0133  -48.7917 O.2       14 UNK        -0.5000 
     84 N          -1.5058  -26.7892  -49.1504 N.am      15 UNK        -0.5000 
     85 CA         -1.9215  -26.8663  -50.5511 C.3       15 UNK         0.1400 
     86 CB         -1.8166  -25.4725  -51.1906 C.3       15 UNK        -0.1800 
     87 C          -3.3416  -27.4278  -50.7342 C.2       15 UNK         0.5000 
     88 O          -3.5772  -28.1583  -51.6966 O.2       15 UNK        -0.5000 
     89 N          -4.2506  -27.0575  -49.8203 N.am      16 UNK        -0.5000 
     90 CA         -5.6821  -27.3720  -49.7915 C.3       16 UNK         0.1400 
     91 CB         -5.8801  -28.8457  -49.3811 C.3       16 UNK        -0.1800 
     92 C          -6.4166  -27.0085  -51.1080 C.2       16 UNK         0.5000 
     93 O          -6.9079  -27.9057  -51.7931 O.2       16 UNK        -0.5000 
     94 N          -6.4947  -25.7300  -51.5073 N.am      17 UNK        -0.5000 
     95 CA         -6.0370  -24.5192  -50.8242 C.3       17 UNK         0.1400 
     96 CB         -7.1246  -24.0078  -49.8602 C.3       17 UNK        -0.1800 
     97 C          -5.6197  -23.4792  -51.8758 C.2       17 UNK         0.5000 
     98 O          -6.0830  -22.3384  -51.8472 O.2       17 UNK        -0.5000 
     99 N          -4.7440  -23.9009  -52.8010 N.am      18 UNK        -0.5000 
    100 CA        -4.2640  -23.1233  -53.9521 C.3       18 UNK         0.1400 
    101 CB        -3.3134  -23.9927  -54.7879 C.3       18 UNK        -0.1800 
    102 C         -3.5902  -21.7799  -53.6057 C.2       18 UNK         0.5000 
    103 O         -3.5727  -20.8803  -54.4470 O.2       18 UNK        -0.5000 
    104 N         -3.0977  -21.6333  -52.3671 N.am      19 UNK        -0.5000 
    105 CA        -2.5455  -20.3876  -51.8279 C.3       19 UNK         0.1400 
    106 CB        -1.9026  -20.6593  -50.4622 C.3       19 UNK        -0.1800 
    107 C         -3.5696  -19.2347  -51.7252 C.2       19 UNK         0.5000 
    108 O         -3.1610  -18.0800  -51.6128 O.2       19 UNK        -0.5000 
    109 N         -4.8733  -19.5439  -51.8027 N.am      20 UNK        -0.5000 
    110 CA        -5.9407  -18.5516  -51.9446 C.3       20 UNK         0.1400 
    111 CB        -7.2998  -19.2410  -51.7541 C.3       20 UNK        -0.1800 
    112 C         -5.8925  -17.8123  -53.2995 C.2       20 UNK         0.5000 
    113 O         -6.2957  -16.6504  -53.3653 O.2       20 UNK        -0.5000 
    114 N         -5.3922  -18.4884  -54.3440 N.am      21 UNK        -0.5000 
    115 CA        -5.1542  -17.9209  -55.6710 C.3       21 UNK         0.1400 
    116 CB        -5.5277  -18.9610  -56.7393 C.3       21 UNK        -0.1800 
    117 C         -3.6881  -17.4819  -55.8341 C.2       21 UNK         0.5000 
    118 O         -3.4337  -16.4348  -56.4300 O.2       21 UNK        -0.5000 
    119 N         -2.7562  -18.2825  -55.2965 N.am      22 UNK        -0.5000 
    120 CA        -1.2960  -18.0876  -55.3608 C.3       22 UNK         0.1400 
    121 C         -0.6690  -18.3513  -56.7660 C.2       22 UNK         0.5000 
    122 N         -1.3596  -19.0244  -57.6789 N.am      22 UNK        -0.7600 
    123 O          0.4662  -17.9673  -57.0334 O.2       22 UNK        -0.5000 
    124 C124       -0.8352  -16.7447  -54.7148 C.3       23 UNK        -0.0398 
    125 S125        0.7003  -16.9115  -53.7372 S.3       23 UNK        -0.2404 
    126 C126       -0.0309  -17.2792  -52.1178 C.3       23 UNK        -0.0205 
    127 H127       -3.0422  -15.0050  -49.0494 H         1 UNK         0.0600 
    128 H128       -1.5497  -15.8825  -49.4012 H         1 UNK         0.0600 
    129 H129       -2.3452  -14.9535  -50.6705 H         1 UNK         0.0600 
    130 H130        0.0322  -14.8307  -48.1875 H         1 UNK         0.3000 
    131 H131        0.8884  -12.1749  -48.8222 H         1 UNK         0.0600 
    132 H132        2.6245  -12.5399  -47.1070 H         1 UNK         0.0800 
    133 H133        1.8105  -13.9492  -46.4961 H         1 UNK         0.0800 
    134 H134        1.8031  -16.0700  -47.2405 H         1 UNK         0.0800 
    135 H135        3.5017  -16.4086  -47.4220 H         1 UNK         0.0800 
    136 H136        0.9475  -15.7222  -50.1264 H         1 UNK         0.1150 
    137 H137        1.2494  -19.6577  -51.7729 H         1 UNK         0.1150 
    138 H138        3.4432  -18.6508  -48.2304 H         1 UNK         0.1150 
    139 H139        3.4732  -20.9354  -50.9039 H         1 UNK         0.0800 
    140 H140        3.7428  -20.8085  -49.1833 H         1 UNK         0.0800 
    141 H141        0.2888  -20.6528  -48.1776 H         1 UNK         0.0800 
    142 H142        1.8632  -20.9735  -47.5046 H         1 UNK         0.0800 
    143 H143        1.1876  -23.4474  -47.3028 H         1 UNK         0.0600 
    144 H144        0.5951  -21.3282  -45.5309 H         1 UNK         0.3000 
    145 H145       -0.5196  -23.3623  -42.7899 H         1 UNK         0.0600 
    146 H146        1.2833  -22.0531  -41.7114 H         1 UNK         0.0600 
    147 H147        1.9768  -23.2934  -42.7449 H         1 UNK         0.0600 
    148 H148        1.9521  -21.6186  -43.2827 H         1 UNK         0.0600 
    149 H149       -0.2995  -20.5450  -43.0351 H         1 UNK         0.3000 
    150 H150       -3.6089  -19.9559  -44.3382 H         1 UNK         0.0600 
    151 H151       -3.7635  -20.2004  -41.8519 H         1 UNK         0.0600 
    152 H152       -3.6400  -18.5148  -42.3322 H         1 UNK         0.0600 
    153 H153       -2.2359  -19.3461  -41.6675 H         1 UNK         0.0600 
    154 H154       -1.5571  -18.1166  -43.7288 H         1 UNK         0.3000 
    155 H155        0.0274  -18.0657  -46.9642 H         1 UNK         0.0600 
    156 H156       -1.7331  -16.1782  -45.3089 H         1 UNK         0.0600 
    157 H157       -0.4404  -15.6307  -46.3602 H         1 UNK         0.0600 
    158 H158       -1.8303  -16.4820  -47.0320 H         1 UNK         0.0600 
    159 H159        0.7370  -16.7439  -44.5606 H         1 UNK         0.3000 
    160 H160        2.8609  -19.2526  -43.1664 H         1 UNK         0.0600 
    161 H161        4.2828  -18.0881  -44.7974 H         1 UNK         0.0600 
    162 H162        3.4311  -16.5749  -44.5465 H         1 UNK         0.0600 
    163 H163        4.4015  -17.2695  -43.2473 H         1 UNK         0.0600 
    164 H164        2.0049  -16.5815  -42.4337 H         1 UNK         0.3000 
    165 H165       -0.7039  -17.6375  -40.3558 H         1 UNK         0.0600 
    166 H166        0.6053  -16.4112  -38.6455 H         1 UNK         0.0600 
    167 H167        1.3305  -17.9820  -38.9474 H         1 UNK         0.0600 
    168 H168        2.0646  -16.5352  -39.6286 H         1 UNK         0.0600 
    169 H169        0.4886  -15.0820  -40.8742 H         1 UNK         0.3000 
    170 H170       -1.3141  -14.2880  -43.8145 H         1 UNK         0.0600 
    171 H171       -3.0380  -13.8728  -42.0520 H         1 UNK         0.0600 
    172 H172       -1.7988  -13.2321  -40.9787 H         1 UNK         0.0600 
    173 H173       -2.1882  -12.3976  -42.4841 H         1 UNK         0.0600 
    174 H174        0.2868  -12.6147  -42.2495 H         1 UNK         0.3000 
    175 H175        2.7951  -12.8502  -42.1846 H         1 UNK         0.0600 
    176 H176        3.7231  -13.6726  -44.9944 H         1 UNK         0.0600 
    177 H177        4.7047  -12.8294  -43.7999 H         1 UNK         0.0600 
    178 H178        4.1565  -14.4654  -43.4846 H         1 UNK         0.0600 
    179 H179        1.5633  -11.6807  -44.5736 H         1 UNK         0.3000 
    180 H180        1.9118   -8.5031  -43.4606 H         1 UNK         0.0600 
    181 H181        3.9576   -9.2761  -45.6107 H         1 UNK         0.0600 
    182 H182        4.2935   -8.3431  -44.1575 H         1 UNK         0.0600 
    183 H183        3.2461   -7.6759  -45.3976 H         1 UNK         0.0600 
    184 H184        1.6001   -9.6385  -46.1409 H         1 UNK         0.3000 
    185 H185       -1.8563  -10.2770  -45.8244 H         1 UNK         0.0600 
    186 H186       -2.0221   -8.7045  -47.7367 H         1 UNK         0.0600 
    187 H187       -1.8298   -7.8158  -46.2342 H         1 UNK         0.0600 
    188 H188       -0.4605   -7.9946  -47.3246 H         1 UNK         0.0600 
    189 H189       -0.0404  -10.3291  -48.0434 H         1 UNK         0.3000 
    190 H190       -1.8597  -21.5715  -46.8400 H         1 UNK         0.3000 
    191 H191       -3.3991  -22.9094  -48.7980 H         1 UNK         0.0600 
    192 H192       -4.3032  -21.5697  -46.1957 H         1 UNK         0.0600 
    193 H193       -5.3455  -21.9776  -47.5519 H         1 UNK         0.0600 
    194 H194       -4.0884  -20.7664  -47.7472 H         1 UNK         0.0600 
    195 H195       -2.9375  -23.6966  -45.3180 H         1 UNK         0.3000 
    196 H196       -4.6532  -25.9533  -45.2533 H         1 UNK         0.0600 
    197 H197       -3.3970  -26.5138  -43.1662 H         1 UNK         0.0600 
    198 H198       -3.8339  -24.8122  -43.2148 H         1 UNK         0.0600 
    199 H199       -2.1793  -25.3072  -43.5633 H         1 UNK         0.0600 
    200 H200       -1.1808  -25.6842  -46.0837 H         1 UNK         0.3000 
    201 H201       -0.7286  -28.4996  -46.4059 H         1 UNK         0.0600 
    202 H202        1.1063  -26.9121  -45.9370 H         1 UNK         0.0600 
    203 H203        0.8255  -26.0801  -47.4638 H         1 UNK         0.0600 
    204 H204        1.4056  -27.7414  -47.4573 H         1 UNK         0.0600 
    205 H205       -1.3864  -25.8538  -48.7647 H         1 UNK         0.3000 
    206 H206       -1.2305  -27.5304  -51.0747 H         1 UNK         0.0600 
    207 H207       -0.7986  -25.0866  -51.1297 H         1 UNK         0.0600 
    208 H208       -2.0866  -25.5088  -52.2456 H         1 UNK         0.0600 
    209 H209       -2.4746  -24.7532  -50.7018 H         1 UNK         0.0600 
    210 H210       -3.9522  -26.4295  -49.0792 H         1 UNK         0.3000 
    211 H211       -6.1215  -26.7610  -49.0032 H         1 UNK         0.0600 
    212 H212       -5.4531  -29.5326  -50.1126 H         1 UNK         0.0600 
    213 H213       -6.9394  -29.0857  -49.2830 H         1 UNK         0.0600 
    214 H214       -5.4104  -29.0498  -48.4185 H         1 UNK         0.0600 
    215 H215       -6.9483  -25.5503  -52.3921 H         1 UNK         0.3000 
    216 H216       -5.1356  -24.7135  -50.2500 H         1 UNK         0.0600 
    217 H217       -6.7989  -23.1007  -49.3499 H         1 UNK         0.0600 
    218 H218       -7.3560  -24.7418  -49.0892 H         1 UNK         0.0600 
    219 H219       -8.0497  -23.7745  -50.3884 H         1 UNK         0.0600 
    220 H220       -4.4389  -24.8624  -52.7606 H         1 UNK         0.3000 
    221 H221       -5.1360  -22.8891  -54.5658 H         1 UNK         0.0600 
    222 H222       -2.4090  -24.2481  -54.2355 H         1 UNK         0.0600 
    223 H223       -3.7935  -24.9206  -55.0993 H         1 UNK         0.0600 
    224 H224       -3.0038  -23.4701  -55.6941 H         1 UNK         0.0600 
    225 H225       -3.1544  -22.4169  -51.7356 H         1 UNK         0.3000 
    226 H226       -1.7604  -20.0724  -52.5161 H         1 UNK         0.0600 
    227 H227       -1.2141  -21.5030  -50.5047 H         1 UNK         0.0600 
    228 H228       -1.3358  -19.7930  -50.1181 H         1 UNK         0.0600 
    229 H229       -2.6560  -20.8713  -49.7065 H         1 UNK         0.0600 
    230 H230       -5.1523  -20.5182  -51.8601 H         1 UNK         0.3000 
    231 H231       -5.8210  -17.8076  -51.1543 H         1 UNK         0.0600 
    232 H232       -8.1151  -18.5184  -51.8053 H         1 UNK         0.0600 
    233 H233       -7.3604  -19.7330  -50.7831 H         1 UNK         0.0600 
    234 H234       -7.4793  -19.9944  -52.5221 H         1 UNK         0.0600 
    235 H235       -5.0504  -19.4294  -54.1935 H         1 UNK         0.3000 
    236 H236       -5.7861  -17.0433  -55.8234 H         1 UNK         0.0600 
    237 H237       -6.5798  -19.2367  -56.6664 H         1 UNK         0.0600 
    238 H238       -5.3645  -18.5655  -57.7427 H         1 UNK         0.0600 
    239 H239       -4.9369  -19.8727  -56.6446 H         1 UNK         0.0600 
    240 H240       -3.0584  -19.1648  -54.8918 H         1 UNK         0.3000 
    241 H241       -0.9088  -18.8995  -54.7445 H         1 UNK         0.0600 
    242 H242       -0.9479  -19.1994  -58.5823 H         1 UNK         0.3800 
    243 H243       -2.2853  -19.3646  -57.4747 H         1 UNK         0.3800 
    244 H244       -0.6939  -15.9716  -55.4721 H         1 UNK         0.0800 
    245 H245       -1.6099  -16.3539  -54.0531 H         1 UNK         0.0800 
    246 H246       -0.6343  -16.4322  -51.7897 H         1 UNK         0.0800 
    247 H247       -0.7128  -18.1156  -52.2348 H         1 UNK         0.0800 
@<TRIPOS>BOND
     1    1    2 1    
     2    1  127 1    
     3    1  128 1    
     4    1  129 1    
     5    2    3 2    
     6    2    4 am   BACKBONE|DICT|INTERRES
     7    4    5 1    
     8    4  130 1    
     9    5    6 1    
    10    5   65 1    
    11    5  131 1    
    12    6    7 1    
    13    6  132 1    
    14    6  133 1    
    15    7    8 1    
    16    8    9 1    
    17    8  134 1    
    18    8  135 1    
    19    9   10 ar   
    20    9   14 ar   
    21   10   11 ar   
    22   10  136 1    
    23   11   12 ar   
    24   11  126 1    
    25   12   13 ar   
    26   12  137 1    
    27   13   14 ar   
    28   13   15 1    
    29   14  138 1    
    30   15   16 1    
    31   15  139 1    
    32   15  140 1    
    33   16   17 1    
    34   17   18 1    
    35   17  141 1    
    36   17  142 1    
    37   18   19 1    
    38   18   67 1    
    39   18  143 1    
    40   19   20 am   BACKBONE|DICT|INTERRES
    41   19  144 1    
    42   20   21 2    
    43   20   22 1    
    44   22   23 1    
    45   22   24 1    
    46   22  145 1    
    47   23  146 1    
    48   23  147 1    
    49   23  148 1    
    50   24   25 am   BACKBONE|DICT|INTERRES
    51   24  149 1    
    52   25   26 2    
    53   25   27 1    
    54   27   28 1    
    55   27   29 1    
    56   27  150 1    
    57   28  151 1    
    58   28  152 1    
    59   28  153 1    
    60   29   30 am   BACKBONE|DICT|INTERRES
    61   29  154 1    
    62   30   31 2    
    63   30   32 1    
    64   32   33 1    
    65   32   34 1    
    66   32  155 1    
    67   33  156 1    
    68   33  157 1    
    69   33  158 1    
    70   34   35 am   BACKBONE|DICT|INTERRES
    71   34  159 1    
    72   35   36 2    
    73   35   37 1    
    74   37   38 1    
    75   37   39 1    
    76   37  160 1    
    77   38  161 1    
    78   38  162 1    
    79   38  163 1    
    80   39   40 am   BACKBONE|DICT|INTERRES
    81   39  164 1    
    82   40   41 2    
    83   40   42 1    
    84   42   43 1    
    85   42   44 1    
    86   42  165 1    
    87   43  166 1    
    88   43  167 1    
    89   43  168 1    
    90   44   45 am   BACKBONE|DICT|INTERRES
    91   44  169 1    
    92   45   46 2    
    93   45   47 1    
    94   47   48 1    
    95   47   49 1    
    96   47  170 1    
    97   48  171 1    
    98   48  172 1    
    99   48  173 1    
   100   49   50 am   BACKBONE|DICT|INTERRES
   101   49  174 1    
   102   50   51 2    
   103   50   52 1    
   104   52   53 1    
   105   52   54 1    
   106   52  175 1    
   107   53  176 1    
   108   53  177 1    
   109   53  178 1    
   110   54   55 am   BACKBONE|DICT|INTERRES
   111   54  179 1    
   112   55   56 2    
   113   55   57 1    
   114   57   58 1    
   115   57   59 1    
   116   57  180 1    
   117   58  181 1    
   118   58  182 1    
   119   58  183 1    
   120   59   60 am   BACKBONE|DICT|INTERRES
   121   59  184 1    
   122   60   61 2    
   123   60   62 1    
   124   62   63 1    
   125   62   64 1    
   126   62  185 1    
   127   63  186 1    
   128   63  187 1    
   129   63  188 1    
   130   64   65 am   BACKBONE|DICT|INTERRES
   131   64  189 1    
   132   65   66 2    
   133   67   68 2    
   134   67   69 am   BACKBONE|DICT|INTERRES
   135   69   70 1    
   136   69  190 1    
   137   70   71 1    
   138   70   72 1    
   139   70  191 1    
   140   71  192 1    
   141   71  193 1    
   142   71  194 1    
   143   72   73 2    
   144   72   74 am   BACKBONE|DICT|INTERRES
   145   74   75 1    
   146   74  195 1    
   147   75   76 1    
   148   75   77 1    
   149   75  196 1    
   150   76  197 1    
   151   76  198 1    
   152   76  199 1    
   153   77   78 2    
   154   77   79 am   BACKBONE|DICT|INTERRES
   155   79   80 1    
   156   79  200 1    
   157   80   81 1    
   158   80   82 1    
   159   80  201 1    
   160   81  202 1    
   161   81  203 1    
   162   81  204 1    
   163   82   83 2    
   164   82   84 am   BACKBONE|DICT|INTERRES
   165   84   85 1    
   166   84  205 1    
   167   85   86 1    
   168   85   87 1    
   169   85  206 1    
   170   86  207 1    
   171   86  208 1    
   172   86  209 1    
   173   87   88 2    
   174   87   89 am   BACKBONE|DICT|INTERRES
   175   89   90 1    
   176   89  210 1    
   177   90   91 1    
   178   90   92 1    
   179   90  211 1    
   180   91  212 1    
   181   91  213 1    
   182   91  214 1    
   183   92   93 2    
   184   92   94 am   BACKBONE|DICT|INTERRES
   185   94   95 1    
   186   94  215 1    
   187   95   96 1    
   188   95   97 1    
   189   95  216 1    
   190   96  217 1    
   191   96  218 1    
   192   96  219 1    
   193   97   98 2    
   194   97   99 am   BACKBONE|DICT|INTERRES
   195   99  100 1    
   196   99  220 1    
   197  100  101 1    
   198  100  102 1    
   199  100  221 1    
   200  101  222 1    
   201  101  223 1    
   202  101  224 1    
   203  102  103 2    
   204  102  104 am   BACKBONE|DICT|INTERRES
   205  104  105 1    
   206  104  225 1    
   207  105  106 1    
   208  105  107 1    
   209  105  226 1    
   210  106  227 1    
   211  106  228 1    
   212  106  229 1    
   213  107  108 2    
   214  107  109 am   BACKBONE|DICT|INTERRES
   215  109  110 1    
   216  109  230 1    
   217  110  111 1    
   218  110  112 1    
   219  110  231 1    
   220  111  232 1    
   221  111  233 1    
   222  111  234 1    
   223  112  113 2    
   224  112  114 am   BACKBONE|DICT|INTERRES
   225  114  115 1    
   226  114  235 1    
   227  115  116 1    
   228  115  117 1    
   229  115  236 1    
   230  116  237 1    
   231  116  238 1    
   232  116  239 1    
   233  117  118 2    
   234  117  119 am   BACKBONE|DICT|INTERRES
   235  119  120 1    
   236  119  240 1    
   237  120  121 1    
   238  120  124 1    
   239  120  241 1    
   240  121  122 am   BACKBONE|DICT|INTERRES
   241  121  123 2    
   242  122  242 1    
   243  122  243 1    
   244  124  125 1    
   245  124  244 1    
   246  124  245 1    
   247  125  126 1    
   248  126  246 1    
   249  126  247 1    
@<TRIPOS>SUBSTRUCTURE
     1 UNK         1 GROUP             0       ****    0 ROOT    
