@<TRIPOS>MOLECULE
3R540
247   249    1
SMALL
USER_CHARGES


@<TRIPOS>ATOM
      1 CA         -2.6750  -17.7005  -44.9500 C.3       0 UNK        -0.1800 
      2 C          -3.0701  -16.2957  -45.3863 C.2       0 UNK         0.5000 
      3 O          -4.2468  -16.0410  -45.6413 O.2       0 UNK        -0.5000 
      4 N          -2.0894  -15.3910  -45.4693 N.am      1 UNK        -0.5000 
      5 CA         -2.2631  -13.9784  -45.8304 C.3       1 UNK         0.1400 
      6 C6         -1.1402  -13.4837  -46.7780 C.3       23 UNK        -0.0398 
      7 S7         -1.2835  -14.1977  -48.4490 S.3       23 UNK        -0.2404 
      8 C8         -0.2125  -15.6633  -48.3022 C.3       23 UNK        -0.0205 
      9 C9         -0.5424  -16.7196  -49.3479 C.ar      23 UNK        -0.0193 
     10 C10         0.4465  -17.2000  -50.2120 C.ar      23 UNK        -0.1150 
     11 C11         0.1516  -18.1723  -51.1744 C.ar      23 UNK        -0.0193 
     12 C12        -1.1591  -18.6625  -51.2582 C.ar      23 UNK        -0.1150 
     13 C13        -2.1603  -18.1798  -50.4120 C.ar      23 UNK        -0.0193 
     14 C14        -1.8410  -17.2266  -49.4445 C.ar      23 UNK        -0.1150 
     15 C15        -3.5988  -18.6413  -50.5848 C.3       23 UNK        -0.0205 
     16 S16        -3.7923  -20.4320  -50.3621 S.3       23 UNK        -0.2404 
     17 C17        -3.6103  -20.6108  -48.5611 C.3       23 UNK        -0.0398 
     18 CA         -2.7783  -21.8699  -48.2246 C.3       11 UNK         0.1400 
     19 N          -1.3364  -21.6416  -48.3653 N.am      11 UNK        -0.5000 
     20 C          -0.4169  -22.6162  -48.3815 C.2       10 UNK         0.5000 
     21 O          -0.6923  -23.8095  -48.2756 O.2       10 UNK        -0.5000 
     22 CA          1.0603  -22.1897  -48.4642 C.3       10 UNK         0.1400 
     23 CB          1.4621  -21.9456  -49.9258 C.3       10 UNK        -0.1800 
     24 N           1.3980  -21.0074  -47.6639 N.am      10 UNK        -0.5000 
     25 C           1.1263  -20.8413  -46.3618 C.2       9 UNK         0.5000 
     26 O           0.4747  -21.6491  -45.6958 O.2       9 UNK        -0.5000 
     27 CA          1.6403  -19.5369  -45.7202 C.3       9 UNK         0.1400 
     28 CB          1.0068  -18.3111  -46.3927 C.3       9 UNK        -0.1800 
     29 N           1.3555  -19.4750  -44.2867 N.am      9 UNK        -0.5000 
     30 C           1.9852  -20.1860  -43.3425 C.2       8 UNK         0.5000 
     31 O           2.9542  -20.9122  -43.5726 O.2       8 UNK        -0.5000 
     32 CA          1.4530  -20.0326  -41.9028 C.3       8 UNK         0.1400 
     33 CB          2.4777  -20.4783  -40.8438 C.3       8 UNK        -0.1800 
     34 N           1.0724  -18.6458  -41.6316 N.am      8 UNK        -0.5000 
     35 C          -0.1744  -18.1568  -41.6437 C.2       7 UNK         0.5000 
     36 O          -1.1738  -18.8307  -41.8858 O.2       7 UNK        -0.5000 
     37 CA         -0.3226  -16.6490  -41.3729 C.3       7 UNK         0.1400 
     38 CB         -0.5336  -16.3870  -39.8744 C.3       7 UNK        -0.1800 
     39 N           0.8456  -15.8949  -41.8305 N.am      7 UNK        -0.5000 
     40 C           1.0907  -15.5564  -43.1011 C.2       6 UNK         0.5000 
     41 O           0.2885  -15.7644  -44.0137 O.2       6 UNK        -0.5000 
     42 CA          2.4324  -14.8467  -43.3839 C.3       6 UNK         0.1400 
     43 CB          2.5294  -14.3263  -44.8279 C.3       6 UNK        -0.1800 
     44 N           2.6897  -13.7407  -42.4556 N.am      6 UNK        -0.5000 
     45 C           3.1442  -13.8736  -41.1996 C.2       5 UNK         0.5000 
     46 O           3.3558  -14.9740  -40.6860 O.2       5 UNK        -0.5000 
     47 CA          3.3480  -12.5967  -40.3546 C.3       5 UNK         0.1400 
     48 CB          4.5808  -12.6896  -39.4314 C.3       5 UNK        -0.1800 
     49 N           3.3570  -11.3534  -41.1313 N.am      5 UNK        -0.5000 
     50 C           4.2587  -10.9446  -42.0382 C.2       4 UNK         0.5000 
     51 O           5.2889  -11.5628  -42.3096 O.2       4 UNK        -0.5000 
     52 CA          3.9282   -9.6245  -42.7763 C.3       4 UNK         0.1400 
     53 CB          4.5873   -9.5405  -44.1692 C.3       4 UNK        -0.1800 
     54 N           2.4841   -9.3547  -42.8679 N.am      4 UNK        -0.5000 
     55 C           1.5644  -10.1412  -43.4449 C.2       3 UNK         0.5000 
     56 O           1.8302  -11.1866  -44.0417 O.2       3 UNK        -0.5000 
     57 CA          0.0955   -9.7085  -43.2890 C.3       3 UNK         0.1400 
     58 CB         -0.3786   -8.9528  -44.5389 C.3       3 UNK        -0.1800 
     59 N          -0.7827  -10.8573  -43.0687 N.am      3 UNK        -0.5000 
     60 C          -0.6995  -11.7350  -42.0614 C.2       2 UNK         0.5000 
     61 O           0.0872  -11.6184  -41.1203 O.2       2 UNK        -0.5000 
     62 CA         -1.6221  -12.9692  -42.1211 C.3       2 UNK         0.1400 
     63 CB         -3.0004  -12.6703  -41.5041 C.3       2 UNK        -0.1800 
     64 N          -1.7466  -13.5827  -43.4526 N.am      2 UNK        -0.5000 
     65 C          -2.3178  -13.0970  -44.5668 C.2       1 UNK         0.5000 
     66 O          -2.8562  -11.9914  -44.6326 O.2       1 UNK        -0.5000 
     67 C          -3.1867  -22.4410  -46.8524 C.2       11 UNK         0.5000 
     68 O          -4.2100  -23.1227  -46.7894 O.2       11 UNK        -0.5000 
     69 N          -2.4021  -22.1957  -45.7937 N.am      12 UNK        -0.5000 
     70 CA         -2.6471  -22.7719  -44.4698 C.3       12 UNK         0.1400 
     71 CB         -1.8889  -21.9694  -43.4012 C.3       12 UNK        -0.1800 
     72 C          -2.2602  -24.2612  -44.4207 C.2       12 UNK         0.5000 
     73 O          -2.9344  -25.0423  -43.7492 O.2       12 UNK        -0.5000 
     74 N          -1.1998  -24.6291  -45.1528 N.am      13 UNK        -0.5000 
     75 CA         -0.7258  -26.0048  -45.2909 C.3       13 UNK         0.1400 
     76 CB          0.7468  -25.9891  -45.7304 C.3       13 UNK        -0.1800 
     77 C          -1.5831  -26.8153  -46.2797 C.2       13 UNK         0.5000 
     78 O          -1.9419  -27.9556  -45.9850 O.2       13 UNK        -0.5000 
     79 N          -1.8932  -26.2117  -47.4344 N.am      14 UNK        -0.5000 
     80 CA         -2.6103  -26.8409  -48.5452 C.3       14 UNK         0.1400 
     81 CB         -2.2224  -26.1171  -49.8440 C.3       14 UNK        -0.1800 
     82 C          -4.1420  -26.8484  -48.3825 C.2       14 UNK         0.5000 
     83 O          -4.8180  -27.4671  -49.2040 O.2       14 UNK        -0.5000 
     84 N          -4.6653  -26.1452  -47.3668 N.am      15 UNK        -0.5000 
     85 CA         -6.0897  -25.9266  -47.0857 C.3       15 UNK         0.1400 
     86 CB         -6.7919  -27.2459  -46.7016 C.3       15 UNK        -0.1800 
     87 C          -6.7816  -25.1765  -48.2429 C.2       15 UNK         0.5000 
     88 O          -7.7349  -25.6769  -48.8411 O.2       15 UNK        -0.5000 
     89 N          -6.2316  -23.9952  -48.5534 N.am      16 UNK        -0.5000 
     90 CA         -6.6253  -23.0315  -49.5900 C.3       16 UNK         0.1400 
     91 CB         -8.0912  -22.5867  -49.4192 C.3       16 UNK        -0.1800 
     92 C          -6.3270  -23.4561  -51.0434 C.2       16 UNK         0.5000 
     93 O          -6.4533  -22.6225  -51.9407 O.2       16 UNK        -0.5000 
     94 N          -5.9077  -24.7088  -51.2732 N.am      17 UNK        -0.5000 
     95 CA         -5.6467  -25.2623  -52.6069 C.3       17 UNK         0.1400 
     96 CB         -5.4864  -26.7856  -52.5020 C.3       17 UNK        -0.1800 
     97 C          -4.4352  -24.6357  -53.3266 C.2       17 UNK         0.5000 
     98 O          -4.3780  -24.6746  -54.5564 O.2       17 UNK        -0.5000 
     99 N          -3.5034  -24.0473  -52.5616 N.am      18 UNK        -0.5000 
    100 CA        -2.3110  -23.3667  -53.0741 C.3       18 UNK         0.1400 
    101 CB        -1.3464  -23.0683  -51.9185 C.3       18 UNK        -0.1800 
    102 C         -2.6153  -22.0784  -53.8606 C.2       18 UNK         0.5000 
    103 O         -1.7754  -21.6548  -54.6534 O.2       18 UNK        -0.5000 
    104 N         -3.8085  -21.4939  -53.6729 N.am      19 UNK        -0.5000 
    105 CA        -4.2709  -20.2818  -54.3555 C.3       19 UNK         0.1400 
    106 CB        -5.6709  -19.9159  -53.8418 C.3       19 UNK        -0.1800 
    107 C         -4.2792  -20.4007  -55.8924 C.2       19 UNK         0.5000 
    108 O         -4.0413  -19.4070  -56.5789 O.2       19 UNK        -0.5000 
    109 N         -4.5006  -21.6209  -56.4018 N.am      20 UNK        -0.5000 
    110 CA        -4.4406  -21.9568  -57.8245 C.3       20 UNK         0.1400 
    111 CB        -5.0095  -23.3698  -58.0240 C.3       20 UNK        -0.1800 
    112 C         -3.0218  -21.8572  -58.4224 C.2       20 UNK         0.5000 
    113 O         -2.8944  -21.6207  -59.6245 O.2       20 UNK        -0.5000 
    114 N         -1.9898  -22.0349  -57.5862 N.am      21 UNK        -0.5000 
    115 CA        -0.5844  -21.8962  -57.9618 C.3       21 UNK         0.1400 
    116 CB         0.2517  -22.9398  -57.2030 C.3       21 UNK        -0.1800 
    117 C         -0.0754  -20.4746  -57.6730 C.2       21 UNK         0.5000 
    118 O          0.6151  -19.8967  -58.5137 O.2       21 UNK        -0.5000 
    119 N         -0.4198  -19.9412  -56.4938 N.am      22 UNK        -0.5000 
    120 CA        -0.0112  -18.6071  -56.0271 C.3       22 UNK         0.1400 
    121 C         -0.6906  -17.4271  -56.7789 C.2       22 UNK         0.5000 
    122 N         -1.8999  -17.5779  -57.3050 N.am      22 UNK        -0.7600 
    123 O         -0.1045  -16.3539  -56.8913 O.2       22 UNK        -0.5000 
    124 C124       -0.2010  -18.4509  -54.4986 C.3       23 UNK        -0.0398 
    125 S125        0.7769  -19.6566  -53.5335 S.3       23 UNK        -0.2404 
    126 C126        1.2809  -18.6501  -52.0928 C.3       23 UNK        -0.0205 
    127 H127       -1.6473  -17.7372  -44.5891 H         1 UNK         0.0600 
    128 H128       -2.7710  -18.3956  -45.7840 H         1 UNK         0.0600 
    129 H129       -3.3233  -18.0418  -44.1428 H         1 UNK         0.0600 
    130 H130       -1.1494  -15.6566  -45.1850 H         1 UNK         0.3000 
    131 H131       -3.2178  -13.8424  -46.3430 H         1 UNK         0.0600 
    132 H132       -1.1860  -12.3993  -46.8971 H         1 UNK         0.0800 
    133 H133       -0.1539  -13.7007  -46.3671 H         1 UNK         0.0800 
    134 H134       -0.3371  -16.1079  -47.3180 H         1 UNK         0.0800 
    135 H135        0.8303  -15.3503  -48.3718 H         1 UNK         0.0800 
    136 H136        1.4533  -16.8131  -50.1378 H         1 UNK         0.1150 
    137 H137       -1.4236  -19.4136  -51.9875 H         1 UNK         0.1150 
    138 H138       -2.6099  -16.8506  -48.7839 H         1 UNK         0.1150 
    139 H139       -4.2683  -18.1190  -49.8995 H         1 UNK         0.0800 
    140 H140       -3.9262  -18.3780  -51.5910 H         1 UNK         0.0800 
    141 H141       -4.6193  -20.6641  -48.1478 H         1 UNK         0.0800 
    142 H142       -3.1568  -19.7185  -48.1269 H         1 UNK         0.0800 
    143 H143       -3.0452  -22.6523  -48.9391 H         1 UNK         0.0600 
    144 H144       -1.0313  -20.6841  -48.4591 H         1 UNK         0.3000 
    145 H145        1.6593  -23.0175  -48.0795 H         1 UNK         0.0600 
    146 H146        2.5136  -21.6714  -50.0105 H         1 UNK         0.0600 
    147 H147        1.3158  -22.8460  -50.5234 H         1 UNK         0.0600 
    148 H148        0.8679  -21.1509  -50.3785 H         1 UNK         0.0600 
    149 H149        1.9237  -20.2899  -48.1409 H         1 UNK         0.3000 
    150 H150        2.7222  -19.4939  -45.8613 H         1 UNK         0.0600 
    151 H151       -0.0819  -18.3470  -46.3493 H         1 UNK         0.0600 
    152 H152        1.2913  -18.2438  -47.4429 H         1 UNK         0.0600 
    153 H153        1.3348  -17.3879  -45.9162 H         1 UNK         0.0600 
    154 H154        0.5559  -18.9263  -44.0095 H         1 UNK         0.3000 
    155 H155        0.5816  -20.6847  -41.8159 H         1 UNK         0.0600 
    156 H156        3.3982  -19.8965  -40.9041 H         1 UNK         0.0600 
    157 H157        2.7418  -21.5291  -40.9695 H         1 UNK         0.0600 
    158 H158        2.0758  -20.3662  -39.8366 H         1 UNK         0.0600 
    159 H159        1.8326  -18.0044  -41.4587 H         1 UNK         0.3000 
    160 H160       -1.2075  -16.2996  -41.9091 H         1 UNK         0.0600 
    161 H161        0.3209  -16.7186  -39.2831 H         1 UNK         0.0600 
    162 H162       -1.4135  -16.9162  -39.5062 H         1 UNK         0.0600 
    163 H163       -0.6862  -15.3264  -39.6747 H         1 UNK         0.0600 
    164 H164        1.5617  -15.6809  -41.1434 H         1 UNK         0.3000 
    165 H165        3.2159  -15.5964  -43.2572 H         1 UNK         0.0600 
    166 H166        3.4928  -13.8505  -45.0119 H         1 UNK         0.0600 
    167 H167        1.7512  -13.5951  -45.0417 H         1 UNK         0.0600 
    168 H168        2.4252  -15.1379  -45.5488 H         1 UNK         0.0600 
    169 H169        2.4971  -12.8102  -42.8098 H         1 UNK         0.3000 
    170 H170        2.4686  -12.5315  -39.7124 H         1 UNK         0.0600 
    171 H171        4.4826  -13.5189  -38.7300 H         1 UNK         0.0600 
    172 H172        5.5003  -12.8496  -39.9947 H         1 UNK         0.0600 
    173 H173        4.7013  -11.7814  -38.8408 H         1 UNK         0.0600 
    174 H174        2.5294  -10.7837  -41.0166 H         1 UNK         0.3000 
    175 H175        4.3502   -8.8259  -42.1646 H         1 UNK         0.0600 
    176 H176        4.2717  -10.3584  -44.8177 H         1 UNK         0.0600 
    177 H177        4.3394   -8.6030  -44.6669 H         1 UNK         0.0600 
    178 H178        5.6741   -9.5869  -44.0918 H         1 UNK         0.0600 
    179 H179        2.1714   -8.5169  -42.3960 H         1 UNK         0.3000 
    180 H180        0.0072   -9.0500  -42.4228 H         1 UNK         0.0600 
    181 H181       -0.3326   -9.5820  -45.4290 H         1 UNK         0.0600 
    182 H182        0.2409   -8.0744  -44.7243 H         1 UNK         0.0600 
    183 H183       -1.4065   -8.6079  -44.4255 H         1 UNK         0.0600 
    184 H184       -1.4750  -11.0488  -43.7867 H         1 UNK         0.3000 
    185 H185       -1.1500  -13.7275  -41.4966 H         1 UNK         0.0600 
    186 H186       -3.6244  -13.5638  -41.4840 H         1 UNK         0.0600 
    187 H187       -2.8972  -12.3226  -40.4755 H         1 UNK         0.0600 
    188 H188       -3.5372  -11.8976  -42.0549 H         1 UNK         0.0600 
    189 H189       -1.2868  -14.4800  -43.5463 H         1 UNK         0.3000 
    190 H190       -1.5239  -21.7033  -45.9163 H         1 UNK         0.3000 
    191 H191       -3.7140  -22.6938  -44.2489 H         1 UNK         0.0600 
    192 H192       -2.1614  -22.3040  -42.3998 H         1 UNK         0.0600 
    193 H193       -2.1238  -20.9068  -43.4641 H         1 UNK         0.0600 
    194 H194       -0.8092  -22.0811  -43.4960 H         1 UNK         0.0600 
    195 H195       -0.7079  -23.9196  -45.6792 H         1 UNK         0.3000 
    196 H196       -0.7809  -26.4954  -44.3166 H         1 UNK         0.0600 
    197 H197        0.8780  -25.4946  -46.6936 H         1 UNK         0.0600 
    198 H198        1.3690  -25.4694  -45.0015 H         1 UNK         0.0600 
    199 H199        1.1361  -27.0034  -45.8262 H         1 UNK         0.0600 
    200 H200       -1.5118  -25.2857  -47.6203 H         1 UNK         0.3000 
    201 H201       -2.2862  -27.8803  -48.6275 H         1 UNK         0.0600 
    202 H202       -2.5780  -25.0866  -49.8455 H         1 UNK         0.0600 
    203 H203       -2.6441  -26.6150  -50.7167 H         1 UNK         0.0600 
    204 H204       -1.1406  -26.0989  -49.9775 H         1 UNK         0.0600 
    205 H205       -4.0221  -25.6390  -46.7739 H         1 UNK         0.3000 
    206 H206       -6.1356  -25.2680  -46.2169 H         1 UNK         0.0600 
    207 H207       -6.2853  -27.7322  -45.8680 H         1 UNK         0.0600 
    208 H208       -7.8214  -27.0609  -46.3933 H         1 UNK         0.0600 
    209 H209       -6.8238  -27.9519  -47.5318 H         1 UNK         0.0600 
    210 H210       -5.4533  -23.6974  -47.9673 H         1 UNK         0.3000 
    211 H211       -6.0082  -22.1529  -49.4110 H         1 UNK         0.0600 
    212 H212       -8.3259  -21.7571  -50.0872 H         1 UNK         0.0600 
    213 H213       -8.2850  -22.2470  -48.4018 H         1 UNK         0.0600 
    214 H214       -8.7913  -23.3909  -49.6458 H         1 UNK         0.0600 
    215 H215       -5.8561  -25.3513  -50.4945 H         1 UNK         0.3000 
    216 H216       -6.5245  -25.0608  -53.2245 H         1 UNK         0.0600 
    217 H217       -4.6139  -27.0602  -51.9105 H         1 UNK         0.0600 
    218 H218       -5.3664  -27.2344  -53.4888 H         1 UNK         0.0600 
    219 H219       -6.3610  -27.2446  -52.0405 H         1 UNK         0.0600 
    220 H220       -3.6400  -24.0433  -51.5631 H         1 UNK         0.3000 
    221 H221       -1.8077  -24.0476  -53.7637 H         1 UNK         0.0600 
    222 H222       -1.0030  -23.9843  -51.4394 H         1 UNK         0.0600 
    223 H223       -1.8091  -22.4406  -51.1590 H         1 UNK         0.0600 
    224 H224       -0.4609  -22.5425  -52.2783 H         1 UNK         0.0600 
    225 H225       -4.4517  -21.9069  -53.0098 H         1 UNK         0.3000 
    226 H226       -3.5855  -19.4749  -54.0897 H         1 UNK         0.0600 
    227 H227       -6.3991  -20.6936  -54.0759 H         1 UNK         0.0600 
    228 H228       -5.6743  -19.7739  -52.7613 H         1 UNK         0.0600 
    229 H229       -6.0231  -18.9875  -54.2931 H         1 UNK         0.0600 
    230 H230       -4.6628  -22.3868  -55.7620 H         1 UNK         0.3000 
    231 H231       -5.0756  -21.2520  -58.3652 H         1 UNK         0.0600 
    232 H232       -4.4271  -24.1170  -57.4829 H         1 UNK         0.0600 
    233 H233       -5.0047  -23.6489  -59.0785 H         1 UNK         0.0600 
    234 H234       -6.0409  -23.4329  -57.6764 H         1 UNK         0.0600 
    235 H235       -2.1767  -22.1635  -56.5990 H         1 UNK         0.3000 
    236 H236       -0.4635  -22.0877  -59.0301 H         1 UNK         0.0600 
    237 H237       -0.0813  -23.9521  -57.4324 H         1 UNK         0.0600 
    238 H238        1.3039  -22.8721  -57.4823 H         1 UNK         0.0600 
    239 H239        0.1911  -22.8047  -56.1226 H         1 UNK         0.0600 
    240 H240       -0.9459  -20.5062  -55.8317 H         1 UNK         0.3000 
    241 H241        1.0581  -18.5145  -56.2279 H         1 UNK         0.0600 
    242 H242       -2.3203  -16.8043  -57.7944 H         1 UNK         0.3800 
    243 H243       -2.4450  -18.4207  -57.1551 H         1 UNK         0.3800 
    244 H244       -1.2534  -18.5675  -54.2369 H         1 UNK         0.0800 
    245 H245        0.0819  -17.4447  -54.1839 H         1 UNK         0.0800 
    246 H246        1.8400  -17.7866  -52.4564 H         1 UNK         0.0800 
    247 H247        1.9813  -19.2370  -51.4979 H         1 UNK         0.0800 
@<TRIPOS>BOND
     1    1    2 1    
     2    1  127 1    
     3    1  128 1    
     4    1  129 1    
     5    2    3 2    
     6    2    4 am   BACKBONE|DICT|INTERRES
     7    4    5 1    
     8    4  130 1    
     9    5    6 1    
    10    5   65 1    
    11    5  131 1    
    12    6    7 1    
    13    6  132 1    
    14    6  133 1    
    15    7    8 1    
    16    8    9 1    
    17    8  134 1    
    18    8  135 1    
    19    9   10 ar   
    20    9   14 ar   
    21   10   11 ar   
    22   10  136 1    
    23   11   12 ar   
    24   11  126 1    
    25   12   13 ar   
    26   12  137 1    
    27   13   14 ar   
    28   13   15 1    
    29   14  138 1    
    30   15   16 1    
    31   15  139 1    
    32   15  140 1    
    33   16   17 1    
    34   17   18 1    
    35   17  141 1    
    36   17  142 1    
    37   18   19 1    
    38   18   67 1    
    39   18  143 1    
    40   19   20 am   BACKBONE|DICT|INTERRES
    41   19  144 1    
    42   20   21 2    
    43   20   22 1    
    44   22   23 1    
    45   22   24 1    
    46   22  145 1    
    47   23  146 1    
    48   23  147 1    
    49   23  148 1    
    50   24   25 am   BACKBONE|DICT|INTERRES
    51   24  149 1    
    52   25   26 2    
    53   25   27 1    
    54   27   28 1    
    55   27   29 1    
    56   27  150 1    
    57   28  151 1    
    58   28  152 1    
    59   28  153 1    
    60   29   30 am   BACKBONE|DICT|INTERRES
    61   29  154 1    
    62   30   31 2    
    63   30   32 1    
    64   32   33 1    
    65   32   34 1    
    66   32  155 1    
    67   33  156 1    
    68   33  157 1    
    69   33  158 1    
    70   34   35 am   BACKBONE|DICT|INTERRES
    71   34  159 1    
    72   35   36 2    
    73   35   37 1    
    74   37   38 1    
    75   37   39 1    
    76   37  160 1    
    77   38  161 1    
    78   38  162 1    
    79   38  163 1    
    80   39   40 am   BACKBONE|DICT|INTERRES
    81   39  164 1    
    82   40   41 2    
    83   40   42 1    
    84   42   43 1    
    85   42   44 1    
    86   42  165 1    
    87   43  166 1    
    88   43  167 1    
    89   43  168 1    
    90   44   45 am   BACKBONE|DICT|INTERRES
    91   44  169 1    
    92   45   46 2    
    93   45   47 1    
    94   47   48 1    
    95   47   49 1    
    96   47  170 1    
    97   48  171 1    
    98   48  172 1    
    99   48  173 1    
   100   49   50 am   BACKBONE|DICT|INTERRES
   101   49  174 1    
   102   50   51 2    
   103   50   52 1    
   104   52   53 1    
   105   52   54 1    
   106   52  175 1    
   107   53  176 1    
   108   53  177 1    
   109   53  178 1    
   110   54   55 am   BACKBONE|DICT|INTERRES
   111   54  179 1    
   112   55   56 2    
   113   55   57 1    
   114   57   58 1    
   115   57   59 1    
   116   57  180 1    
   117   58  181 1    
   118   58  182 1    
   119   58  183 1    
   120   59   60 am   BACKBONE|DICT|INTERRES
   121   59  184 1    
   122   60   61 2    
   123   60   62 1    
   124   62   63 1    
   125   62   64 1    
   126   62  185 1    
   127   63  186 1    
   128   63  187 1    
   129   63  188 1    
   130   64   65 am   BACKBONE|DICT|INTERRES
   131   64  189 1    
   132   65   66 2    
   133   67   68 2    
   134   67   69 am   BACKBONE|DICT|INTERRES
   135   69   70 1    
   136   69  190 1    
   137   70   71 1    
   138   70   72 1    
   139   70  191 1    
   140   71  192 1    
   141   71  193 1    
   142   71  194 1    
   143   72   73 2    
   144   72   74 am   BACKBONE|DICT|INTERRES
   145   74   75 1    
   146   74  195 1    
   147   75   76 1    
   148   75   77 1    
   149   75  196 1    
   150   76  197 1    
   151   76  198 1    
   152   76  199 1    
   153   77   78 2    
   154   77   79 am   BACKBONE|DICT|INTERRES
   155   79   80 1    
   156   79  200 1    
   157   80   81 1    
   158   80   82 1    
   159   80  201 1    
   160   81  202 1    
   161   81  203 1    
   162   81  204 1    
   163   82   83 2    
   164   82   84 am   BACKBONE|DICT|INTERRES
   165   84   85 1    
   166   84  205 1    
   167   85   86 1    
   168   85   87 1    
   169   85  206 1    
   170   86  207 1    
   171   86  208 1    
   172   86  209 1    
   173   87   88 2    
   174   87   89 am   BACKBONE|DICT|INTERRES
   175   89   90 1    
   176   89  210 1    
   177   90   91 1    
   178   90   92 1    
   179   90  211 1    
   180   91  212 1    
   181   91  213 1    
   182   91  214 1    
   183   92   93 2    
   184   92   94 am   BACKBONE|DICT|INTERRES
   185   94   95 1    
   186   94  215 1    
   187   95   96 1    
   188   95   97 1    
   189   95  216 1    
   190   96  217 1    
   191   96  218 1    
   192   96  219 1    
   193   97   98 2    
   194   97   99 am   BACKBONE|DICT|INTERRES
   195   99  100 1    
   196   99  220 1    
   197  100  101 1    
   198  100  102 1    
   199  100  221 1    
   200  101  222 1    
   201  101  223 1    
   202  101  224 1    
   203  102  103 2    
   204  102  104 am   BACKBONE|DICT|INTERRES
   205  104  105 1    
   206  104  225 1    
   207  105  106 1    
   208  105  107 1    
   209  105  226 1    
   210  106  227 1    
   211  106  228 1    
   212  106  229 1    
   213  107  108 2    
   214  107  109 am   BACKBONE|DICT|INTERRES
   215  109  110 1    
   216  109  230 1    
   217  110  111 1    
   218  110  112 1    
   219  110  231 1    
   220  111  232 1    
   221  111  233 1    
   222  111  234 1    
   223  112  113 2    
   224  112  114 am   BACKBONE|DICT|INTERRES
   225  114  115 1    
   226  114  235 1    
   227  115  116 1    
   228  115  117 1    
   229  115  236 1    
   230  116  237 1    
   231  116  238 1    
   232  116  239 1    
   233  117  118 2    
   234  117  119 am   BACKBONE|DICT|INTERRES
   235  119  120 1    
   236  119  240 1    
   237  120  121 1    
   238  120  124 1    
   239  120  241 1    
   240  121  122 am   BACKBONE|DICT|INTERRES
   241  121  123 2    
   242  122  242 1    
   243  122  243 1    
   244  124  125 1    
   245  124  244 1    
   246  124  245 1    
   247  125  126 1    
   248  126  246 1    
   249  126  247 1    
@<TRIPOS>SUBSTRUCTURE
     1 UNK         1 GROUP             0       ****    0 ROOT    
