@<TRIPOS>MOLECULE
3R540
247   249    1
SMALL
USER_CHARGES


@<TRIPOS>ATOM
      1 CA          2.7701  -12.5735  -53.5871 C.3       0 UNK        -0.1800 
      2 C           1.6122  -12.2245  -52.6541 C.2       0 UNK         0.5000 
      3 O           0.4792  -12.1215  -53.1192 O.2       0 UNK        -0.5000 
      4 N           1.8260  -12.0384  -51.3460 N.am      1 UNK        -0.5000 
      5 CA          3.1040  -12.0594  -50.6276 C.3       1 UNK         0.1400 
      6 C6          3.7364  -13.4706  -50.4564 C.3       23 UNK        -0.0398 
      7 S7          2.6902  -14.6990  -49.5949 S.3       23 UNK        -0.2404 
      8 C8          1.9636  -15.5984  -51.0012 C.3       23 UNK        -0.0205 
      9 C9          0.9601  -16.6406  -50.5370 C.ar      23 UNK        -0.0193 
     10 C10        -0.2488  -16.2392  -49.9631 C.ar      23 UNK        -0.1150 
     11 C11        -1.1844  -17.1861  -49.5389 C.ar      23 UNK        -0.0193 
     12 C12        -0.9073  -18.5468  -49.6964 C.ar      23 UNK        -0.1150 
     13 C13         0.2974  -18.9603  -50.2753 C.ar      23 UNK        -0.0193 
     14 C14         1.2256  -18.0029  -50.6952 C.ar      23 UNK        -0.1150 
     15 C15         0.5987  -20.4405  -50.4542 C.3       23 UNK        -0.0205 
     16 S16         1.9713  -21.0019  -49.3949 S.3       23 UNK        -0.2404 
     17 C17         1.2667  -20.7805  -47.7256 C.3       23 UNK        -0.0398 
     18 CA          0.7860  -22.0985  -47.0764 C.3       11 UNK         0.1400 
     19 N           0.5307  -21.9265  -45.6456 N.am      11 UNK        -0.5000 
     20 C           0.2540  -22.9180  -44.7886 C.2       10 UNK         0.5000 
     21 O           0.2210  -24.1054  -45.1040 O.2       10 UNK        -0.5000 
     22 CA         -0.0871  -22.5166  -43.3444 C.3       10 UNK         0.1400 
     23 CB          1.1932  -22.2560  -42.5375 C.3       10 UNK        -0.1800 
     24 N          -0.9702  -21.3519  -43.2734 N.am      10 UNK        -0.5000 
     25 C          -2.2163  -21.3133  -43.7681 C.2       9 UNK         0.5000 
     26 O          -2.7623  -22.2669  -44.3226 O.2       9 UNK        -0.5000 
     27 CA         -2.9667  -19.9745  -43.6639 C.3       9 UNK         0.1400 
     28 CB         -3.4937  -19.7511  -42.2387 C.3       9 UNK        -0.1800 
     29 N          -2.1472  -18.8339  -44.0707 N.am      9 UNK        -0.5000 
     30 C          -1.6452  -18.6578  -45.3018 C.2       8 UNK         0.5000 
     31 O          -1.8372  -19.4295  -46.2433 O.2       8 UNK        -0.5000 
     32 CA         -0.7332  -17.4328  -45.4950 C.3       8 UNK         0.1400 
     33 CB         -1.5526  -16.1322  -45.5124 C.3       8 UNK        -0.1800 
     34 N           0.2961  -17.3295  -44.4612 N.am      8 UNK        -0.5000 
     35 C           1.2166  -18.2632  -44.1852 C.2       7 UNK         0.5000 
     36 O           1.3479  -19.3097  -44.8174 O.2       7 UNK        -0.5000 
     37 CA          2.1026  -18.0084  -42.9554 C.3       7 UNK         0.1400 
     38 CB          3.2312  -17.0189  -43.2845 C.3       7 UNK        -0.1800 
     39 N           1.3266  -17.5235  -41.8124 N.am      7 UNK        -0.5000 
     40 C           0.4110  -18.2514  -41.1553 C.2       6 UNK         0.5000 
     41 O           0.1380  -19.4186  -41.4293 O.2       6 UNK        -0.5000 
     42 CA         -0.3577  -17.5433  -40.0263 C.3       6 UNK         0.1400 
     43 CB          0.4647  -17.5384  -38.7291 C.3       6 UNK        -0.1800 
     44 N          -0.7211  -16.1713  -40.3773 N.am      6 UNK        -0.5000 
     45 C          -1.5976  -15.8404  -41.3363 C.2       5 UNK         0.5000 
     46 O          -2.2295  -16.6613  -42.0015 O.2       5 UNK        -0.5000 
     47 CA         -1.7434  -14.3360  -41.6345 C.3       5 UNK         0.1400 
     48 CB         -2.7405  -13.6839  -40.6653 C.3       5 UNK        -0.1800 
     49 N          -0.4618  -13.6245  -41.5728 N.am      5 UNK        -0.5000 
     50 C           0.5617  -13.8571  -42.4037 C.2       4 UNK         0.5000 
     51 O           0.5201  -14.6767  -43.3258 O.2       4 UNK        -0.5000 
     52 CA          1.8638  -13.0936  -42.1347 C.3       4 UNK         0.1400 
     53 CB          2.6732  -13.8025  -41.0293 C.3       4 UNK        -0.1800 
     54 N           2.6046  -13.0465  -43.3905 N.am      4 UNK        -0.5000 
     55 C           3.7496  -12.4028  -43.6388 C.2       3 UNK         0.5000 
     56 O           4.3877  -11.7692  -42.7973 O.2       3 UNK        -0.5000 
     57 CA          4.2425  -12.4484  -45.0981 C.3       3 UNK         0.1400 
     58 CB          4.9153  -13.7958  -45.4060 C.3       3 UNK        -0.1800 
     59 N           3.1739  -12.2086  -46.0730 N.am      3 UNK        -0.5000 
     60 C           2.4773  -11.0671  -46.1820 C.2       2 UNK         0.5000 
     61 O           2.6567  -10.0866  -45.4569 O.2       2 UNK        -0.5000 
     62 CA          1.4142  -11.0185  -47.3020 C.3       2 UNK         0.1400 
     63 CB          0.8823   -9.5940  -47.5657 C.3       2 UNK        -0.1800 
     64 N           1.8560  -11.6363  -48.5592 N.am      2 UNK        -0.5000 
     65 C           2.9347  -11.3111  -49.2929 C.2       1 UNK         0.5000 
     66 O           3.7454  -10.4370  -48.9841 O.2       1 UNK        -0.5000 
     67 C          -0.4371  -22.6934  -47.8039 C.2       11 UNK         0.5000 
     68 O          -0.2869  -23.6727  -48.5350 O.2       11 UNK        -0.5000 
     69 N          -1.6277  -22.1256  -47.5604 N.am      12 UNK        -0.5000 
     70 CA         -2.8933  -22.6110  -48.1140 C.3       12 UNK         0.1400 
     71 CB         -4.0158  -21.6228  -47.7672 C.3       12 UNK        -0.1800 
     72 C          -3.2409  -24.0383  -47.6462 C.2       12 UNK         0.5000 
     73 O          -3.6711  -24.8564  -48.4600 O.2       12 UNK        -0.5000 
     74 N          -3.0051  -24.3286  -46.3585 N.am      13 UNK        -0.5000 
     75 CA         -3.1812  -25.6524  -45.7602 C.3       13 UNK         0.1400 
     76 CB         -3.0567  -25.5512  -44.2326 C.3       13 UNK        -0.1800 
     77 C          -2.2018  -26.7010  -46.3197 C.2       13 UNK         0.5000 
     78 O          -2.6187  -27.8268  -46.5922 O.2       13 UNK        -0.5000 
     79 N          -0.9309  -26.3131  -46.5001 N.am      14 UNK        -0.5000 
     80 CA          0.1223  -27.1481  -47.0814 C.3       14 UNK         0.1400 
     81 CB          1.4897  -26.4776  -46.8788 C.3       14 UNK        -0.1800 
     82 C          -0.1163  -27.4534  -48.5700 C.2       14 UNK         0.5000 
     83 O           0.1096  -28.5859  -48.9989 O.2       14 UNK        -0.5000 
     84 N          -0.5884  -26.4501  -49.3236 N.am      15 UNK        -0.5000 
     85 CA         -1.0029  -26.5908  -50.7198 C.3       15 UNK         0.1400 
     86 CB         -1.2263  -25.1976  -51.3282 C.3       15 UNK        -0.1800 
     87 C          -2.2715  -27.4493  -50.8778 C.2       15 UNK         0.5000 
     88 O          -2.3974  -28.1624  -51.8739 O.2       15 UNK        -0.5000 
     89 N          -3.1802  -27.3507  -49.8945 N.am      16 UNK        -0.5000 
     90 CA         -4.5014  -27.9839  -49.8252 C.3       16 UNK         0.1400 
     91 CB         -4.3733  -29.5166  -49.7084 C.3       16 UNK        -0.1800 
     92 C          -5.4260  -27.5329  -50.9760 C.2       16 UNK         0.5000 
     93 O          -6.2379  -28.3165  -51.4723 O.2       16 UNK        -0.5000 
     94 N          -5.2676  -26.2708  -51.3860 N.am      17 UNK        -0.5000 
     95 CA         -5.9216  -25.6297  -52.5175 C.3       17 UNK         0.1400 
     96 CB         -5.3154  -26.1490  -53.8365 C.3       17 UNK        -0.1800 
     97 C          -5.7251  -24.1135  -52.3871 C.2       17 UNK         0.5000 
     98 O          -4.9120  -23.6635  -51.5731 O.2       17 UNK        -0.5000 
     99 N          -6.4487  -23.3496  -53.2136 N.am      18 UNK        -0.5000 
    100 CA        -6.4089  -21.8873  -53.2796 C.3       18 UNK         0.1400 
    101 CB        -7.7014  -21.3872  -53.9499 C.3       18 UNK        -0.1800 
    102 C         -5.1370  -21.3498  -53.9720 C.2       18 UNK         0.5000 
    103 O         -5.2271  -20.6042  -54.9501 O.2       18 UNK        -0.5000 
    104 N         -3.9657  -21.7326  -53.4499 N.am      19 UNK        -0.5000 
    105 CA        -2.6557  -21.2092  -53.8340 C.3       19 UNK         0.1400 
    106 CB        -1.5650  -21.9796  -53.0777 C.3       19 UNK        -0.1800 
    107 C         -2.5757  -19.7013  -53.5411 C.2       19 UNK         0.5000 
    108 O         -2.9907  -19.2775  -52.4625 O.2       19 UNK        -0.5000 
    109 N         -2.1217  -18.9190  -54.5308 N.am      20 UNK        -0.5000 
    110 CA        -2.1197  -17.4469  -54.5453 C.3       20 UNK         0.1400 
    111 CB        -1.1215  -16.8944  -53.5070 C.3       20 UNK        -0.1800 
    112 C         -3.5321  -16.8266  -54.3998 C.2       20 UNK         0.5000 
    113 O         -3.6595  -15.6910  -53.9414 O.2       20 UNK        -0.5000 
    114 N         -4.5630  -17.5952  -54.7888 N.am      21 UNK        -0.5000 
    115 CA        -5.9997  -17.3320  -54.6517 C.3       21 UNK         0.1400 
    116 CB        -6.4148  -16.0395  -55.3852 C.3       21 UNK        -0.1800 
    117 C         -6.5157  -17.3809  -53.1961 C.2       21 UNK         0.5000 
    118 O         -7.6614  -16.9959  -52.9534 O.2       21 UNK        -0.5000 
    119 N         -5.7032  -17.8808  -52.2548 N.am      22 UNK        -0.5000 
    120 CA        -6.0237  -18.0091  -50.8226 C.3       22 UNK         0.1400 
    121 C         -6.9818  -19.1974  -50.5126 C.2       22 UNK         0.5000 
    122 N         -8.1266  -19.2774  -51.1764 N.am      22 UNK        -0.7600 
    123 O         -6.7003  -20.0504  -49.6760 O.2       22 UNK        -0.5000 
    124 C124       -4.7432  -18.0157  -49.9476 C.3       23 UNK        -0.0398 
    125 S125       -3.7950  -16.4674  -50.1201 S.3       23 UNK        -0.2404 
    126 C126       -2.4805  -16.7265  -48.8948 C.3       23 UNK        -0.0205 
    127 H127        2.5051  -12.3363  -54.6176 H         1 UNK         0.0600 
    128 H128        2.9866  -13.6403  -53.5390 H         1 UNK         0.0600 
    129 H129        3.6767  -12.0179  -53.3528 H         1 UNK         0.0600 
    130 H130        1.0380  -11.7646  -50.7764 H         1 UNK         0.3000 
    131 H131        3.8091  -11.4549  -51.2004 H         1 UNK         0.0600 
    132 H132        4.0280  -13.8733  -51.4255 H         1 UNK         0.0800 
    133 H133        4.6713  -13.3866  -49.8995 H         1 UNK         0.0800 
    134 H134        2.7609  -16.0614  -51.5846 H         1 UNK         0.0800 
    135 H135        1.4548  -14.9018  -51.6661 H         1 UNK         0.0800 
    136 H136       -0.4595  -15.1856  -49.8456 H         1 UNK         0.1150 
    137 H137       -1.6300  -19.2809  -49.3683 H         1 UNK         0.1150 
    138 H138        2.1566  -18.3232  -51.1413 H         1 UNK         0.1150 
    139 H139       -0.2868  -21.0440  -50.2521 H         1 UNK         0.0800 
    140 H140        0.8628  -20.6240  -51.4961 H         1 UNK         0.0800 
    141 H141        0.4717  -20.0344  -47.7315 H         1 UNK         0.0800 
    142 H142        2.0640  -20.3503  -47.1188 H         1 UNK         0.0800 
    143 H143        1.5966  -22.8256  -47.1609 H         1 UNK         0.0600 
    144 H144        0.5836  -20.9747  -45.2910 H         1 UNK         0.3000 
    145 H145       -0.6109  -23.3563  -42.8834 H         1 UNK         0.0600 
    146 H146        0.9658  -22.0719  -41.4875 H         1 UNK         0.0600 
    147 H147        1.8634  -23.1155  -42.5785 H         1 UNK         0.0600 
    148 H148        1.7403  -21.3931  -42.9181 H         1 UNK         0.0600 
    149 H149       -0.6012  -20.5343  -42.7949 H         1 UNK         0.3000 
    150 H150       -3.8239  -20.0231  -44.3387 H         1 UNK         0.0600 
    151 H151       -4.1164  -20.5865  -41.9164 H         1 UNK         0.0600 
    152 H152       -4.1038  -18.8494  -42.1820 H         1 UNK         0.0600 
    153 H153       -2.6808  -19.6489  -41.5192 H         1 UNK         0.0600 
    154 H154       -1.9629  -18.1323  -43.3605 H         1 UNK         0.3000 
    155 H155       -0.2360  -17.5421  -46.4612 H         1 UNK         0.0600 
    156 H156       -1.8757  -15.8467  -44.5126 H         1 UNK         0.0600 
    157 H157       -0.9683  -15.3067  -45.9194 H         1 UNK         0.0600 
    158 H158       -2.4544  -16.2304  -46.1144 H         1 UNK         0.0600 
    159 H159        0.2938  -16.4745  -43.9117 H         1 UNK         0.3000 
    160 H160        2.5599  -18.9589  -42.6723 H         1 UNK         0.0600 
    161 H161        2.8450  -16.0394  -43.5652 H         1 UNK         0.0600 
    162 H162        3.8343  -17.3814  -44.1179 H         1 UNK         0.0600 
    163 H163        3.9008  -16.8868  -42.4347 H         1 UNK         0.0600 
    164 H164        1.4575  -16.5599  -41.5483 H         1 UNK         0.3000 
    165 H165       -1.2776  -18.1038  -39.8461 H         1 UNK         0.0600 
    166 H166       -0.1027  -17.1061  -37.9047 H         1 UNK         0.0600 
    167 H167        0.7376  -18.5534  -38.4372 H         1 UNK         0.0600 
    168 H168        1.3882  -16.9681  -38.8370 H         1 UNK         0.0600 
    169 H169       -0.2511  -15.4313  -39.8779 H         1 UNK         0.3000 
    170 H170       -2.1382  -14.2345  -42.6475 H         1 UNK         0.0600 
    171 H171       -3.7079  -14.1866  -40.7050 H         1 UNK         0.0600 
    172 H172       -2.3899  -13.7276  -39.6335 H         1 UNK         0.0600 
    173 H173       -2.9094  -12.6372  -40.9188 H         1 UNK         0.0600 
    174 H174       -0.3584  -12.9386  -40.8386 H         1 UNK         0.3000 
    175 H175        1.6225  -12.0741  -41.8282 H         1 UNK         0.0600 
    176 H176        2.9959  -14.7960  -41.3389 H         1 UNK         0.0600 
    177 H177        3.5627  -13.2358  -40.7562 H         1 UNK         0.0600 
    178 H178        2.0826  -13.9174  -40.1197 H         1 UNK         0.0600 
    179 H179        2.1432  -13.5416  -44.1437 H         1 UNK         0.3000 
    180 H180        4.9883  -11.6602  -45.2209 H         1 UNK         0.0600 
    181 H181        4.2086  -14.6245  -45.3464 H         1 UNK         0.0600 
    182 H182        5.7211  -14.0003  -44.6998 H         1 UNK         0.0600 
    183 H183        5.3512  -13.7991  -46.4052 H         1 UNK         0.0600 
    184 H184        2.9733  -12.9569  -46.7204 H         1 UNK         0.3000 
    185 H185        0.5763  -11.6183  -46.9437 H         1 UNK         0.0600 
    186 H186        0.4368   -9.1684  -46.6658 H         1 UNK         0.0600 
    187 H187        1.6756   -8.9195  -47.8892 H         1 UNK         0.0600 
    188 H188        0.1110   -9.5977  -48.3359 H         1 UNK         0.0600 
    189 H189        1.2964  -12.4175  -48.8724 H         1 UNK         0.3000 
    190 H190       -1.6770  -21.3141  -46.9512 H         1 UNK         0.3000 
    191 H191       -2.7921  -22.6370  -49.2013 H         1 UNK         0.0600 
    192 H192       -4.1494  -21.5261  -46.6893 H         1 UNK         0.0600 
    193 H193       -4.9666  -21.9481  -48.1917 H         1 UNK         0.0600 
    194 H194       -3.8049  -20.6310  -48.1677 H         1 UNK         0.0600 
    195 H195       -2.6972  -23.5861  -45.7363 H         1 UNK         0.3000 
    196 H196       -4.1935  -25.9893  -45.9933 H         1 UNK         0.0600 
    197 H197       -3.2036  -26.5244  -43.7627 H         1 UNK         0.0600 
    198 H198       -3.8055  -24.8745  -43.8206 H         1 UNK         0.0600 
    199 H199       -2.0747  -25.1855  -43.9319 H         1 UNK         0.0600 
    200 H200       -0.6502  -25.3865  -46.1889 H         1 UNK         0.3000 
    201 H201        0.1298  -28.0992  -46.5450 H         1 UNK         0.0600 
    202 H202        1.7109  -26.3478  -45.8194 H         1 UNK         0.0600 
    203 H203        1.5306  -25.4959  -47.3520 H         1 UNK         0.0600 
    204 H204        2.2901  -27.0830  -47.3058 H         1 UNK         0.0600 
    205 H205       -0.6742  -25.5240  -48.9124 H         1 UNK         0.3000 
    206 H206       -0.1956  -27.0797  -51.2689 H         1 UNK         0.0600 
    207 H207       -0.3159  -24.5989  -51.2915 H         1 UNK         0.0600 
    208 H208       -1.5255  -25.2747  -52.3741 H         1 UNK         0.0600 
    209 H209       -2.0085  -24.6476  -50.8032 H         1 UNK         0.0600 
    210 H210       -2.9985  -26.6740  -49.1612 H         1 UNK         0.3000 
    211 H211       -4.9611  -27.6204  -48.9051 H         1 UNK         0.0600 
    212 H212       -3.9786  -29.9625  -50.6217 H         1 UNK         0.0600 
    213 H213       -5.3429  -29.9757  -49.5130 H         1 UNK         0.0600 
    214 H214       -3.7124  -29.7927  -48.8865 H         1 UNK         0.0600 
    215 H215       -4.6286  -25.6629  -50.8849 H         1 UNK         0.3000 
    216 H216       -6.9912  -25.8464  -52.4847 H         1 UNK         0.0600 
    217 H217       -4.2434  -25.9529  -53.8867 H         1 UNK         0.0600 
    218 H218       -5.7782  -25.6734  -54.7017 H         1 UNK         0.0600 
    219 H219       -5.4615  -27.2234  -53.9472 H         1 UNK         0.0600 
    220 H220       -7.0637  -23.8019  -53.8746 H         1 UNK         0.3000 
    221 H221       -6.3959  -21.5018  -52.2588 H         1 UNK         0.0600 
    222 H222       -8.5833  -21.7190  -53.4018 H         1 UNK         0.0600 
    223 H223       -7.7880  -21.7452  -54.9764 H         1 UNK         0.0600 
    224 H224       -7.7325  -20.2974  -53.9776 H         1 UNK         0.0600 
    225 H225       -3.9975  -22.3457  -52.6409 H         1 UNK         0.3000 
    226 H226       -2.5229  -21.3761  -54.9048 H         1 UNK         0.0600 
    227 H227       -1.5684  -23.0326  -53.3570 H         1 UNK         0.0600 
    228 H228       -0.5747  -21.5861  -53.3088 H         1 UNK         0.0600 
    229 H229       -1.7056  -21.9182  -51.9980 H         1 UNK         0.0600 
    230 H230       -1.8170  -19.3580  -55.3887 H         1 UNK         0.3000 
    231 H231       -1.7628  -17.1524  -55.5330 H         1 UNK         0.0600 
    232 H232       -0.1388  -17.3530  -53.6152 H         1 UNK         0.0600 
    233 H233       -1.4645  -17.0761  -52.4886 H         1 UNK         0.0600 
    234 H234       -0.9912  -15.8173  -53.6175 H         1 UNK         0.0600 
    235 H235       -4.3477  -18.5267  -55.1233 H         1 UNK         0.3000 
    236 H236       -6.4946  -18.1594  -55.1617 H         1 UNK         0.0600 
    237 H237       -7.5006  -15.9568  -55.4444 H         1 UNK         0.0600 
    238 H238       -6.0513  -15.1468  -54.8761 H         1 UNK         0.0600 
    239 H239       -6.0343  -16.0245  -56.4065 H         1 UNK         0.0600 
    240 H240       -4.7754  -18.1947  -52.5182 H         1 UNK         0.3000 
    241 H241       -6.5841  -17.1189  -50.5303 H         1 UNK         0.0600 
    242 H242       -8.7714  -20.0267  -50.9837 H         1 UNK         0.3800 
    243 H243       -8.3566  -18.5605  -51.8549 H         1 UNK         0.3800 
    244 H244       -4.1054  -18.8652  -50.1931 H         1 UNK         0.0800 
    245 H245       -5.0082  -18.1264  -48.8947 H         1 UNK         0.0800 
    246 H246       -2.3121  -15.7813  -48.3780 H         1 UNK         0.0800 
    247 H247       -2.8006  -17.4430  -48.1372 H         1 UNK         0.0800 
@<TRIPOS>BOND
     1    1    2 1    
     2    1  127 1    
     3    1  128 1    
     4    1  129 1    
     5    2    3 2    
     6    2    4 am   BACKBONE|DICT|INTERRES
     7    4    5 1    
     8    4  130 1    
     9    5    6 1    
    10    5   65 1    
    11    5  131 1    
    12    6    7 1    
    13    6  132 1    
    14    6  133 1    
    15    7    8 1    
    16    8    9 1    
    17    8  134 1    
    18    8  135 1    
    19    9   10 ar   
    20    9   14 ar   
    21   10   11 ar   
    22   10  136 1    
    23   11   12 ar   
    24   11  126 1    
    25   12   13 ar   
    26   12  137 1    
    27   13   14 ar   
    28   13   15 1    
    29   14  138 1    
    30   15   16 1    
    31   15  139 1    
    32   15  140 1    
    33   16   17 1    
    34   17   18 1    
    35   17  141 1    
    36   17  142 1    
    37   18   19 1    
    38   18   67 1    
    39   18  143 1    
    40   19   20 am   BACKBONE|DICT|INTERRES
    41   19  144 1    
    42   20   21 2    
    43   20   22 1    
    44   22   23 1    
    45   22   24 1    
    46   22  145 1    
    47   23  146 1    
    48   23  147 1    
    49   23  148 1    
    50   24   25 am   BACKBONE|DICT|INTERRES
    51   24  149 1    
    52   25   26 2    
    53   25   27 1    
    54   27   28 1    
    55   27   29 1    
    56   27  150 1    
    57   28  151 1    
    58   28  152 1    
    59   28  153 1    
    60   29   30 am   BACKBONE|DICT|INTERRES
    61   29  154 1    
    62   30   31 2    
    63   30   32 1    
    64   32   33 1    
    65   32   34 1    
    66   32  155 1    
    67   33  156 1    
    68   33  157 1    
    69   33  158 1    
    70   34   35 am   BACKBONE|DICT|INTERRES
    71   34  159 1    
    72   35   36 2    
    73   35   37 1    
    74   37   38 1    
    75   37   39 1    
    76   37  160 1    
    77   38  161 1    
    78   38  162 1    
    79   38  163 1    
    80   39   40 am   BACKBONE|DICT|INTERRES
    81   39  164 1    
    82   40   41 2    
    83   40   42 1    
    84   42   43 1    
    85   42   44 1    
    86   42  165 1    
    87   43  166 1    
    88   43  167 1    
    89   43  168 1    
    90   44   45 am   BACKBONE|DICT|INTERRES
    91   44  169 1    
    92   45   46 2    
    93   45   47 1    
    94   47   48 1    
    95   47   49 1    
    96   47  170 1    
    97   48  171 1    
    98   48  172 1    
    99   48  173 1    
   100   49   50 am   BACKBONE|DICT|INTERRES
   101   49  174 1    
   102   50   51 2    
   103   50   52 1    
   104   52   53 1    
   105   52   54 1    
   106   52  175 1    
   107   53  176 1    
   108   53  177 1    
   109   53  178 1    
   110   54   55 am   BACKBONE|DICT|INTERRES
   111   54  179 1    
   112   55   56 2    
   113   55   57 1    
   114   57   58 1    
   115   57   59 1    
   116   57  180 1    
   117   58  181 1    
   118   58  182 1    
   119   58  183 1    
   120   59   60 am   BACKBONE|DICT|INTERRES
   121   59  184 1    
   122   60   61 2    
   123   60   62 1    
   124   62   63 1    
   125   62   64 1    
   126   62  185 1    
   127   63  186 1    
   128   63  187 1    
   129   63  188 1    
   130   64   65 am   BACKBONE|DICT|INTERRES
   131   64  189 1    
   132   65   66 2    
   133   67   68 2    
   134   67   69 am   BACKBONE|DICT|INTERRES
   135   69   70 1    
   136   69  190 1    
   137   70   71 1    
   138   70   72 1    
   139   70  191 1    
   140   71  192 1    
   141   71  193 1    
   142   71  194 1    
   143   72   73 2    
   144   72   74 am   BACKBONE|DICT|INTERRES
   145   74   75 1    
   146   74  195 1    
   147   75   76 1    
   148   75   77 1    
   149   75  196 1    
   150   76  197 1    
   151   76  198 1    
   152   76  199 1    
   153   77   78 2    
   154   77   79 am   BACKBONE|DICT|INTERRES
   155   79   80 1    
   156   79  200 1    
   157   80   81 1    
   158   80   82 1    
   159   80  201 1    
   160   81  202 1    
   161   81  203 1    
   162   81  204 1    
   163   82   83 2    
   164   82   84 am   BACKBONE|DICT|INTERRES
   165   84   85 1    
   166   84  205 1    
   167   85   86 1    
   168   85   87 1    
   169   85  206 1    
   170   86  207 1    
   171   86  208 1    
   172   86  209 1    
   173   87   88 2    
   174   87   89 am   BACKBONE|DICT|INTERRES
   175   89   90 1    
   176   89  210 1    
   177   90   91 1    
   178   90   92 1    
   179   90  211 1    
   180   91  212 1    
   181   91  213 1    
   182   91  214 1    
   183   92   93 2    
   184   92   94 am   BACKBONE|DICT|INTERRES
   185   94   95 1    
   186   94  215 1    
   187   95   96 1    
   188   95   97 1    
   189   95  216 1    
   190   96  217 1    
   191   96  218 1    
   192   96  219 1    
   193   97   98 2    
   194   97   99 am   BACKBONE|DICT|INTERRES
   195   99  100 1    
   196   99  220 1    
   197  100  101 1    
   198  100  102 1    
   199  100  221 1    
   200  101  222 1    
   201  101  223 1    
   202  101  224 1    
   203  102  103 2    
   204  102  104 am   BACKBONE|DICT|INTERRES
   205  104  105 1    
   206  104  225 1    
   207  105  106 1    
   208  105  107 1    
   209  105  226 1    
   210  106  227 1    
   211  106  228 1    
   212  106  229 1    
   213  107  108 2    
   214  107  109 am   BACKBONE|DICT|INTERRES
   215  109  110 1    
   216  109  230 1    
   217  110  111 1    
   218  110  112 1    
   219  110  231 1    
   220  111  232 1    
   221  111  233 1    
   222  111  234 1    
   223  112  113 2    
   224  112  114 am   BACKBONE|DICT|INTERRES
   225  114  115 1    
   226  114  235 1    
   227  115  116 1    
   228  115  117 1    
   229  115  236 1    
   230  116  237 1    
   231  116  238 1    
   232  116  239 1    
   233  117  118 2    
   234  117  119 am   BACKBONE|DICT|INTERRES
   235  119  120 1    
   236  119  240 1    
   237  120  121 1    
   238  120  124 1    
   239  120  241 1    
   240  121  122 am   BACKBONE|DICT|INTERRES
   241  121  123 2    
   242  122  242 1    
   243  122  243 1    
   244  124  125 1    
   245  124  244 1    
   246  124  245 1    
   247  125  126 1    
   248  126  246 1    
   249  126  247 1    
@<TRIPOS>SUBSTRUCTURE
     1 UNK         1 GROUP             0       ****    0 ROOT    
