@<TRIPOS>MOLECULE
3R540
247   249    1
SMALL
USER_CHARGES


@<TRIPOS>ATOM
      1 CA          0.9736   -9.2572  -45.7546 C.3       0 UNK        -0.1800 
      2 C           1.7936   -8.6818  -46.9072 C.2       0 UNK         0.5000 
      3 O           1.8567   -7.4618  -47.0440 O.2       0 UNK        -0.5000 
      4 N           2.4336   -9.4906  -47.7662 N.am      1 UNK        -0.5000 
      5 CA          2.5199  -10.9586  -47.7739 C.3       1 UNK         0.1400 
      6 C6          1.1575  -11.6637  -48.0415 C.3       23 UNK        -0.0398 
      7 S7          1.3315  -13.1282  -49.1139 S.3       23 UNK        -0.2404 
      8 C8          0.9129  -14.4940  -47.9844 C.3       23 UNK        -0.0205 
      9 C9          1.0056  -15.8226  -48.7177 C.ar      23 UNK        -0.0193 
     10 C10        -0.0911  -16.3079  -49.4378 C.ar      23 UNK        -0.1150 
     11 C11         0.0101  -17.4935  -50.1725 C.ar      23 UNK        -0.0193 
     12 C12         1.2138  -18.2041  -50.1645 C.ar      23 UNK        -0.1150 
     13 C13         2.3189  -17.7263  -49.4538 C.ar      23 UNK        -0.0193 
     14 C14         2.2055  -16.5404  -48.7225 C.ar      23 UNK        -0.1150 
     15 C15         3.6500  -18.4616  -49.5265 C.3       23 UNK        -0.0205 
     16 S16         3.9427  -19.5202  -48.0784 S.3       23 UNK        -0.2404 
     17 C17         2.5458  -20.6839  -48.2095 C.3       23 UNK        -0.0398 
     18 CA          2.7296  -21.9397  -47.3255 C.3       11 UNK         0.1400 
     19 N           2.7749  -21.5961  -45.8987 N.am      11 UNK        -0.5000 
     20 C           3.2814  -22.3621  -44.9243 C.2       10 UNK         0.5000 
     21 O           3.8457  -23.4379  -45.1246 O.2       10 UNK        -0.5000 
     22 CA          3.0716  -21.8689  -43.4780 C.3       10 UNK         0.1400 
     23 CB          4.2118  -20.9360  -43.0428 C.3       10 UNK        -0.1800 
     24 N           1.7808  -21.1992  -43.2835 N.am      10 UNK        -0.5000 
     25 C           0.5899  -21.8088  -43.3845 C.2       9 UNK         0.5000 
     26 O           0.4586  -23.0103  -43.6175 O.2       9 UNK        -0.5000 
     27 CA         -0.6684  -20.9302  -43.2573 C.3       9 UNK         0.1400 
     28 CB         -0.9935  -20.6564  -41.7818 C.3       9 UNK        -0.1800 
     29 N          -0.5593  -19.6667  -43.9876 N.am      9 UNK        -0.5000 
     30 C          -0.4193  -19.5675  -45.3177 C.2       8 UNK         0.5000 
     31 O          -0.4231  -20.5386  -46.0739 O.2       8 UNK        -0.5000 
     32 CA         -0.1700  -18.1597  -45.8947 C.3       8 UNK         0.1400 
     33 CB         -1.4808  -17.3737  -46.0402 C.3       8 UNK        -0.1800 
     34 N           0.7724  -17.3801  -45.0928 N.am      8 UNK        -0.5000 
     35 C           2.0326  -17.7494  -44.8271 C.2       7 UNK         0.5000 
     36 O           2.5431  -18.7870  -45.2400 O.2       7 UNK        -0.5000 
     37 CA          2.8291  -16.8481  -43.8741 C.3       7 UNK         0.1400 
     38 CB          3.3222  -15.5815  -44.5890 C.3       7 UNK        -0.1800 
     39 N           2.0352  -16.4993  -42.6958 N.am      7 UNK        -0.5000 
     40 C           1.7101  -17.3737  -41.7316 C.2       6 UNK         0.5000 
     41 O           2.1093  -18.5381  -41.7034 O.2       6 UNK        -0.5000 
     42 CA          0.7417  -16.8823  -40.6402 C.3       6 UNK         0.1400 
     43 CB          1.5034  -16.2252  -39.4816 C.3       6 UNK        -0.1800 
     44 N          -0.2603  -15.9506  -41.1585 N.am      6 UNK        -0.5000 
     45 C          -1.2722  -16.3157  -41.9587 C.2       5 UNK         0.5000 
     46 O          -1.4716  -17.4746  -42.3185 O.2       5 UNK        -0.5000 
     47 CA         -2.1889  -15.1966  -42.4850 C.3       5 UNK         0.1400 
     48 CB         -3.3310  -14.9239  -41.4954 C.3       5 UNK        -0.1800 
     49 N          -1.4797  -13.9469  -42.7624 N.am      5 UNK        -0.5000 
     50 C          -0.4779  -13.8125  -43.6411 C.2       4 UNK         0.5000 
     51 O          -0.0397  -14.7418  -44.3197 O.2       4 UNK        -0.5000 
     52 CA          0.1620  -12.4216  -43.7829 C.3       4 UNK         0.1400 
     53 CB         -0.6304  -11.2808  -43.1034 C.3       4 UNK        -0.1800 
     54 N           1.5563  -12.4281  -43.3371 N.am      4 UNK        -0.5000 
     55 C           2.0189  -12.6526  -42.0977 C.2       3 UNK         0.5000 
     56 O           1.2952  -12.9801  -41.1559 O.2       3 UNK        -0.5000 
     57 CA          3.5384  -12.4910  -41.8569 C.3       3 UNK         0.1400 
     58 CB          4.1288  -13.6967  -41.1068 C.3       3 UNK        -0.1800 
     59 N           4.3112  -12.2734  -43.0826 N.am      3 UNK        -0.5000 
     60 C           4.4602  -11.1002  -43.7112 C.2       2 UNK         0.5000 
     61 O           3.9736  -10.0428  -43.3087 O.2       2 UNK        -0.5000 
     62 CA          5.2538  -11.1059  -45.0359 C.3       2 UNK         0.1400 
     63 CB          6.0645  -12.3995  -45.2826 C.3       2 UNK        -0.1800 
     64 N           4.3847  -10.8222  -46.1833 N.am      2 UNK        -0.5000 
     65 C           3.2900  -11.5063  -46.5515 C.2       1 UNK         0.5000 
     66 O           2.8692  -12.4896  -45.9431 O.2       1 UNK        -0.5000 
     67 C           1.6417  -22.9883  -47.6614 C.2       11 UNK         0.5000 
     68 O           1.5938  -23.4477  -48.8031 O.2       11 UNK        -0.5000 
     69 N           0.7951  -23.3452  -46.6836 N.am      12 UNK        -0.5000 
     70 CA         -0.3236  -24.2857  -46.7669 C.3       12 UNK         0.1400 
     71 CB          0.1637  -25.7128  -47.0949 C.3       12 UNK        -0.1800 
     72 C          -1.4562  -23.8001  -47.6936 C.2       12 UNK         0.5000 
     73 O          -2.0747  -24.6077  -48.3874 O.2       12 UNK        -0.5000 
     74 N          -1.7602  -22.4935  -47.6471 N.am      13 UNK        -0.5000 
     75 CA         -2.8571  -21.8519  -48.3858 C.3       13 UNK         0.1400 
     76 CB         -2.7603  -20.3292  -48.2181 C.3       13 UNK        -0.1800 
     77 C          -4.2659  -22.3462  -47.9874 C.2       13 UNK         0.5000 
     78 O          -5.2268  -22.0736  -48.7034 O.2       13 UNK        -0.5000 
     79 N          -4.3649  -23.0694  -46.8639 N.am      14 UNK        -0.5000 
     80 CA         -5.5688  -23.7461  -46.3817 C.3       14 UNK         0.1400 
     81 CB         -5.3737  -24.0730  -44.8921 C.3       14 UNK        -0.1800 
     82 C          -5.9339  -25.0209  -47.1766 C.2       14 UNK         0.5000 
     83 O          -7.0112  -25.5735  -46.9467 O.2       14 UNK        -0.5000 
     84 N          -5.0473  -25.4819  -48.0738 N.am      15 UNK        -0.5000 
     85 CA         -5.2681  -26.6145  -48.9785 C.3       15 UNK         0.1400 
     86 CB         -3.9414  -26.9498  -49.6796 C.3       15 UNK        -0.1800 
     87 C          -6.3892  -26.3616  -50.0112 C.2       15 UNK         0.5000 
     88 O          -6.8710  -25.2338  -50.1438 O.2       15 UNK        -0.5000 
     89 N          -6.7724  -27.4258  -50.7318 N.am      16 UNK        -0.5000 
     90 CA         -7.8699  -27.4851  -51.7047 C.3       16 UNK         0.1400 
     91 CB         -7.8017  -28.8258  -52.4519 C.3       16 UNK        -0.1800 
     92 C          -7.9004  -26.3156  -52.7092 C.2       16 UNK         0.5000 
     93 O          -6.8807  -26.0149  -53.3361 O.2       16 UNK        -0.5000 
     94 N          -9.0731  -25.6733  -52.8161 N.am      17 UNK        -0.5000 
     95 CA         -9.3636  -24.4920  -53.6382 C.3       17 UNK         0.1400 
     96 CB         -9.3315  -24.8569  -55.1375 C.3       17 UNK        -0.1800 
     97 C          -8.4711  -23.2795  -53.2929 C.2       17 UNK         0.5000 
     98 O          -8.0648  -22.5429  -54.1908 O.2       17 UNK        -0.5000 
     99 N          -8.1548  -23.1180  -51.9989 N.am      18 UNK        -0.5000 
    100 CA        -7.2162  -22.1409  -51.4326 C.3       18 UNK         0.1400 
    101 CB        -7.7501  -20.7015  -51.5893 C.3       18 UNK        -0.1800 
    102 C         -5.7913  -22.3252  -51.9969 C.2       18 UNK         0.5000 
    103 O         -5.1712  -21.3633  -52.4531 O.2       18 UNK        -0.5000 
    104 N         -5.3360  -23.5862  -52.0110 N.am      19 UNK        -0.5000 
    105 CA        -4.1099  -24.0876  -52.6402 C.3       19 UNK         0.1400 
    106 CB        -2.8647  -23.5999  -51.8747 C.3       19 UNK        -0.1800 
    107 C         -4.0578  -23.7564  -54.1449 C.2       19 UNK         0.5000 
    108 O         -3.0700  -23.1939  -54.6220 O.2       19 UNK        -0.5000 
    109 N         -5.1548  -24.0763  -54.8479 N.am      20 UNK        -0.5000 
    110 CA        -5.4196  -23.7644  -56.2581 C.3       20 UNK         0.1400 
    111 CB        -4.5282  -24.6270  -57.1751 C.3       20 UNK        -0.1800 
    112 C         -5.3190  -22.2515  -56.5595 C.2       20 UNK         0.5000 
    113 O         -4.6456  -21.8494  -57.5101 O.2       20 UNK        -0.5000 
    114 N         -5.9857  -21.4503  -55.7161 N.am      21 UNK        -0.5000 
    115 CA        -6.0014  -19.9860  -55.6841 C.3       21 UNK         0.1400 
    116 CB        -6.7474  -19.4251  -56.9127 C.3       21 UNK        -0.1800 
    117 C         -4.5935  -19.3831  -55.4939 C.2       21 UNK         0.5000 
    118 O         -4.1917  -18.4985  -56.2529 O.2       21 UNK        -0.5000 
    119 N         -3.8748  -19.8804  -54.4774 N.am      22 UNK        -0.5000 
    120 CA        -2.4876  -19.5270  -54.1392 C.3       22 UNK         0.1400 
    121 C         -1.4892  -19.8900  -55.2826 C.2       22 UNK         0.5000 
    122 N         -1.4688  -21.1419  -55.7215 N.am      22 UNK        -0.7600 
    123 O         -0.7443  -19.0549  -55.7896 O.2       22 UNK        -0.5000 
    124 C124       -2.3829  -18.0695  -53.6043 C.3       23 UNK        -0.0398 
    125 S125       -0.7978  -17.6745  -52.7883 S.3       23 UNK        -0.2404 
    126 C126       -1.1527  -17.9762  -51.0283 C.3       23 UNK        -0.0205 
    127 H127        0.1561   -9.8749  -46.1223 H         1 UNK         0.0600 
    128 H128        0.5318   -8.4518  -45.1677 H         1 UNK         0.0600 
    129 H129        1.5939   -9.8443  -45.0791 H         1 UNK         0.0600 
    130 H130        2.9500   -9.0478  -48.5139 H         1 UNK         0.3000 
    131 H131        3.1695  -11.1700  -48.6248 H         1 UNK         0.0600 
    132 H132        0.4854  -10.9839  -48.5669 H         1 UNK         0.0800 
    133 H133        0.6379  -11.9314  -47.1221 H         1 UNK         0.0800 
    134 H134        1.5880  -14.4896  -47.1279 H         1 UNK         0.0800 
    135 H135       -0.0933  -14.3521  -47.5872 H         1 UNK         0.0800 
    136 H136       -1.0112  -15.7409  -49.4551 H         1 UNK         0.1150 
    137 H137        1.3000  -19.1099  -50.7482 H         1 UNK         0.1150 
    138 H138        3.0608  -16.1608  -48.1813 H         1 UNK         0.1150 
    139 H139        3.7043  -19.0666  -50.4329 H         1 UNK         0.0800 
    140 H140        4.4615  -17.7361  -49.5997 H         1 UNK         0.0800 
    141 H141        1.6268  -20.1603  -47.9412 H         1 UNK         0.0800 
    142 H142        2.4479  -20.9638  -49.2600 H         1 UNK         0.0800 
    143 H143        3.6853  -22.3968  -47.5900 H         1 UNK         0.0600 
    144 H144        2.4155  -20.6778  -45.6501 H         1 UNK         0.3000 
    145 H145        3.0901  -22.7457  -42.8274 H         1 UNK         0.0600 
    146 H146        4.0983  -20.6343  -42.0014 H         1 UNK         0.0600 
    147 H147        4.2504  -20.0318  -43.6498 H         1 UNK         0.0600 
    148 H148        5.1781  -21.4331  -43.1346 H         1 UNK         0.0600 
    149 H149        1.8109  -20.2075  -43.0764 H         1 UNK         0.3000 
    150 H150       -1.5032  -21.4874  -43.6875 H         1 UNK         0.0600 
    151 H151       -0.2193  -20.0564  -41.3033 H         1 UNK         0.0600 
    152 H152       -1.9401  -20.1256  -41.6794 H         1 UNK         0.0600 
    153 H153       -1.0820  -21.5876  -41.2210 H         1 UNK         0.0600 
    154 H154       -0.6129  -18.8168  -43.4340 H         1 UNK         0.3000 
    155 H155        0.2674  -18.2795  -46.8879 H         1 UNK         0.0600 
    156 H156       -2.1655  -17.8736  -46.7239 H         1 UNK         0.0600 
    157 H157       -1.2992  -16.3764  -46.4407 H         1 UNK         0.0600 
    158 H158       -1.9915  -17.2615  -45.0839 H         1 UNK         0.0600 
    159 H159        0.4382  -16.4903  -44.7299 H         1 UNK         0.3000 
    160 H160        3.7074  -17.4078  -43.5451 H         1 UNK         0.0600 
    161 H161        2.5006  -14.9208  -44.8609 H         1 UNK         0.0600 
    162 H162        3.8540  -15.8328  -45.5076 H         1 UNK         0.0600 
    163 H163        4.0127  -15.0202  -43.9631 H         1 UNK         0.0600 
    164 H164        1.5995  -15.5887  -42.6907 H         1 UNK         0.3000 
    165 H165        0.2226  -17.7578  -40.2442 H         1 UNK         0.0600 
    166 H166        0.8316  -15.9793  -38.6591 H         1 UNK         0.0600 
    167 H167        2.2706  -16.8928  -39.0872 H         1 UNK         0.0600 
    168 H168        1.9950  -15.3062  -39.7959 H         1 UNK         0.0600 
    169 H169       -0.1376  -14.9709  -40.9370 H         1 UNK         0.3000 
    170 H170       -2.6264  -15.5431  -43.4232 H         1 UNK         0.0600 
    171 H171       -3.8912  -15.8361  -41.2851 H         1 UNK         0.0600 
    172 H172       -2.9578  -14.5411  -40.5446 H         1 UNK         0.0600 
    173 H173       -4.0366  -14.1965  -41.8973 H         1 UNK         0.0600 
    174 H174       -1.7619  -13.1374  -42.2293 H         1 UNK         0.3000 
    175 H175        0.1846  -12.2117  -44.8515 H         1 UNK         0.0600 
    176 H176       -0.7078  -11.4102  -42.0236 H         1 UNK         0.0600 
    177 H177       -0.1533  -10.3171  -43.2786 H         1 UNK         0.0600 
    178 H178       -1.6424  -11.2133  -43.5045 H         1 UNK         0.0600 
    179 H179        2.2357  -12.2877  -44.0781 H         1 UNK         0.3000 
    180 H180        3.6602  -11.6157  -41.2156 H         1 UNK         0.0600 
    181 H181        3.7052  -13.7739  -40.1055 H         1 UNK         0.0600 
    182 H182        5.2077  -13.5980  -40.9860 H         1 UNK         0.0600 
    183 H183        3.9336  -14.6366  -41.6220 H         1 UNK         0.0600 
    184 H184        4.7207  -13.0923  -43.5070 H         1 UNK         0.3000 
    185 H185        5.9640  -10.2805  -44.9686 H         1 UNK         0.0600 
    186 H186        6.7445  -12.6029  -44.4543 H         1 UNK         0.0600 
    187 H187        5.4264  -13.2739  -45.4148 H         1 UNK         0.0600 
    188 H188        6.6762  -12.3055  -46.1798 H         1 UNK         0.0600 
    189 H189        4.6190   -9.9922  -46.7097 H         1 UNK         0.3000 
    190 H190        0.9083  -22.8976  -45.7827 H         1 UNK         0.3000 
    191 H191       -0.7568  -24.3183  -45.7665 H         1 UNK         0.0600 
    192 H192       -0.6487  -26.4338  -46.9964 H         1 UNK         0.0600 
    193 H193        0.9570  -26.0243  -46.4153 H         1 UNK         0.0600 
    194 H194        0.5432  -25.7903  -48.1140 H         1 UNK         0.0600 
    195 H195       -1.2050  -21.8798  -47.0527 H         1 UNK         0.3000 
    196 H196       -2.7184  -22.0766  -49.4428 H         1 UNK         0.0600 
    197 H197       -3.4898  -19.8183  -48.8478 H         1 UNK         0.0600 
    198 H198       -1.7736  -19.9588  -48.4971 H         1 UNK         0.0600 
    199 H199       -2.9544  -20.0359  -47.1864 H         1 UNK         0.0600 
    200 H200       -3.5204  -23.2279  -46.3360 H         1 UNK         0.3000 
    201 H201       -6.4105  -23.0565  -46.4738 H         1 UNK         0.0600 
    202 H202       -6.2665  -24.5380  -44.4719 H         1 UNK         0.0600 
    203 H203       -5.1772  -23.1710  -44.3120 H         1 UNK         0.0600 
    204 H204       -4.5417  -24.7611  -44.7373 H         1 UNK         0.0600 
    205 H205       -4.1742  -24.9824  -48.1942 H         1 UNK         0.3000 
    206 H206       -5.5652  -27.4718  -48.3712 H         1 UNK         0.0600 
    207 H207       -3.5952  -26.1228  -50.2983 H         1 UNK         0.0600 
    208 H208       -3.1585  -27.1710  -48.9538 H         1 UNK         0.0600 
    209 H209       -4.0364  -27.8242  -50.3240 H         1 UNK         0.0600 
    210 H210       -6.2939  -28.2999  -50.5717 H         1 UNK         0.3000 
    211 H211       -8.7966  -27.4685  -51.1279 H         1 UNK         0.0600 
    212 H212       -6.8658  -28.9295  -53.0028 H         1 UNK         0.0600 
    213 H213       -8.6171  -28.9157  -53.1710 H         1 UNK         0.0600 
    214 H214       -7.8829  -29.6680  -51.7645 H         1 UNK         0.0600 
    215 H215       -9.8442  -25.9979  -52.2489 H         1 UNK         0.3000 
    216 H216      -10.3834  -24.1895  -53.3964 H         1 UNK         0.0600 
    217 H217      -10.0158  -25.6767  -55.3559 H         1 UNK         0.0600 
    218 H218       -8.3361  -25.1601  -55.4609 H         1 UNK         0.0600 
    219 H219       -9.6345  -24.0112  -55.7560 H         1 UNK         0.0600 
    220 H220       -8.4845  -23.8165  -51.3460 H         1 UNK         0.3000 
    221 H221       -7.1635  -22.3585  -50.3662 H         1 UNK         0.0600 
    222 H222       -7.1057  -19.9920  -51.0688 H         1 UNK         0.0600 
    223 H223       -7.7969  -20.3932  -52.6338 H         1 UNK         0.0600 
    224 H224       -8.7493  -20.6039  -51.1654 H         1 UNK         0.0600 
    225 H225       -5.9388  -24.2912  -51.5974 H         1 UNK         0.3000 
    226 H226       -4.1439  -25.1752  -52.5652 H         1 UNK         0.0600 
    227 H227       -2.9119  -23.9000  -50.8299 H         1 UNK         0.0600 
    228 H228       -1.9542  -24.0313  -52.2918 H         1 UNK         0.0600 
    229 H229       -2.7609  -22.5152  -51.9127 H         1 UNK         0.0600 
    230 H230       -5.8984  -24.5614  -54.3543 H         1 UNK         0.3000 
    231 H231       -6.4561  -24.0439  -56.4486 H         1 UNK         0.0600 
    232 H232       -4.7897  -24.4806  -58.2236 H         1 UNK         0.0600 
    233 H233       -4.6490  -25.6879  -56.9560 H         1 UNK         0.0600 
    234 H234       -3.4720  -24.3795  -57.0635 H         1 UNK         0.0600 
    235 H235       -6.5602  -21.8959  -55.0029 H         1 UNK         0.3000 
    236 H236       -6.5741  -19.7087  -54.7980 H         1 UNK         0.0600 
    237 H237       -7.7484  -19.8493  -56.9918 H         1 UNK         0.0600 
    238 H238       -6.8589  -18.3427  -56.8405 H         1 UNK         0.0600 
    239 H239       -6.2182  -19.6383  -57.8419 H         1 UNK         0.0600 
    240 H240       -4.3069  -20.5803  -53.8767 H         1 UNK         0.3000 
    241 H241       -2.2231  -20.1832  -53.3090 H         1 UNK         0.0600 
    242 H242       -2.0890  -21.8491  -55.3268 H         1 UNK         0.3800 
    243 H243       -0.8420  -21.3943  -56.4679 H         1 UNK         0.3800 
    244 H244       -3.1905  -17.8759  -52.8971 H         1 UNK         0.0800 
    245 H245       -2.5271  -17.3585  -54.4190 H         1 UNK         0.0800 
    246 H246       -1.3183  -19.0421  -50.8654 H         1 UNK         0.0800 
    247 H247       -2.0742  -17.4658  -50.7440 H         1 UNK         0.0800 
@<TRIPOS>BOND
     1    1    2 1    
     2    1  127 1    
     3    1  128 1    
     4    1  129 1    
     5    2    3 2    
     6    2    4 am   BACKBONE|DICT|INTERRES
     7    4    5 1    
     8    4  130 1    
     9    5    6 1    
    10    5   65 1    
    11    5  131 1    
    12    6    7 1    
    13    6  132 1    
    14    6  133 1    
    15    7    8 1    
    16    8    9 1    
    17    8  134 1    
    18    8  135 1    
    19    9   10 ar   
    20    9   14 ar   
    21   10   11 ar   
    22   10  136 1    
    23   11   12 ar   
    24   11  126 1    
    25   12   13 ar   
    26   12  137 1    
    27   13   14 ar   
    28   13   15 1    
    29   14  138 1    
    30   15   16 1    
    31   15  139 1    
    32   15  140 1    
    33   16   17 1    
    34   17   18 1    
    35   17  141 1    
    36   17  142 1    
    37   18   19 1    
    38   18   67 1    
    39   18  143 1    
    40   19   20 am   BACKBONE|DICT|INTERRES
    41   19  144 1    
    42   20   21 2    
    43   20   22 1    
    44   22   23 1    
    45   22   24 1    
    46   22  145 1    
    47   23  146 1    
    48   23  147 1    
    49   23  148 1    
    50   24   25 am   BACKBONE|DICT|INTERRES
    51   24  149 1    
    52   25   26 2    
    53   25   27 1    
    54   27   28 1    
    55   27   29 1    
    56   27  150 1    
    57   28  151 1    
    58   28  152 1    
    59   28  153 1    
    60   29   30 am   BACKBONE|DICT|INTERRES
    61   29  154 1    
    62   30   31 2    
    63   30   32 1    
    64   32   33 1    
    65   32   34 1    
    66   32  155 1    
    67   33  156 1    
    68   33  157 1    
    69   33  158 1    
    70   34   35 am   BACKBONE|DICT|INTERRES
    71   34  159 1    
    72   35   36 2    
    73   35   37 1    
    74   37   38 1    
    75   37   39 1    
    76   37  160 1    
    77   38  161 1    
    78   38  162 1    
    79   38  163 1    
    80   39   40 am   BACKBONE|DICT|INTERRES
    81   39  164 1    
    82   40   41 2    
    83   40   42 1    
    84   42   43 1    
    85   42   44 1    
    86   42  165 1    
    87   43  166 1    
    88   43  167 1    
    89   43  168 1    
    90   44   45 am   BACKBONE|DICT|INTERRES
    91   44  169 1    
    92   45   46 2    
    93   45   47 1    
    94   47   48 1    
    95   47   49 1    
    96   47  170 1    
    97   48  171 1    
    98   48  172 1    
    99   48  173 1    
   100   49   50 am   BACKBONE|DICT|INTERRES
   101   49  174 1    
   102   50   51 2    
   103   50   52 1    
   104   52   53 1    
   105   52   54 1    
   106   52  175 1    
   107   53  176 1    
   108   53  177 1    
   109   53  178 1    
   110   54   55 am   BACKBONE|DICT|INTERRES
   111   54  179 1    
   112   55   56 2    
   113   55   57 1    
   114   57   58 1    
   115   57   59 1    
   116   57  180 1    
   117   58  181 1    
   118   58  182 1    
   119   58  183 1    
   120   59   60 am   BACKBONE|DICT|INTERRES
   121   59  184 1    
   122   60   61 2    
   123   60   62 1    
   124   62   63 1    
   125   62   64 1    
   126   62  185 1    
   127   63  186 1    
   128   63  187 1    
   129   63  188 1    
   130   64   65 am   BACKBONE|DICT|INTERRES
   131   64  189 1    
   132   65   66 2    
   133   67   68 2    
   134   67   69 am   BACKBONE|DICT|INTERRES
   135   69   70 1    
   136   69  190 1    
   137   70   71 1    
   138   70   72 1    
   139   70  191 1    
   140   71  192 1    
   141   71  193 1    
   142   71  194 1    
   143   72   73 2    
   144   72   74 am   BACKBONE|DICT|INTERRES
   145   74   75 1    
   146   74  195 1    
   147   75   76 1    
   148   75   77 1    
   149   75  196 1    
   150   76  197 1    
   151   76  198 1    
   152   76  199 1    
   153   77   78 2    
   154   77   79 am   BACKBONE|DICT|INTERRES
   155   79   80 1    
   156   79  200 1    
   157   80   81 1    
   158   80   82 1    
   159   80  201 1    
   160   81  202 1    
   161   81  203 1    
   162   81  204 1    
   163   82   83 2    
   164   82   84 am   BACKBONE|DICT|INTERRES
   165   84   85 1    
   166   84  205 1    
   167   85   86 1    
   168   85   87 1    
   169   85  206 1    
   170   86  207 1    
   171   86  208 1    
   172   86  209 1    
   173   87   88 2    
   174   87   89 am   BACKBONE|DICT|INTERRES
   175   89   90 1    
   176   89  210 1    
   177   90   91 1    
   178   90   92 1    
   179   90  211 1    
   180   91  212 1    
   181   91  213 1    
   182   91  214 1    
   183   92   93 2    
   184   92   94 am   BACKBONE|DICT|INTERRES
   185   94   95 1    
   186   94  215 1    
   187   95   96 1    
   188   95   97 1    
   189   95  216 1    
   190   96  217 1    
   191   96  218 1    
   192   96  219 1    
   193   97   98 2    
   194   97   99 am   BACKBONE|DICT|INTERRES
   195   99  100 1    
   196   99  220 1    
   197  100  101 1    
   198  100  102 1    
   199  100  221 1    
   200  101  222 1    
   201  101  223 1    
   202  101  224 1    
   203  102  103 2    
   204  102  104 am   BACKBONE|DICT|INTERRES
   205  104  105 1    
   206  104  225 1    
   207  105  106 1    
   208  105  107 1    
   209  105  226 1    
   210  106  227 1    
   211  106  228 1    
   212  106  229 1    
   213  107  108 2    
   214  107  109 am   BACKBONE|DICT|INTERRES
   215  109  110 1    
   216  109  230 1    
   217  110  111 1    
   218  110  112 1    
   219  110  231 1    
   220  111  232 1    
   221  111  233 1    
   222  111  234 1    
   223  112  113 2    
   224  112  114 am   BACKBONE|DICT|INTERRES
   225  114  115 1    
   226  114  235 1    
   227  115  116 1    
   228  115  117 1    
   229  115  236 1    
   230  116  237 1    
   231  116  238 1    
   232  116  239 1    
   233  117  118 2    
   234  117  119 am   BACKBONE|DICT|INTERRES
   235  119  120 1    
   236  119  240 1    
   237  120  121 1    
   238  120  124 1    
   239  120  241 1    
   240  121  122 am   BACKBONE|DICT|INTERRES
   241  121  123 2    
   242  122  242 1    
   243  122  243 1    
   244  124  125 1    
   245  124  244 1    
   246  124  245 1    
   247  125  126 1    
   248  126  246 1    
   249  126  247 1    
@<TRIPOS>SUBSTRUCTURE
     1 UNK         1 GROUP             0       ****    0 ROOT    
