@<TRIPOS>MOLECULE
3R540
247   249    1
SMALL
USER_CHARGES


@<TRIPOS>ATOM
      1 CA          6.0701  -14.4133  -51.7220 C.3       0 UNK        -0.1800 
      2 C           5.5939  -13.3515  -50.7404 C.2       0 UNK         0.5000 
      3 O           5.4903  -12.1793  -51.1034 O.2       0 UNK        -0.5000 
      4 N           5.3115  -13.7602  -49.4988 N.am      1 UNK        -0.5000 
      5 CA          4.7288  -12.9283  -48.4428 C.3       1 UNK         0.1400 
      6 C6          5.0316  -13.5100  -47.0343 C.3       23 UNK        -0.0398 
      7 S7          4.2394  -15.1104  -46.6420 S.3       23 UNK        -0.2404 
      8 C8          5.4087  -16.3252  -47.3361 C.3       23 UNK        -0.0205 
      9 C9          4.7417  -17.3223  -48.2808 C.ar      23 UNK        -0.0193 
     10 C10         3.8438  -16.8983  -49.2687 C.ar      23 UNK        -0.1150 
     11 C11         3.2776  -17.8108  -50.1622 C.ar      23 UNK        -0.0193 
     12 C12         3.6211  -19.1609  -50.0713 C.ar      23 UNK        -0.1150 
     13 C13         4.4967  -19.6050  -49.0781 C.ar      23 UNK        -0.0193 
     14 C14         5.0559  -18.6822  -48.1889 C.ar      23 UNK        -0.1150 
     15 C15         4.8439  -21.0822  -48.9762 C.3       23 UNK        -0.0205 
     16 S16         3.8474  -21.9291  -47.7112 S.3       23 UNK        -0.2404 
     17 C17         2.1623  -21.7738  -48.3965 C.3       23 UNK        -0.0398 
     18 CA          1.1671  -22.7128  -47.6783 C.3       11 UNK         0.1400 
     19 N           0.9416  -22.3327  -46.2801 N.am      11 UNK        -0.5000 
     20 C           0.3094  -23.1020  -45.3834 C.2       10 UNK         0.5000 
     21 O          -0.1282  -24.2241  -45.6374 O.2       10 UNK        -0.5000 
     22 CA          0.0862  -22.5055  -43.9827 C.3       10 UNK         0.1400 
     23 CB          1.3704  -22.5753  -43.1433 C.3       10 UNK        -0.1800 
     24 N          -0.4035  -21.1279  -44.0320 N.am      10 UNK        -0.5000 
     25 C          -1.5875  -20.7642  -44.5454 C.2       9 UNK         0.5000 
     26 O          -2.4137  -21.5634  -44.9861 O.2       9 UNK        -0.5000 
     27 CA         -1.8805  -19.2537  -44.6273 C.3       9 UNK         0.1400 
     28 CB         -2.3635  -18.7122  -43.2742 C.3       9 UNK        -0.1800 
     29 N          -0.7322  -18.4728  -45.0890 N.am      9 UNK        -0.5000 
     30 C          -0.1385  -18.6313  -46.2805 C.2       8 UNK         0.5000 
     31 O          -0.5113  -19.4389  -47.1270 O.2       8 UNK        -0.5000 
     32 CA          1.1148  -17.7882  -46.5550 C.3       8 UNK         0.1400 
     33 CB          0.7170  -16.3636  -46.9591 C.3       8 UNK        -0.1800 
     34 N           2.0230  -17.7646  -45.4088 N.am      8 UNK        -0.5000 
     35 C           2.6312  -18.8532  -44.9145 C.2       7 UNK         0.5000 
     36 O           2.5089  -19.9812  -45.3891 O.2       7 UNK        -0.5000 
     37 CA          3.4557  -18.6624  -43.6301 C.3       7 UNK         0.1400 
     38 CB          4.8072  -17.9983  -43.9295 C.3       7 UNK        -0.1800 
     39 N           2.7356  -17.8811  -42.6250 N.am      7 UNK        -0.5000 
     40 C           1.6116  -18.2845  -42.0148 C.2       6 UNK         0.5000 
     41 O           1.0905  -19.3843  -42.1954 O.2       6 UNK        -0.5000 
     42 CA          0.9332  -17.2710  -41.0747 C.3       6 UNK         0.1400 
     43 CB          1.5041  -17.3860  -39.6535 C.3       6 UNK        -0.1800 
     44 N           1.0530  -15.8854  -41.5367 N.am      6 UNK        -0.5000 
     45 C           0.5320  -15.4195  -42.6793 C.2       5 UNK         0.5000 
     46 O          -0.0903  -16.1187  -43.4821 O.2       5 UNK        -0.5000 
     47 CA          0.8118  -13.9408  -42.9973 C.3       5 UNK         0.1400 
     48 CB          2.1260  -13.8127  -43.7816 C.3       5 UNK        -0.1800 
     49 N          -0.2720  -13.3308  -43.7678 N.am      5 UNK        -0.5000 
     50 C          -1.4836  -13.0445  -43.2670 C.2       4 UNK         0.5000 
     51 O          -1.7896  -13.2388  -42.0891 O.2       4 UNK        -0.5000 
     52 CA         -2.5287  -12.4061  -44.2067 C.3       4 UNK         0.1400 
     53 CB         -2.6976  -10.9128  -43.8835 C.3       4 UNK        -0.1800 
     54 N          -2.2055  -12.5382  -45.6261 N.am      4 UNK        -0.5000 
     55 C          -2.3409  -13.6590  -46.3461 C.2       3 UNK         0.5000 
     56 O          -2.8265  -14.7000  -45.9039 O.2       3 UNK        -0.5000 
     57 CA         -1.8503  -13.6124  -47.8092 C.3       3 UNK         0.1400 
     58 CB         -3.0416  -13.4632  -48.7684 C.3       3 UNK        -0.1800 
     59 N          -0.8651  -12.5643  -48.1101 N.am      3 UNK        -0.5000 
     60 C           0.3325  -12.4276  -47.5245 C.2       2 UNK         0.5000 
     61 O           0.7042  -13.0989  -46.5619 O.2       2 UNK        -0.5000 
     62 CA          1.2434  -11.3116  -48.0684 C.3       2 UNK         0.1400 
     63 CB          1.0231  -10.0150  -47.2738 C.3       2 UNK        -0.1800 
     64 N           2.6614  -11.6732  -48.0028 N.am      2 UNK        -0.5000 
     65 C           3.2218  -12.6755  -48.6937 C.2       1 UNK         0.5000 
     66 O           2.6007  -13.3692  -49.5046 O.2       1 UNK        -0.5000 
     67 C          -0.1555  -22.8408  -48.4630 C.2       11 UNK         0.5000 
     68 O          -0.3023  -23.7874  -49.2344 O.2       11 UNK        -0.5000 
     69 N          -1.1101  -21.9303  -48.2246 N.am      12 UNK        -0.5000 
     70 CA         -2.4628  -21.9660  -48.7837 C.3       12 UNK         0.1400 
     71 CB         -3.2090  -20.6787  -48.4003 C.3       12 UNK        -0.1800 
     72 C          -3.2534  -23.2074  -48.3333 C.2       12 UNK         0.5000 
     73 O          -3.9047  -23.8458  -49.1593 O.2       12 UNK        -0.5000 
     74 N          -3.1556  -23.5498  -47.0410 N.am      13 UNK        -0.5000 
     75 CA         -3.7488  -24.7539  -46.4596 C.3       13 UNK         0.1400 
     76 CB         -3.6384  -24.6990  -44.9287 C.3       13 UNK        -0.1800 
     77 C          -3.1266  -26.0488  -47.0139 C.2       13 UNK         0.5000 
     78 O          -3.8627  -26.9876  -47.3180 O.2       13 UNK        -0.5000 
     79 N          -1.7943  -26.0660  -47.1642 N.am      14 UNK        -0.5000 
     80 CA         -1.0340  -27.1804  -47.7339 C.3       14 UNK         0.1400 
     81 CB          0.4673  -26.9492  -47.5047 C.3       14 UNK        -0.1800 
     82 C          -1.3284  -27.4096  -49.2285 C.2       14 UNK         0.5000 
     83 O          -1.4541  -28.5594  -49.6518 O.2       14 UNK        -0.5000 
     84 N          -1.4505  -26.3169  -49.9950 N.am      15 UNK        -0.5000 
     85 CA         -1.8072  -26.3291  -51.4161 C.3       15 UNK         0.1400 
     86 CB         -1.5064  -24.9478  -52.0190 C.3       15 UNK        -0.1800 
     87 C          -3.2772  -26.7149  -51.6766 C.2       15 UNK         0.5000 
     88 O          -3.5813  -27.2079  -52.7640 O.2       15 UNK        -0.5000 
     89 N          -4.1401  -26.4814  -50.6766 N.am      16 UNK        -0.5000 
     90 CA         -5.6004  -26.6060  -50.6694 C.3       16 UNK         0.1400 
     91 CB         -6.0633  -28.0109  -51.1084 C.3       16 UNK        -0.1800 
     92 C          -6.2928  -25.4844  -51.4701 C.2       16 UNK         0.5000 
     93 O          -5.6441  -24.7553  -52.2241 O.2       16 UNK        -0.5000 
     94 N          -7.6116  -25.3498  -51.2542 N.am      17 UNK        -0.5000 
     95 CA         -8.4738  -24.2635  -51.7438 C.3       17 UNK         0.1400 
     96 CB         -8.6250  -24.3149  -53.2789 C.3       17 UNK        -0.1800 
     97 C          -7.9984  -22.8903  -51.2227 C.2       17 UNK         0.5000 
     98 O          -7.8596  -21.9370  -51.9909 O.2       17 UNK        -0.5000 
     99 N          -7.7363  -22.8353  -49.9075 N.am      18 UNK        -0.5000 
    100 CA        -7.0599  -21.7431  -49.2004 C.3       18 UNK         0.1400 
    101 CB        -6.8733  -22.1410  -47.7284 C.3       18 UNK        -0.1800 
    102 C         -7.7274  -20.3579  -49.3062 C.2       18 UNK         0.5000 
    103 O         -7.0540  -19.3520  -49.0845 O.2       18 UNK        -0.5000 
    104 N         -9.0112  -20.3143  -49.6885 N.am      19 UNK        -0.5000 
    105 CA        -9.7532  -19.0953  -50.0235 C.3       19 UNK         0.1400 
    106 CB       -11.2211  -19.4632  -50.2871 C.3       19 UNK        -0.1800 
    107 C         -9.1657  -18.3220  -51.2253 C.2       19 UNK         0.5000 
    108 O         -9.3505  -17.1075  -51.3079 O.2       19 UNK        -0.5000 
    109 N         -8.4448  -19.0234  -52.1130 N.am      20 UNK        -0.5000 
    110 CA        -7.6926  -18.4468  -53.2303 C.3       20 UNK         0.1400 
    111 CB        -7.6191  -19.4890  -54.3589 C.3       20 UNK        -0.1800 
    112 C         -6.2772  -17.9737  -52.8270 C.2       20 UNK         0.5000 
    113 O         -5.5410  -17.4933  -53.6905 O.2       20 UNK        -0.5000 
    114 N         -5.9166  -18.1225  -51.5425 N.am      21 UNK        -0.5000 
    115 CA        -4.6027  -17.8782  -50.9425 C.3       21 UNK         0.1400 
    116 CB        -4.1942  -16.3923  -51.0651 C.3       21 UNK        -0.1800 
    117 C         -3.5303  -18.8631  -51.4568 C.2       21 UNK         0.5000 
    118 O         -3.8631  -19.9330  -51.9710 O.2       21 UNK        -0.5000 
    119 N         -2.2573  -18.5101  -51.2550 N.am      22 UNK        -0.5000 
    120 CA        -1.0816  -19.3147  -51.6211 C.3       22 UNK         0.1400 
    121 C         -0.6673  -19.2397  -53.1214 C.2       22 UNK         0.5000 
    122 N         -1.3337  -18.4570  -53.9613 N.am      22 UNK        -0.7600 
    123 O          0.2699  -19.9166  -53.5344 O.2       22 UNK        -0.5000 
    124 C124        0.1035  -19.0306  -50.6642 C.3       23 UNK        -0.0398 
    125 S125        0.5974  -17.2699  -50.6007 S.3       23 UNK        -0.2404 
    126 C126        2.3044  -17.3309  -51.2286 C.3       23 UNK        -0.0205 
    127 H127        6.0879  -15.4053  -51.2693 H         1 UNK         0.0600 
    128 H128        7.0760  -14.1796  -52.0705 H         1 UNK         0.0600 
    129 H129        5.4072  -14.4484  -52.5864 H         1 UNK         0.0600 
    130 H130        5.3762  -14.7425  -49.2801 H         1 UNK         0.3000 
    131 H131        5.2190  -11.9536  -48.4935 H         1 UNK         0.0600 
    132 H132        4.7142  -12.7995  -46.2697 H         1 UNK         0.0800 
    133 H133        6.1095  -13.6073  -46.8981 H         1 UNK         0.0800 
    134 H134        6.2176  -15.8259  -47.8688 H         1 UNK         0.0800 
    135 H135        5.8814  -16.8483  -46.5044 H         1 UNK         0.0800 
    136 H136        3.5707  -15.8564  -49.3443 H         1 UNK         0.1150 
    137 H137        3.2027  -19.8714  -50.7691 H         1 UNK         0.1150 
    138 H138        5.7418  -19.0274  -47.4281 H         1 UNK         0.1150 
    139 H139        4.7087  -21.5779  -49.9388 H         1 UNK         0.0800 
    140 H140        5.8997  -21.1918  -48.7244 H         1 UNK         0.0800 
    141 H141        2.2097  -22.0057  -49.4622 H         1 UNK         0.0800 
    142 H142        1.8377  -20.7349  -48.3137 H         1 UNK         0.0800 
    143 H143        1.6111  -23.7105  -47.6681 H         1 UNK         0.0600 
    144 H144        1.3199  -21.4359  -45.9863 H         1 UNK         0.3000 
    145 H145       -0.6743  -23.1102  -43.4843 H         1 UNK         0.0600 
    146 H146        1.7443  -23.5983  -43.0858 H         1 UNK         0.0600 
    147 H147        2.1640  -21.9585  -43.5655 H         1 UNK         0.0600 
    148 H148        1.1919  -22.2360  -42.1228 H         1 UNK         0.0600 
    149 H149        0.2081  -20.4134  -43.6491 H         1 UNK         0.3000 
    150 H150       -2.6832  -19.1118  -45.3535 H         1 UNK         0.0600 
    151 H151       -2.6191  -17.6543  -43.3414 H         1 UNK         0.0600 
    152 H152       -1.6035  -18.8244  -42.5014 H         1 UNK         0.0600 
    153 H153       -3.2548  -19.2433  -42.9378 H         1 UNK         0.0600 
    154 H154       -0.3880  -17.7474  -44.4651 H         1 UNK         0.3000 
    155 H155        1.6456  -18.2421  -47.3951 H         1 UNK         0.0600 
    156 H156       -0.0088  -16.3888  -47.7710 H         1 UNK         0.0600 
    157 H157        1.5710  -15.7944  -47.3206 H         1 UNK         0.0600 
    158 H158        0.2671  -15.8133  -46.1328 H         1 UNK         0.0600 
    159 H159        2.1445  -16.8781  -44.9443 H         1 UNK         0.3000 
    160 H160        3.6508  -19.6527  -43.2128 H         1 UNK         0.0600 
    161 H161        5.3487  -18.5477  -44.7007 H         1 UNK         0.0600 
    162 H162        5.4396  -17.9766  -43.0419 H         1 UNK         0.0600 
    163 H163        4.6844  -16.9726  -44.2771 H         1 UNK         0.0600 
    164 H164        3.0929  -16.9612  -42.4162 H         1 UNK         0.3000 
    165 H165       -0.1296  -17.5175  -41.0349 H         1 UNK         0.0600 
    166 H166        0.9721  -16.7341  -38.9604 H         1 UNK         0.0600 
    167 H167        1.4088  -18.4053  -39.2766 H         1 UNK         0.0600 
    168 H168        2.5617  -17.1214  -39.6205 H         1 UNK         0.0600 
    169 H169        1.5591  -15.2530  -40.9335 H         1 UNK         0.3000 
    170 H170        0.9136  -13.3904  -42.0596 H         1 UNK         0.0600 
    171 H171        2.3350  -12.7749  -44.0417 H         1 UNK         0.0600 
    172 H172        2.9718  -14.1799  -43.1994 H         1 UNK         0.0600 
    173 H173        2.0925  -14.3875  -44.7071 H         1 UNK         0.0600 
    174 H174       -0.0942  -13.1956  -44.7585 H         1 UNK         0.3000 
    175 H175       -3.4821  -12.9048  -44.0202 H         1 UNK         0.0600 
    176 H176       -1.7753  -10.3570  -44.0580 H         1 UNK         0.0600 
    177 H177       -3.4821  -10.4631  -44.4925 H         1 UNK         0.0600 
    178 H178       -2.9761  -10.7668  -42.8390 H         1 UNK         0.0600 
    179 H179       -1.7930  -11.7338  -46.0741 H         1 UNK         0.3000 
    180 H180       -1.3748  -14.5711  -48.0159 H         1 UNK         0.0600 
    181 H181       -2.7256  -13.5481  -49.8084 H         1 UNK         0.0600 
    182 H182       -3.5387  -12.5003  -48.6442 H         1 UNK         0.0600 
    183 H183       -3.7861  -14.2413  -48.5936 H         1 UNK         0.0600 
    184 H184       -1.1004  -11.9477  -48.8744 H         1 UNK         0.3000 
    185 H185        0.9899  -11.1295  -49.1149 H         1 UNK         0.0600 
    186 H186        1.2736  -10.1422  -46.2196 H         1 UNK         0.0600 
    187 H187        1.6319   -9.2012  -47.6683 H         1 UNK         0.0600 
    188 H188       -0.0181   -9.6943  -47.3269 H         1 UNK         0.0600 
    189 H189        3.2199  -11.1590  -47.3381 H         1 UNK         0.3000 
    190 H190       -0.8966  -21.1419  -47.6158 H         1 UNK         0.3000 
    191 H191       -2.3743  -22.0005  -49.8713 H         1 UNK         0.0600 
    192 H192       -3.3781  -20.6119  -47.3259 H         1 UNK         0.0600 
    193 H193       -4.1808  -20.6279  -48.8884 H         1 UNK         0.0600 
    194 H194       -2.6511  -19.7933  -48.7019 H         1 UNK         0.0600 
    195 H195       -2.6436  -22.9424  -46.4080 H         1 UNK         0.3000 
    196 H196       -4.8092  -24.7626  -46.7185 H         1 UNK         0.0600 
    197 H197       -4.0917  -25.5797  -44.4723 H         1 UNK         0.0600 
    198 H198       -4.1518  -23.8243  -44.5292 H         1 UNK         0.0600 
    199 H199       -2.6002  -24.6551  -44.5992 H         1 UNK         0.0600 
    200 H200       -1.2558  -25.2713  -46.8305 H         1 UNK         0.3000 
    201 H201       -1.3209  -28.0872  -47.1974 H         1 UNK         0.0600 
    202 H202        0.6944  -26.8565  -46.4425 H         1 UNK         0.0600 
    203 H203        0.8154  -26.0434  -48.0013 H         1 UNK         0.0600 
    204 H204        1.0546  -27.7827  -47.8919 H         1 UNK         0.0600 
    205 H205       -1.2567  -25.4063  -49.5861 H         1 UNK         0.3000 
    206 H206       -1.1778  -27.0656  -51.9197 H         1 UNK         0.0600 
    207 H207       -1.7427  -24.9246  -53.0836 H         1 UNK         0.0600 
    208 H208       -2.0924  -24.1648  -51.5354 H         1 UNK         0.0600 
    209 H209       -0.4521  -24.6915  -51.9138 H         1 UNK         0.0600 
    210 H210       -3.7640  -26.0007  -49.8691 H         1 UNK         0.3000 
    211 H211       -5.8887  -26.4717  -49.6256 H         1 UNK         0.0600 
    212 H212       -5.9291  -28.1706  -52.1784 H         1 UNK         0.0600 
    213 H213       -7.1216  -28.1593  -50.8927 H         1 UNK         0.0600 
    214 H214       -5.5144  -28.7903  -50.5795 H         1 UNK         0.0600 
    215 H215       -8.0593  -26.0049  -50.6285 H         1 UNK         0.3000 
    216 H216       -9.4618  -24.4306  -51.3127 H         1 UNK         0.0600 
    217 H217       -9.3581  -23.5836  -53.6212 H         1 UNK         0.0600 
    218 H218       -8.9665  -25.2960  -53.6085 H         1 UNK         0.0600 
    219 H219       -7.6872  -24.0968  -53.7904 H         1 UNK         0.0600 
    220 H220       -7.8997  -23.6700  -49.3643 H         1 UNK         0.3000 
    221 H221       -6.0734  -21.6510  -49.6571 H         1 UNK         0.0600 
    222 H222       -7.8309  -22.2616  -47.2207 H         1 UNK         0.0600 
    223 H223       -6.3254  -23.0785  -47.6396 H         1 UNK         0.0600 
    224 H224       -6.3051  -21.3838  -47.1860 H         1 UNK         0.0600 
    225 H225       -9.4834  -21.1905  -49.8548 H         1 UNK         0.3000 
    226 H226       -9.7144  -18.4323  -49.1568 H         1 UNK         0.0600 
    227 H227      -11.6721  -19.9385  -49.4158 H         1 UNK         0.0600 
    228 H228      -11.8123  -18.5748  -50.5133 H         1 UNK         0.0600 
    229 H229      -11.3185  -20.1463  -51.1320 H         1 UNK         0.0600 
    230 H230       -8.3315  -20.0246  -51.9760 H         1 UNK         0.3000 
    231 H231       -8.2290  -17.5758  -53.6120 H         1 UNK         0.0600 
    232 H232       -7.0368  -20.3619  -54.0609 H         1 UNK         0.0600 
    233 H233       -8.6130  -19.8311  -54.6476 H         1 UNK         0.0600 
    234 H234       -7.1488  -19.0709  -55.2496 H         1 UNK         0.0600 
    235 H235       -6.5863  -18.5468  -50.9115 H         1 UNK         0.3000 
    236 H236       -4.7211  -18.0956  -49.8802 H         1 UNK         0.0600 
    237 H237       -3.9152  -16.1273  -52.0852 H         1 UNK         0.0600 
    238 H238       -5.0098  -15.7354  -50.7621 H         1 UNK         0.0600 
    239 H239       -3.3459  -16.1586  -50.4212 H         1 UNK         0.0600 
    240 H240       -2.0511  -17.6138  -50.8384 H         1 UNK         0.3000 
    241 H241       -1.3489  -20.3616  -51.4661 H         1 UNK         0.0600 
    242 H242       -1.0593  -18.4223  -54.9304 H         1 UNK         0.3800 
    243 H243       -2.1180  -17.9117  -53.6419 H         1 UNK         0.3800 
    244 H244       -0.1753  -19.3285  -49.6549 H         1 UNK         0.0800 
    245 H245        0.9543  -19.6598  -50.9212 H         1 UNK         0.0800 
    246 H246        2.3532  -17.9670  -52.1139 H         1 UNK         0.0800 
    247 H247        2.5899  -16.3304  -51.5574 H         1 UNK         0.0800 
@<TRIPOS>BOND
     1    1    2 1    
     2    1  127 1    
     3    1  128 1    
     4    1  129 1    
     5    2    3 2    
     6    2    4 am   BACKBONE|DICT|INTERRES
     7    4    5 1    
     8    4  130 1    
     9    5    6 1    
    10    5   65 1    
    11    5  131 1    
    12    6    7 1    
    13    6  132 1    
    14    6  133 1    
    15    7    8 1    
    16    8    9 1    
    17    8  134 1    
    18    8  135 1    
    19    9   10 ar   
    20    9   14 ar   
    21   10   11 ar   
    22   10  136 1    
    23   11   12 ar   
    24   11  126 1    
    25   12   13 ar   
    26   12  137 1    
    27   13   14 ar   
    28   13   15 1    
    29   14  138 1    
    30   15   16 1    
    31   15  139 1    
    32   15  140 1    
    33   16   17 1    
    34   17   18 1    
    35   17  141 1    
    36   17  142 1    
    37   18   19 1    
    38   18   67 1    
    39   18  143 1    
    40   19   20 am   BACKBONE|DICT|INTERRES
    41   19  144 1    
    42   20   21 2    
    43   20   22 1    
    44   22   23 1    
    45   22   24 1    
    46   22  145 1    
    47   23  146 1    
    48   23  147 1    
    49   23  148 1    
    50   24   25 am   BACKBONE|DICT|INTERRES
    51   24  149 1    
    52   25   26 2    
    53   25   27 1    
    54   27   28 1    
    55   27   29 1    
    56   27  150 1    
    57   28  151 1    
    58   28  152 1    
    59   28  153 1    
    60   29   30 am   BACKBONE|DICT|INTERRES
    61   29  154 1    
    62   30   31 2    
    63   30   32 1    
    64   32   33 1    
    65   32   34 1    
    66   32  155 1    
    67   33  156 1    
    68   33  157 1    
    69   33  158 1    
    70   34   35 am   BACKBONE|DICT|INTERRES
    71   34  159 1    
    72   35   36 2    
    73   35   37 1    
    74   37   38 1    
    75   37   39 1    
    76   37  160 1    
    77   38  161 1    
    78   38  162 1    
    79   38  163 1    
    80   39   40 am   BACKBONE|DICT|INTERRES
    81   39  164 1    
    82   40   41 2    
    83   40   42 1    
    84   42   43 1    
    85   42   44 1    
    86   42  165 1    
    87   43  166 1    
    88   43  167 1    
    89   43  168 1    
    90   44   45 am   BACKBONE|DICT|INTERRES
    91   44  169 1    
    92   45   46 2    
    93   45   47 1    
    94   47   48 1    
    95   47   49 1    
    96   47  170 1    
    97   48  171 1    
    98   48  172 1    
    99   48  173 1    
   100   49   50 am   BACKBONE|DICT|INTERRES
   101   49  174 1    
   102   50   51 2    
   103   50   52 1    
   104   52   53 1    
   105   52   54 1    
   106   52  175 1    
   107   53  176 1    
   108   53  177 1    
   109   53  178 1    
   110   54   55 am   BACKBONE|DICT|INTERRES
   111   54  179 1    
   112   55   56 2    
   113   55   57 1    
   114   57   58 1    
   115   57   59 1    
   116   57  180 1    
   117   58  181 1    
   118   58  182 1    
   119   58  183 1    
   120   59   60 am   BACKBONE|DICT|INTERRES
   121   59  184 1    
   122   60   61 2    
   123   60   62 1    
   124   62   63 1    
   125   62   64 1    
   126   62  185 1    
   127   63  186 1    
   128   63  187 1    
   129   63  188 1    
   130   64   65 am   BACKBONE|DICT|INTERRES
   131   64  189 1    
   132   65   66 2    
   133   67   68 2    
   134   67   69 am   BACKBONE|DICT|INTERRES
   135   69   70 1    
   136   69  190 1    
   137   70   71 1    
   138   70   72 1    
   139   70  191 1    
   140   71  192 1    
   141   71  193 1    
   142   71  194 1    
   143   72   73 2    
   144   72   74 am   BACKBONE|DICT|INTERRES
   145   74   75 1    
   146   74  195 1    
   147   75   76 1    
   148   75   77 1    
   149   75  196 1    
   150   76  197 1    
   151   76  198 1    
   152   76  199 1    
   153   77   78 2    
   154   77   79 am   BACKBONE|DICT|INTERRES
   155   79   80 1    
   156   79  200 1    
   157   80   81 1    
   158   80   82 1    
   159   80  201 1    
   160   81  202 1    
   161   81  203 1    
   162   81  204 1    
   163   82   83 2    
   164   82   84 am   BACKBONE|DICT|INTERRES
   165   84   85 1    
   166   84  205 1    
   167   85   86 1    
   168   85   87 1    
   169   85  206 1    
   170   86  207 1    
   171   86  208 1    
   172   86  209 1    
   173   87   88 2    
   174   87   89 am   BACKBONE|DICT|INTERRES
   175   89   90 1    
   176   89  210 1    
   177   90   91 1    
   178   90   92 1    
   179   90  211 1    
   180   91  212 1    
   181   91  213 1    
   182   91  214 1    
   183   92   93 2    
   184   92   94 am   BACKBONE|DICT|INTERRES
   185   94   95 1    
   186   94  215 1    
   187   95   96 1    
   188   95   97 1    
   189   95  216 1    
   190   96  217 1    
   191   96  218 1    
   192   96  219 1    
   193   97   98 2    
   194   97   99 am   BACKBONE|DICT|INTERRES
   195   99  100 1    
   196   99  220 1    
   197  100  101 1    
   198  100  102 1    
   199  100  221 1    
   200  101  222 1    
   201  101  223 1    
   202  101  224 1    
   203  102  103 2    
   204  102  104 am   BACKBONE|DICT|INTERRES
   205  104  105 1    
   206  104  225 1    
   207  105  106 1    
   208  105  107 1    
   209  105  226 1    
   210  106  227 1    
   211  106  228 1    
   212  106  229 1    
   213  107  108 2    
   214  107  109 am   BACKBONE|DICT|INTERRES
   215  109  110 1    
   216  109  230 1    
   217  110  111 1    
   218  110  112 1    
   219  110  231 1    
   220  111  232 1    
   221  111  233 1    
   222  111  234 1    
   223  112  113 2    
   224  112  114 am   BACKBONE|DICT|INTERRES
   225  114  115 1    
   226  114  235 1    
   227  115  116 1    
   228  115  117 1    
   229  115  236 1    
   230  116  237 1    
   231  116  238 1    
   232  116  239 1    
   233  117  118 2    
   234  117  119 am   BACKBONE|DICT|INTERRES
   235  119  120 1    
   236  119  240 1    
   237  120  121 1    
   238  120  124 1    
   239  120  241 1    
   240  121  122 am   BACKBONE|DICT|INTERRES
   241  121  123 2    
   242  122  242 1    
   243  122  243 1    
   244  124  125 1    
   245  124  244 1    
   246  124  245 1    
   247  125  126 1    
   248  126  246 1    
   249  126  247 1    
@<TRIPOS>SUBSTRUCTURE
     1 UNK         1 GROUP             0       ****    0 ROOT    
