@<TRIPOS>MOLECULE
3R540
247   249    1
SMALL
USER_CHARGES


@<TRIPOS>ATOM
      1 CA         -1.0200  -12.7812  -43.4630 C.3       0 UNK        -0.1800 
      2 C          -0.3023  -12.1377  -44.6417 C.2       0 UNK         0.5000 
      3 O          -0.2231  -10.9124  -44.7218 O.2       0 UNK        -0.5000 
      4 N           0.2255  -12.9635  -45.5531 N.am      1 UNK        -0.5000 
      5 CA          0.9613  -12.5598  -46.7619 C.3       1 UNK         0.1400 
      6 C6          1.1132  -13.7407  -47.7568 C.3       23 UNK        -0.0398 
      7 S7         -0.4839  -14.4972  -48.2180 S.3       23 UNK        -0.2404 
      8 C8         -0.2508  -14.8295  -49.9961 C.3       23 UNK        -0.0205 
      9 C9          0.2605  -16.2360  -50.3028 C.ar      23 UNK        -0.0193 
     10 C10        -0.4056  -17.0092  -51.2586 C.ar      23 UNK        -0.1150 
     11 C11         0.0770  -18.2684  -51.6208 C.ar      23 UNK        -0.0193 
     12 C12         1.2269  -18.7674  -51.0068 C.ar      23 UNK        -0.1150 
     13 C13         1.8942  -18.0220  -50.0319 C.ar      23 UNK        -0.0193 
     14 C14         1.4108  -16.7529  -49.6912 C.ar      23 UNK        -0.1150 
     15 C15         3.1657  -18.5676  -49.3899 C.3       23 UNK        -0.0205 
     16 S16         2.9593  -20.2332  -48.6674 S.3       23 UNK        -0.2404 
     17 C17         1.9516  -19.8695  -47.1934 C.3       23 UNK        -0.0398 
     18 CA          0.7465  -20.8257  -47.0028 C.3       11 UNK         0.1400 
     19 N           0.2359  -20.7623  -45.6288 N.am      11 UNK        -0.5000 
     20 C          -0.7523  -21.5113  -45.1186 C.2       10 UNK         0.5000 
     21 O          -1.3201  -22.4103  -45.7359 O.2       10 UNK        -0.5000 
     22 CA         -1.2287  -21.1613  -43.6957 C.3       10 UNK         0.1400 
     23 CB         -0.3719  -21.8689  -42.6360 C.3       10 UNK        -0.1800 
     24 N          -1.2537  -19.7181  -43.4446 N.am      10 UNK        -0.5000 
     25 C          -2.0365  -18.8528  -44.1078 C.2       9 UNK         0.5000 
     26 O          -2.8538  -19.1905  -44.9629 O.2       9 UNK        -0.5000 
     27 CA         -1.8425  -17.3569  -43.8077 C.3       9 UNK         0.1400 
     28 CB         -2.6101  -16.9525  -42.5410 C.3       9 UNK        -0.1800 
     29 N          -0.4306  -16.9981  -43.6750 N.am      9 UNK        -0.5000 
     30 C           0.4582  -17.0557  -44.6767 C.2       8 UNK         0.5000 
     31 O           0.1544  -17.3343  -45.8361 O.2       8 UNK        -0.5000 
     32 CA          1.9372  -16.8167  -44.3162 C.3       8 UNK         0.1400 
     33 CB          2.2625  -15.3232  -44.2173 C.3       8 UNK        -0.1800 
     34 N           2.3185  -17.4567  -43.0624 N.am      8 UNK        -0.5000 
     35 C           2.3655  -18.7780  -42.8619 C.2       7 UNK         0.5000 
     36 O           2.1030  -19.6099  -43.7291 O.2       7 UNK        -0.5000 
     37 CA          2.7334  -19.2396  -41.4428 C.3       7 UNK         0.1400 
     38 CB          4.2574  -19.2485  -41.2505 C.3       7 UNK        -0.1800 
     39 N           2.1171  -18.3945  -40.4202 N.am      7 UNK        -0.5000 
     40 C           0.8069  -18.3815  -40.1410 C.2       6 UNK         0.5000 
     41 O          -0.0204  -19.1003  -40.7026 O.2       6 UNK        -0.5000 
     42 CA          0.3427  -17.3625  -39.0842 C.3       6 UNK         0.1400 
     43 CB          0.6517  -17.8659  -37.6661 C.3       6 UNK        -0.1800 
     44 N           0.9407  -16.0390  -39.2746 N.am      6 UNK        -0.5000 
     45 C           0.6916  -15.2519  -40.3296 C.2       5 UNK         0.5000 
     46 O          -0.0616  -15.5618  -41.2497 O.2       5 UNK        -0.5000 
     47 CA          1.4280  -13.9052  -40.3957 C.3       5 UNK         0.1400 
     48 CB          0.6792  -12.8370  -39.5860 C.3       5 UNK        -0.1800 
     49 N           2.8300  -13.9353  -39.9766 N.am      5 UNK        -0.5000 
     50 C           3.7852  -14.7405  -40.4598 C.2       4 UNK         0.5000 
     51 O           3.5632  -15.7202  -41.1722 O.2       4 UNK        -0.5000 
     52 CA          5.2357  -14.3229  -40.1442 C.3       4 UNK         0.1400 
     53 CB          6.2670  -15.3578  -40.6288 C.3       4 UNK        -0.1800 
     54 N           5.5254  -13.0339  -40.7761 N.am      4 UNK        -0.5000 
     55 C           5.1522  -11.8379  -40.2998 C.2       3 UNK         0.5000 
     56 O           4.6376  -11.6800  -39.1914 O.2       3 UNK        -0.5000 
     57 CA          5.3262  -10.6256  -41.2361 C.3       3 UNK         0.1400 
     58 CB          6.6886   -9.9561  -41.0007 C.3       3 UNK        -0.1800 
     59 N           5.1851  -10.9432  -42.6626 N.am      3 UNK        -0.5000 
     60 C           4.0814  -11.4354  -43.2441 C.2       2 UNK         0.5000 
     61 O           3.0448  -11.7098  -42.6332 O.2       2 UNK        -0.5000 
     62 CA          4.1587  -11.6691  -44.7615 C.3       2 UNK         0.1400 
     63 CB          5.2274  -12.7192  -45.1213 C.3       2 UNK        -0.1800 
     64 N           2.8559  -12.1204  -45.2370 N.am      2 UNK        -0.5000 
     65 C           2.3533  -11.9486  -46.4647 C.2       1 UNK         0.5000 
     66 O           2.9528  -11.3551  -47.3624 O.2       1 UNK        -0.5000 
     67 C          -0.3690  -20.5730  -48.0412 C.2       11 UNK         0.5000 
     68 O          -0.5327  -21.3672  -48.9699 O.2       11 UNK        -0.5000 
     69 N          -1.1523  -19.5065  -47.8260 N.am      12 UNK        -0.5000 
     70 CA         -2.3138  -19.1663  -48.6452 C.3       12 UNK         0.1400 
     71 CB         -2.8002  -17.7559  -48.2854 C.3       12 UNK        -0.1800 
     72 C          -3.4528  -20.1939  -48.5146 C.2       12 UNK         0.5000 
     73 O          -4.0119  -20.6091  -49.5295 O.2       12 UNK        -0.5000 
     74 N          -3.7622  -20.6061  -47.2767 N.am      13 UNK        -0.5000 
     75 CA         -4.8137  -21.5748  -46.9592 C.3       13 UNK         0.1400 
     76 CB         -4.9916  -21.6723  -45.4376 C.3       13 UNK        -0.1800 
     77 C          -4.5643  -22.9669  -47.5647 C.2       13 UNK         0.5000 
     78 O          -5.5008  -23.5752  -48.0812 O.2       13 UNK        -0.5000 
     79 N          -3.3080  -23.4322  -47.5276 N.am      14 UNK        -0.5000 
     80 CA         -2.8748  -24.6955  -48.1266 C.3       14 UNK         0.1400 
     81 CB         -1.4156  -24.9758  -47.7377 C.3       14 UNK        -0.1800 
     82 C          -3.0403  -24.7183  -49.6562 C.2       14 UNK         0.5000 
     83 O          -3.4280  -25.7476  -50.2080 O.2       14 UNK        -0.5000 
     84 N          -2.7748  -23.5781  -50.3071 N.am      15 UNK        -0.5000 
     85 CA         -2.9783  -23.3914  -51.7411 C.3       15 UNK         0.1400 
     86 CB         -2.2004  -22.1598  -52.2093 C.3       15 UNK        -0.1800 
     87 C          -4.4675  -23.2755  -52.1065 C.2       15 UNK         0.5000 
     88 O          -4.8932  -23.8710  -53.0937 O.2       15 UNK        -0.5000 
     89 N          -5.2471  -22.5541  -51.2886 N.am      16 UNK        -0.5000 
     90 CA         -6.6997  -22.4194  -51.4347 C.3       16 UNK         0.1400 
     91 CB         -7.2193  -21.3777  -50.4331 C.3       16 UNK        -0.1800 
     92 C          -7.4535  -23.7556  -51.2758 C.2       16 UNK         0.5000 
     93 O          -8.4716  -23.9607  -51.9370 O.2       16 UNK        -0.5000 
     94 N          -6.9268  -24.6451  -50.4238 N.am      17 UNK        -0.5000 
     95 CA         -7.4076  -26.0131  -50.2294 C.3       17 UNK         0.1400 
     96 CB         -6.8713  -26.5377  -48.8880 C.3       17 UNK        -0.1800 
     97 C          -7.0236  -26.9729  -51.3761 C.2       17 UNK         0.5000 
     98 O          -7.6224  -28.0449  -51.4810 O.2       17 UNK        -0.5000 
     99 N          -6.0385  -26.5939  -52.2016 N.am      18 UNK        -0.5000 
    100 CA        -5.5898  -27.3393  -53.3769 C.3       18 UNK         0.1400 
    101 CB        -4.0799  -27.1017  -53.5738 C.3       18 UNK        -0.1800 
    102 C         -6.4140  -26.9594  -54.6259 C.2       18 UNK         0.5000 
    103 O         -7.4672  -26.3252  -54.5169 O.2       18 UNK        -0.5000 
    104 N         -5.9306  -27.3695  -55.8056 N.am      19 UNK        -0.5000 
    105 CA        -6.5607  -27.1704  -57.1138 C.3       19 UNK         0.1400 
    106 CB        -5.9777  -28.2026  -58.0966 C.3       19 UNK        -0.1800 
    107 C         -6.4447  -25.7190  -57.6358 C.2       19 UNK         0.5000 
    108 O         -5.8995  -25.4935  -58.7182 O.2       19 UNK        -0.5000 
    109 N         -6.9772  -24.7675  -56.8577 N.am      20 UNK        -0.5000 
    110 CA        -7.0541  -23.3284  -57.1204 C.3       20 UNK         0.1400 
    111 CB        -8.0542  -23.0446  -58.2646 C.3       20 UNK        -0.1800 
    112 C         -5.6609  -22.6914  -57.3159 C.2       20 UNK         0.5000 
    113 O         -4.8296  -22.7896  -56.4106 O.2       20 UNK        -0.5000 
    114 N         -5.4382  -22.0332  -58.4645 N.am      21 UNK        -0.5000 
    115 CA        -4.2312  -21.2942  -58.8478 C.3       21 UNK         0.1400 
    116 CB        -3.0459  -22.2608  -59.0726 C.3       21 UNK        -0.1800 
    117 C         -3.9393  -20.1551  -57.8496 C.2       21 UNK         0.5000 
    118 O         -4.6499  -19.1486  -57.8647 O.2       21 UNK        -0.5000 
    119 N         -2.9299  -20.3419  -56.9914 N.am      22 UNK        -0.5000 
    120 CA        -2.6137  -19.4612  -55.8570 C.3       22 UNK         0.1400 
    121 C         -3.6815  -19.4955  -54.7189 C.2       22 UNK         0.5000 
    122 N         -4.4784  -20.5496  -54.5833 N.am      22 UNK        -0.7600 
    123 O         -3.8122  -18.5375  -53.9633 O.2       22 UNK        -0.5000 
    124 C124       -1.1842  -19.7626  -55.3343 C.3       23 UNK        -0.0398 
    125 S125       -0.4301  -18.4270  -54.3438 S.3       23 UNK        -0.2404 
    126 C126       -0.6491  -19.0961  -52.6653 C.3       23 UNK        -0.0205 
    127 H127       -0.9407  -13.8688  -43.4816 H         1 UNK         0.0600 
    128 H128       -2.0772  -12.5168  -43.4766 H         1 UNK         0.0600 
    129 H129       -0.5914  -12.4276  -42.5254 H         1 UNK         0.0600 
    130 H130        0.0714  -13.9567  -45.4612 H         1 UNK         0.3000 
    131 H131        0.3769  -11.7800  -47.2549 H         1 UNK         0.0600 
    132 H132        1.6181  -13.3969  -48.6609 H         1 UNK         0.0800 
    133 H133        1.7482  -14.5228  -47.3427 H         1 UNK         0.0800 
    134 H134        0.4209  -14.0966  -50.4434 H         1 UNK         0.0800 
    135 H135       -1.2171  -14.6743  -50.4783 H         1 UNK         0.0800 
    136 H136       -1.2922  -16.6253  -51.7440 H         1 UNK         0.1150 
    137 H137        1.6042  -19.7418  -51.2840 H         1 UNK         0.1150 
    138 H138        1.9406  -16.1624  -48.9600 H         1 UNK         0.1150 
    139 H139        3.9422  -18.6155  -50.1543 H         1 UNK         0.0800 
    140 H140        3.5371  -17.8892  -48.6201 H         1 UNK         0.0800 
    141 H141        1.6235  -18.8314  -47.2247 H         1 UNK         0.0800 
    142 H142        2.6217  -19.9436  -46.3363 H         1 UNK         0.0800 
    143 H143        1.1000  -21.8485  -47.1489 H         1 UNK         0.0600 
    144 H144        0.6906  -20.0965  -45.0118 H         1 UNK         0.3000 
    145 H145       -2.2509  -21.5278  -43.5903 H         1 UNK         0.0600 
    146 H146        0.6683  -21.5484  -42.6730 H         1 UNK         0.0600 
    147 H147       -0.7471  -21.6739  -41.6313 H         1 UNK         0.0600 
    148 H148       -0.3859  -22.9494  -42.7839 H         1 UNK         0.0600 
    149 H149       -0.6355  -19.3693  -42.7208 H         1 UNK         0.3000 
    150 H150       -2.2552  -16.7940  -44.6477 H         1 UNK         0.0600 
    151 H151       -3.6641  -17.2220  -42.6191 H         1 UNK         0.0600 
    152 H152       -2.5618  -15.8755  -42.3797 H         1 UNK         0.0600 
    153 H153       -2.2087  -17.4427  -41.6532 H         1 UNK         0.0600 
    154 H154       -0.1263  -16.6981  -42.7522 H         1 UNK         0.3000 
    155 H155        2.5511  -17.2475  -45.1100 H         1 UNK         0.0600 
    156 H156        3.2860  -15.1631  -43.8793 H         1 UNK         0.0600 
    157 H157        2.1749  -14.8529  -45.1911 H         1 UNK         0.0600 
    158 H158        1.5984  -14.8055  -43.5254 H         1 UNK         0.0600 
    159 H159        2.6043  -16.8417  -42.3037 H         1 UNK         0.3000 
    160 H160        2.3670  -20.2602  -41.3144 H         1 UNK         0.0600 
    161 H161        4.7384  -19.8943  -41.9862 H         1 UNK         0.0600 
    162 H162        4.5281  -19.6227  -40.2631 H         1 UNK         0.0600 
    163 H163        4.6852  -18.2513  -41.3604 H         1 UNK         0.0600 
    164 H164        2.7158  -17.7168  -39.9705 H         1 UNK         0.3000 
    165 H165       -0.7405  -17.2598  -39.1786 H         1 UNK         0.0600 
    166 H166        0.2468  -17.1910  -36.9119 H         1 UNK         0.0600 
    167 H167        0.2065  -18.8470  -37.4953 H         1 UNK         0.0600 
    168 H168        1.7247  -17.9575  -37.4936 H         1 UNK         0.0600 
    169 H169        1.5863  -15.7147  -38.5697 H         1 UNK         0.3000 
    170 H170        1.4224  -13.5923  -41.4409 H         1 UNK         0.0600 
    171 H171       -0.3682  -12.7799  -39.8858 H         1 UNK         0.0600 
    172 H172        0.7051  -13.0507  -38.5169 H         1 UNK         0.0600 
    173 H173        1.1146  -11.8497  -39.7429 H         1 UNK         0.0600 
    174 H174        3.1429  -13.1408  -39.4307 H         1 UNK         0.3000 
    175 H175        5.3317  -14.2313  -39.0603 H         1 UNK         0.0600 
    176 H176        6.2255  -15.4954  -41.7102 H         1 UNK         0.0600 
    177 H177        7.2811  -15.0544  -40.3685 H         1 UNK         0.0600 
    178 H178        6.0905  -16.3299  -40.1667 H         1 UNK         0.0600 
    179 H179        5.9087  -13.0704  -41.7089 H         1 UNK         0.3000 
    180 H180        4.5449   -9.9063  -40.9818 H         1 UNK         0.0600 
    181 H181        7.5137  -10.6166  -41.2703 H         1 UNK         0.0600 
    182 H182        6.8147   -9.6846  -39.9517 H         1 UNK         0.0600 
    183 H183        6.7853   -9.0407  -41.5848 H         1 UNK         0.0600 
    184 H184        5.9896  -10.7465  -43.2405 H         1 UNK         0.3000 
    185 H185        4.4067  -10.7158  -45.2327 H         1 UNK         0.0600 
    186 H186        5.2507  -12.9079  -46.1947 H         1 UNK         0.0600 
    187 H187        6.2253  -12.3861  -44.8351 H         1 UNK         0.0600 
    188 H188        5.0422  -13.6698  -44.6206 H         1 UNK         0.0600 
    189 H189        2.2707  -12.5226  -44.5164 H         1 UNK         0.3000 
    190 H190       -0.9486  -18.8974  -47.0425 H         1 UNK         0.3000 
    191 H191       -1.9960  -19.1571  -49.6896 H         1 UNK         0.0600 
    192 H192       -3.1108  -17.6859  -47.2427 H         1 UNK         0.0600 
    193 H193       -3.6497  -17.4657  -48.9046 H         1 UNK         0.0600 
    194 H194       -2.0132  -17.0211  -48.4482 H         1 UNK         0.0600 
    195 H195       -3.2815  -20.1833  -46.4859 H         1 UNK         0.3000 
    196 H196       -5.7451  -21.1933  -47.3815 H         1 UNK         0.0600 
    197 H197       -5.8068  -22.3507  -45.1831 H         1 UNK         0.0600 
    198 H198       -5.2292  -20.7010  -45.0035 H         1 UNK         0.0600 
    199 H199       -4.0906  -22.0466  -44.9529 H         1 UNK         0.0600 
    200 H200       -2.5969  -22.8956  -47.0359 H         1 UNK         0.3000 
    201 H201       -3.4976  -25.4920  -47.7144 H         1 UNK         0.0600 
    202 H202       -1.3073  -25.0662  -46.6568 H         1 UNK         0.0600 
    203 H203       -0.7504  -24.1795  -48.0748 H         1 UNK         0.0600 
    204 H204       -1.0642  -25.9094  -48.1788 H         1 UNK         0.0600 
    205 H205       -2.4600  -22.7748  -49.7786 H         1 UNK         0.3000 
    206 H206       -2.5734  -24.2615  -52.2627 H         1 UNK         0.0600 
    207 H207       -1.1374  -22.2622  -51.9911 H         1 UNK         0.0600 
    208 H208       -2.3067  -22.0291  -53.2854 H         1 UNK         0.0600 
    209 H209       -2.5598  -21.2512  -51.7264 H         1 UNK         0.0600 
    210 H210       -4.8144  -22.0408  -50.5251 H         1 UNK         0.3000 
    211 H211       -6.8971  -22.0496  -52.4429 H         1 UNK         0.0600 
    212 H212       -7.0523  -21.6933  -49.4034 H         1 UNK         0.0600 
    213 H213       -8.2909  -21.2174  -50.5575 H         1 UNK         0.0600 
    214 H214       -6.7270  -20.4150  -50.5728 H         1 UNK         0.0600 
    215 H215       -6.1407  -24.3559  -49.8510 H         1 UNK         0.3000 
    216 H216       -8.4978  -25.9907  -50.1737 H         1 UNK         0.0600 
    217 H217       -7.2317  -27.5475  -48.6883 H         1 UNK         0.0600 
    218 H218       -7.1961  -25.9073  -48.0600 H         1 UNK         0.0600 
    219 H219       -5.7813  -26.5687  -48.8769 H         1 UNK         0.0600 
    220 H220       -5.6448  -25.6682  -52.0920 H         1 UNK         0.3000 
    221 H221       -5.7384  -28.4064  -53.2005 H         1 UNK         0.0600 
    222 H222       -3.8689  -26.0966  -53.9386 H         1 UNK         0.0600 
    223 H223       -3.5337  -27.2382  -52.6401 H         1 UNK         0.0600 
    224 H224       -3.6582  -27.8049  -54.2923 H         1 UNK         0.0600 
    225 H225       -5.0460  -27.8557  -55.8160 H         1 UNK         0.3000 
    226 H226       -7.6272  -27.3832  -57.0145 H         1 UNK         0.0600 
    227 H227       -6.1371  -29.2206  -57.7406 H         1 UNK         0.0600 
    228 H228       -6.4547  -28.1261  -59.0746 H         1 UNK         0.0600 
    229 H229       -4.9059  -28.0610  -58.2408 H         1 UNK         0.0600 
    230 H230       -7.3352  -25.0712  -55.9557 H         1 UNK         0.3000 
    231 H231       -7.4604  -22.8785  -56.2134 H         1 UNK         0.0600 
    232 H232       -8.2025  -21.9730  -58.4042 H         1 UNK         0.0600 
    233 H233       -9.0314  -23.4718  -58.0391 H         1 UNK         0.0600 
    234 H234       -7.7246  -23.4654  -59.2152 H         1 UNK         0.0600 
    235 H235       -6.1954  -21.9955  -59.1318 H         1 UNK         0.3000 
    236 H236       -4.4480  -20.8155  -59.8039 H         1 UNK         0.0600 
    237 H237       -2.1516  -21.7191  -59.3832 H         1 UNK         0.0600 
    238 H238       -3.2770  -22.9764  -59.8617 H         1 UNK         0.0600 
    239 H239       -2.7953  -22.8332  -58.1791 H         1 UNK         0.0600 
    240 H240       -2.4308  -21.2182  -57.0326 H         1 UNK         0.3000 
    241 H241       -2.6123  -18.4407  -56.2452 H         1 UNK         0.0600 
    242 H242       -5.1686  -20.5425  -53.8517 H         1 UNK         0.3800 
    243 H243       -4.4275  -21.3428  -55.2171 H         1 UNK         0.3800 
    244 H244       -1.1584  -20.7046  -54.7869 H         1 UNK         0.0800 
    245 H245       -0.5158  -19.9091  -56.1841 H         1 UNK         0.0800 
    246 H246       -1.7100  -19.1312  -52.4178 H         1 UNK         0.0800 
    247 H247       -0.2836  -20.1226  -52.6412 H         1 UNK         0.0800 
@<TRIPOS>BOND
     1    1    2 1    
     2    1  127 1    
     3    1  128 1    
     4    1  129 1    
     5    2    3 2    
     6    2    4 am   BACKBONE|DICT|INTERRES
     7    4    5 1    
     8    4  130 1    
     9    5    6 1    
    10    5   65 1    
    11    5  131 1    
    12    6    7 1    
    13    6  132 1    
    14    6  133 1    
    15    7    8 1    
    16    8    9 1    
    17    8  134 1    
    18    8  135 1    
    19    9   10 ar   
    20    9   14 ar   
    21   10   11 ar   
    22   10  136 1    
    23   11   12 ar   
    24   11  126 1    
    25   12   13 ar   
    26   12  137 1    
    27   13   14 ar   
    28   13   15 1    
    29   14  138 1    
    30   15   16 1    
    31   15  139 1    
    32   15  140 1    
    33   16   17 1    
    34   17   18 1    
    35   17  141 1    
    36   17  142 1    
    37   18   19 1    
    38   18   67 1    
    39   18  143 1    
    40   19   20 am   BACKBONE|DICT|INTERRES
    41   19  144 1    
    42   20   21 2    
    43   20   22 1    
    44   22   23 1    
    45   22   24 1    
    46   22  145 1    
    47   23  146 1    
    48   23  147 1    
    49   23  148 1    
    50   24   25 am   BACKBONE|DICT|INTERRES
    51   24  149 1    
    52   25   26 2    
    53   25   27 1    
    54   27   28 1    
    55   27   29 1    
    56   27  150 1    
    57   28  151 1    
    58   28  152 1    
    59   28  153 1    
    60   29   30 am   BACKBONE|DICT|INTERRES
    61   29  154 1    
    62   30   31 2    
    63   30   32 1    
    64   32   33 1    
    65   32   34 1    
    66   32  155 1    
    67   33  156 1    
    68   33  157 1    
    69   33  158 1    
    70   34   35 am   BACKBONE|DICT|INTERRES
    71   34  159 1    
    72   35   36 2    
    73   35   37 1    
    74   37   38 1    
    75   37   39 1    
    76   37  160 1    
    77   38  161 1    
    78   38  162 1    
    79   38  163 1    
    80   39   40 am   BACKBONE|DICT|INTERRES
    81   39  164 1    
    82   40   41 2    
    83   40   42 1    
    84   42   43 1    
    85   42   44 1    
    86   42  165 1    
    87   43  166 1    
    88   43  167 1    
    89   43  168 1    
    90   44   45 am   BACKBONE|DICT|INTERRES
    91   44  169 1    
    92   45   46 2    
    93   45   47 1    
    94   47   48 1    
    95   47   49 1    
    96   47  170 1    
    97   48  171 1    
    98   48  172 1    
    99   48  173 1    
   100   49   50 am   BACKBONE|DICT|INTERRES
   101   49  174 1    
   102   50   51 2    
   103   50   52 1    
   104   52   53 1    
   105   52   54 1    
   106   52  175 1    
   107   53  176 1    
   108   53  177 1    
   109   53  178 1    
   110   54   55 am   BACKBONE|DICT|INTERRES
   111   54  179 1    
   112   55   56 2    
   113   55   57 1    
   114   57   58 1    
   115   57   59 1    
   116   57  180 1    
   117   58  181 1    
   118   58  182 1    
   119   58  183 1    
   120   59   60 am   BACKBONE|DICT|INTERRES
   121   59  184 1    
   122   60   61 2    
   123   60   62 1    
   124   62   63 1    
   125   62   64 1    
   126   62  185 1    
   127   63  186 1    
   128   63  187 1    
   129   63  188 1    
   130   64   65 am   BACKBONE|DICT|INTERRES
   131   64  189 1    
   132   65   66 2    
   133   67   68 2    
   134   67   69 am   BACKBONE|DICT|INTERRES
   135   69   70 1    
   136   69  190 1    
   137   70   71 1    
   138   70   72 1    
   139   70  191 1    
   140   71  192 1    
   141   71  193 1    
   142   71  194 1    
   143   72   73 2    
   144   72   74 am   BACKBONE|DICT|INTERRES
   145   74   75 1    
   146   74  195 1    
   147   75   76 1    
   148   75   77 1    
   149   75  196 1    
   150   76  197 1    
   151   76  198 1    
   152   76  199 1    
   153   77   78 2    
   154   77   79 am   BACKBONE|DICT|INTERRES
   155   79   80 1    
   156   79  200 1    
   157   80   81 1    
   158   80   82 1    
   159   80  201 1    
   160   81  202 1    
   161   81  203 1    
   162   81  204 1    
   163   82   83 2    
   164   82   84 am   BACKBONE|DICT|INTERRES
   165   84   85 1    
   166   84  205 1    
   167   85   86 1    
   168   85   87 1    
   169   85  206 1    
   170   86  207 1    
   171   86  208 1    
   172   86  209 1    
   173   87   88 2    
   174   87   89 am   BACKBONE|DICT|INTERRES
   175   89   90 1    
   176   89  210 1    
   177   90   91 1    
   178   90   92 1    
   179   90  211 1    
   180   91  212 1    
   181   91  213 1    
   182   91  214 1    
   183   92   93 2    
   184   92   94 am   BACKBONE|DICT|INTERRES
   185   94   95 1    
   186   94  215 1    
   187   95   96 1    
   188   95   97 1    
   189   95  216 1    
   190   96  217 1    
   191   96  218 1    
   192   96  219 1    
   193   97   98 2    
   194   97   99 am   BACKBONE|DICT|INTERRES
   195   99  100 1    
   196   99  220 1    
   197  100  101 1    
   198  100  102 1    
   199  100  221 1    
   200  101  222 1    
   201  101  223 1    
   202  101  224 1    
   203  102  103 2    
   204  102  104 am   BACKBONE|DICT|INTERRES
   205  104  105 1    
   206  104  225 1    
   207  105  106 1    
   208  105  107 1    
   209  105  226 1    
   210  106  227 1    
   211  106  228 1    
   212  106  229 1    
   213  107  108 2    
   214  107  109 am   BACKBONE|DICT|INTERRES
   215  109  110 1    
   216  109  230 1    
   217  110  111 1    
   218  110  112 1    
   219  110  231 1    
   220  111  232 1    
   221  111  233 1    
   222  111  234 1    
   223  112  113 2    
   224  112  114 am   BACKBONE|DICT|INTERRES
   225  114  115 1    
   226  114  235 1    
   227  115  116 1    
   228  115  117 1    
   229  115  236 1    
   230  116  237 1    
   231  116  238 1    
   232  116  239 1    
   233  117  118 2    
   234  117  119 am   BACKBONE|DICT|INTERRES
   235  119  120 1    
   236  119  240 1    
   237  120  121 1    
   238  120  124 1    
   239  120  241 1    
   240  121  122 am   BACKBONE|DICT|INTERRES
   241  121  123 2    
   242  122  242 1    
   243  122  243 1    
   244  124  125 1    
   245  124  244 1    
   246  124  245 1    
   247  125  126 1    
   248  126  246 1    
   249  126  247 1    
@<TRIPOS>SUBSTRUCTURE
     1 UNK         1 GROUP             0       ****    0 ROOT    
