@<TRIPOS>MOLECULE
3R540
247   249    1
SMALL
USER_CHARGES


@<TRIPOS>ATOM
      1 CA          0.8897  -21.1375  -48.1251 C.3       0 UNK        -0.1800 
      2 C          -0.0362  -19.9588  -48.3586 C.2       0 UNK         0.5000 
      3 O           0.2565  -18.8499  -47.9112 O.2       0 UNK        -0.5000 
      4 N          -1.1387  -20.1813  -49.0831 N.am      1 UNK        -0.5000 
      5 CA         -2.2090  -19.2165  -49.3676 C.3       1 UNK         0.1400 
      6 C6         -3.5483  -19.9161  -49.7117 C.3       23 UNK        -0.0398 
      7 S7         -4.1840  -20.9476  -48.3438 S.3       23 UNK        -0.2404 
      8 C8         -5.3106  -19.7950  -47.4859 C.3       23 UNK        -0.0205 
      9 C9         -4.5746  -18.5518  -47.0104 C.ar      23 UNK        -0.0193 
     10 C10        -4.7483  -17.3322  -47.6697 C.ar      23 UNK        -0.1150 
     11 C11        -3.9729  -16.2210  -47.3255 C.ar      23 UNK        -0.0193 
     12 C12        -3.0449  -16.3339  -46.2854 C.ar      23 UNK        -0.1150 
     13 C13        -2.8898  -17.5353  -45.5862 C.ar      23 UNK        -0.0193 
     14 C14        -3.6665  -18.6392  -45.9529 C.ar      23 UNK        -0.1150 
     15 C15        -1.9054  -17.6083  -44.4232 C.3       23 UNK        -0.0205 
     16 S16        -0.6505  -18.9223  -44.5937 S.3       23 UNK        -0.2404 
     17 C17        -1.4672  -20.3341  -43.7797 C.3       23 UNK        -0.0398 
     18 CA         -1.3518  -21.6345  -44.6116 C.3       11 UNK         0.1400 
     19 N           0.0346  -22.1058  -44.6550 N.am      11 UNK        -0.5000 
     20 C           0.4920  -23.2158  -45.2491 C.2       10 UNK         0.5000 
     21 O          -0.1805  -23.9026  -46.0198 O.2       10 UNK        -0.5000 
     22 CA          1.9191  -23.6676  -44.8648 C.3       10 UNK         0.1400 
     23 CB          2.9005  -23.4899  -46.0304 C.3       10 UNK        -0.1800 
     24 N           2.4676  -22.9883  -43.6856 N.am      10 UNK        -0.5000 
     25 C           1.9866  -23.0462  -42.4375 C.2       9 UNK         0.5000 
     26 O           0.9888  -23.6987  -42.1302 O.2       9 UNK        -0.5000 
     27 CA          2.6833  -22.1831  -41.3686 C.3       9 UNK         0.1400 
     28 CB          3.8697  -22.9313  -40.7335 C.3       9 UNK        -0.1800 
     29 N           3.0697  -20.8375  -41.8205 N.am      9 UNK        -0.5000 
     30 C           4.0166  -20.4720  -42.7013 C.2       8 UNK         0.5000 
     31 O           4.6946  -21.2750  -43.3432 O.2       8 UNK        -0.5000 
     32 CA          4.2387  -18.9607  -42.9312 C.3       8 UNK         0.1400 
     33 CB          3.6278  -18.5317  -44.2733 C.3       8 UNK        -0.1800 
     34 N           3.6872  -18.1101  -41.8755 N.am      8 UNK        -0.5000 
     35 C           4.1166  -18.0716  -40.6053 C.2       7 UNK         0.5000 
     36 O           5.1265  -18.6556  -40.2112 O.2       7 UNK        -0.5000 
     37 CA          3.2580  -17.2816  -39.5929 C.3       7 UNK         0.1400 
     38 CB          3.9293  -15.9427  -39.2499 C.3       7 UNK        -0.1800 
     39 N           1.8843  -17.0150  -40.0331 N.am      7 UNK        -0.5000 
     40 C           0.9632  -17.9252  -40.3831 C.2       6 UNK         0.5000 
     41 O           1.1564  -19.1408  -40.3363 O.2       6 UNK        -0.5000 
     42 CA         -0.3835  -17.3967  -40.9174 C.3       6 UNK         0.1400 
     43 CB         -1.5148  -17.6893  -39.9207 C.3       6 UNK        -0.1800 
     44 N          -0.3976  -15.9660  -41.2465 N.am      6 UNK        -0.5000 
     45 C           0.3063  -15.3785  -42.2238 C.2       5 UNK         0.5000 
     46 O           1.0956  -15.9747  -42.9611 O.2       5 UNK        -0.5000 
     47 CA          0.1254  -13.8612  -42.3576 C.3       5 UNK         0.1400 
     48 CB          0.9083  -13.1206  -41.2569 C.3       5 UNK        -0.1800 
     49 N           0.5900  -13.4261  -43.6702 N.am      5 UNK        -0.5000 
     50 C           0.2035  -12.3073  -44.2960 C.2       4 UNK         0.5000 
     51 O          -0.6178  -11.5174  -43.8279 O.2       4 UNK        -0.5000 
     52 CA          0.8450  -11.9960  -45.6636 C.3       4 UNK         0.1400 
     53 CB          1.9283  -10.9164  -45.5110 C.3       4 UNK        -0.1800 
     54 N           1.4379  -13.1675  -46.3112 N.am      4 UNK        -0.5000 
     55 C           0.7378  -14.1140  -46.9475 C.2       3 UNK         0.5000 
     56 O          -0.4893  -14.0966  -47.0624 O.2       3 UNK        -0.5000 
     57 CA          1.5610  -15.2888  -47.5052 C.3       3 UNK         0.1400 
     58 CB          1.8632  -16.2963  -46.3862 C.3       3 UNK        -0.1800 
     59 N           0.8771  -15.9923  -48.5871 N.am      3 UNK        -0.5000 
     60 C           0.6972  -15.5156  -49.8307 C.2       2 UNK         0.5000 
     61 O           1.1286  -14.4225  -50.2009 O.2       2 UNK        -0.5000 
     62 CA         -0.0635  -16.3983  -50.8436 C.3       2 UNK         0.1400 
     63 CB          0.8523  -16.8516  -51.9938 C.3       2 UNK        -0.1800 
     64 N          -0.6211  -17.5742  -50.1935 N.am      2 UNK        -0.5000 
     65 C          -1.8034  -18.1490  -50.4095 C.2       1 UNK         0.5000 
     66 O          -2.5507  -17.8586  -51.3448 O.2       1 UNK        -0.5000 
     67 C          -2.3114  -22.6983  -44.0341 C.2       11 UNK         0.5000 
     68 O          -3.4274  -22.8332  -44.5336 O.2       11 UNK        -0.5000 
     69 N          -1.8597  -23.4507  -43.0168 N.am      12 UNK        -0.5000 
     70 CA         -2.6329  -24.5185  -42.3755 C.3       12 UNK         0.1400 
     71 CB         -1.9936  -24.8688  -41.0235 C.3       12 UNK        -0.1800 
     72 C          -2.7561  -25.7751  -43.2573 C.2       12 UNK         0.5000 
     73 O          -3.7538  -26.4901  -43.1612 O.2       12 UNK        -0.5000 
     74 N          -1.7538  -26.0058  -44.1161 N.am      13 UNK        -0.5000 
     75 CA         -1.7503  -27.0598  -45.1324 C.3       13 UNK         0.1400 
     76 CB         -0.2932  -27.3969  -45.4895 C.3       13 UNK        -0.1800 
     77 C          -2.5390  -26.6638  -46.3978 C.2       13 UNK         0.5000 
     78 O          -2.8280  -27.5337  -47.2200 O.2       13 UNK        -0.5000 
     79 N          -2.8541  -25.3660  -46.5323 N.am      14 UNK        -0.5000 
     80 CA         -3.4988  -24.7066  -47.6700 C.3       14 UNK         0.1400 
     81 CB         -4.9632  -25.1666  -47.8200 C.3       14 UNK        -0.1800 
     82 C          -2.6737  -24.8410  -48.9663 C.2       14 UNK         0.5000 
     83 O          -3.2241  -25.1331  -50.0303 O.2       14 UNK        -0.5000 
     84 N          -1.3529  -24.6549  -48.8368 N.am      15 UNK        -0.5000 
     85 CA         -0.3884  -24.7174  -49.9348 C.3       15 UNK         0.1400 
     86 CB          1.0112  -24.9327  -49.3340 C.3       15 UNK        -0.1800 
     87 C          -0.4306  -23.4607  -50.8322 C.2       15 UNK         0.5000 
     88 O          -1.2142  -22.5422  -50.5807 O.2       15 UNK        -0.5000 
     89 N           0.4507  -23.4403  -51.8431 N.am      16 UNK        -0.5000 
     90 CA          0.6238  -22.4051  -52.8716 C.3       16 UNK         0.1400 
     91 CB          0.8865  -21.0174  -52.2406 C.3       16 UNK        -0.1800 
     92 C          -0.5323  -22.3704  -53.8930 C.2       16 UNK         0.5000 
     93 O          -1.4888  -23.1442  -53.7955 O.2       16 UNK        -0.5000 
     94 N          -0.4176  -21.4744  -54.8819 N.am      17 UNK        -0.5000 
     95 CA         -1.4122  -21.2325  -55.9296 C.3       17 UNK         0.1400 
     96 CB         -0.7132  -20.5790  -57.1353 C.3       17 UNK        -0.1800 
     97 C          -2.5798  -20.3821  -55.3910 C.2       17 UNK         0.5000 
     98 O          -2.7747  -19.2474  -55.8290 O.2       17 UNK        -0.5000 
     99 N          -3.3116  -20.9455  -54.4212 N.am      18 UNK        -0.5000 
    100 CA        -4.3363  -20.2998  -53.5974 C.3       18 UNK         0.1400 
    101 CB        -5.0195  -21.3694  -52.7296 C.3       18 UNK        -0.1800 
    102 C         -5.3911  -19.5035  -54.3835 C.2       18 UNK         0.5000 
    103 O         -5.7113  -18.3799  -53.9997 O.2       18 UNK        -0.5000 
    104 N         -5.8870  -20.0897  -55.4809 N.am      19 UNK        -0.5000 
    105 CA        -6.9059  -19.4978  -56.3493 C.3       19 UNK         0.1400 
    106 CB        -7.4705  -20.5913  -57.2692 C.3       19 UNK        -0.1800 
    107 C         -6.3984  -18.3043  -57.1820 C.2       19 UNK         0.5000 
    108 O         -7.2011  -17.4446  -57.5474 O.2       19 UNK        -0.5000 
    109 N         -5.0922  -18.2740  -57.4770 N.am      20 UNK        -0.5000 
    110 CA        -4.4428  -17.1964  -58.2229 C.3       20 UNK         0.1400 
    111 CB        -3.2672  -17.7754  -59.0260 C.3       20 UNK        -0.1800 
    112 C         -3.9569  -16.0755  -57.2889 C.2       20 UNK         0.5000 
    113 O         -4.0103  -14.9052  -57.6691 O.2       20 UNK        -0.5000 
    114 N         -3.4768  -16.4600  -56.1002 N.am      21 UNK        -0.5000 
    115 CA        -2.9447  -15.5777  -55.0698 C.3       21 UNK         0.1400 
    116 CB        -1.8913  -16.3544  -54.2645 C.3       21 UNK        -0.1800 
    117 C         -4.0742  -14.9733  -54.2109 C.2       21 UNK         0.5000 
    118 O         -4.7023  -14.0068  -54.6466 O.2       21 UNK        -0.5000 
    119 N         -4.2932  -15.5075  -53.0008 N.am      22 UNK        -0.5000 
    120 CA        -5.2898  -15.0040  -52.0378 C.3       22 UNK         0.1400 
    121 C         -6.7762  -15.1442  -52.4811 C.2       22 UNK         0.5000 
    122 N         -7.1384  -16.1013  -53.3233 N.am      22 UNK        -0.7600 
    123 O         -7.6185  -14.3603  -52.0514 O.2       22 UNK        -0.5000 
    124 C124       -5.0842  -15.6200  -50.6320 C.3       23 UNK        -0.0398 
    125 S125       -3.5905  -14.9787  -49.7977 S.3       23 UNK        -0.2404 
    126 C126       -4.1387  -14.8947  -48.0594 C.3       23 UNK        -0.0205 
    127 H127        0.3259  -22.0686  -48.0873 H         1 UNK         0.0600 
    128 H128        1.4092  -21.0136  -47.1761 H         1 UNK         0.0600 
    129 H129        1.6314  -21.2060  -48.9202 H         1 UNK         0.0600 
    130 H130       -1.2694  -21.0984  -49.5092 H         1 UNK         0.3000 
    131 H131       -2.3586  -18.6487  -48.4511 H         1 UNK         0.0600 
    132 H132       -4.3182  -19.1933  -49.9864 H         1 UNK         0.0800 
    133 H133       -3.4042  -20.5570  -50.5798 H         1 UNK         0.0800 
    134 H134       -5.7554  -20.3038  -46.6295 H         1 UNK         0.0800 
    135 H135       -6.1343  -19.5315  -48.1511 H         1 UNK         0.0800 
    136 H136       -5.4648  -17.2617  -48.4733 H         1 UNK         0.1150 
    137 H137       -2.4480  -15.4759  -46.0106 H         1 UNK         0.1150 
    138 H138       -3.5489  -19.5848  -45.4488 H         1 UNK         0.1150 
    139 H139       -1.3683  -16.6631  -44.3384 H         1 UNK         0.0800 
    140 H140       -2.4551  -17.7242  -43.4887 H         1 UNK         0.0800 
    141 H141       -2.5104  -20.0839  -43.5833 H         1 UNK         0.0800 
    142 H142       -1.0127  -20.4667  -42.7959 H         1 UNK         0.0800 
    143 H143       -1.6672  -21.4318  -45.6379 H         1 UNK         0.0600 
    144 H144        0.6845  -21.5954  -44.0766 H         1 UNK         0.3000 
    145 H145        1.8588  -24.7326  -44.6324 H         1 UNK         0.0600 
    146 H146        3.8804  -23.8977  -45.7817 H         1 UNK         0.0600 
    147 H147        2.5536  -24.0153  -46.9183 H         1 UNK         0.0600 
    148 H148        3.0359  -22.4402  -46.2904 H         1 UNK         0.0600 
    149 H149        3.3049  -22.4281  -43.8259 H         1 UNK         0.3000 
    150 H150        1.9468  -22.0184  -40.5804 H         1 UNK         0.0600 
    151 H151        3.5424  -23.8742  -40.2939 H         1 UNK         0.0600 
    152 H152        4.3253  -22.3421  -39.9375 H         1 UNK         0.0600 
    153 H153        4.6449  -23.1661  -41.4633 H         1 UNK         0.0600 
    154 H154        2.5384  -20.0933  -41.3773 H         1 UNK         0.3000 
    155 H155        5.3168  -18.7937  -42.9740 H         1 UNK         0.0600 
    156 H156        2.5406  -18.6235  -44.2703 H         1 UNK         0.0600 
    157 H157        4.0072  -19.1408  -45.0949 H         1 UNK         0.0600 
    158 H158        3.8762  -17.4950  -44.4987 H         1 UNK         0.0600 
    159 H159        2.8620  -17.5763  -42.1155 H         1 UNK         0.3000 
    160 H160        3.2000  -17.8822  -38.6831 H         1 UNK         0.0600 
    161 H161        3.9855  -15.2876  -40.1204 H         1 UNK         0.0600 
    162 H162        4.9468  -16.0954  -38.8875 H         1 UNK         0.0600 
    163 H163        3.3838  -15.4157  -38.4668 H         1 UNK         0.0600 
    164 H164        1.6273  -16.0432  -40.1161 H         1 UNK         0.3000 
    165 H165       -0.5902  -17.9505  -41.8325 H         1 UNK         0.0600 
    166 H166       -2.4851  -17.4111  -40.3325 H         1 UNK         0.0600 
    167 H167       -1.5604  -18.7523  -39.6796 H         1 UNK         0.0600 
    168 H168       -1.3766  -17.1460  -38.9852 H         1 UNK         0.0600 
    169 H169       -1.0047  -15.3924  -40.6782 H         1 UNK         0.3000 
    170 H170       -0.9399  -13.6398  -42.2626 H         1 UNK         0.0600 
    171 H171        1.9790  -13.3178  -41.3255 H         1 UNK         0.0600 
    172 H172        0.7636  -12.0422  -41.3242 H         1 UNK         0.0600 
    173 H173        0.5802  -13.4256  -40.2626 H         1 UNK         0.0600 
    174 H174        1.2257  -14.0674  -44.1262 H         1 UNK         0.3000 
    175 H175        0.0599  -11.5986  -46.3107 H         1 UNK         0.0600 
    176 H176        2.7478  -11.2551  -44.8757 H         1 UNK         0.0600 
    177 H177        2.3455  -10.6360  -46.4784 H         1 UNK         0.0600 
    178 H178        1.5179  -10.0111  -45.0616 H         1 UNK         0.0600 
    179 H179        2.4424  -13.2532  -46.2509 H         1 UNK         0.3000 
    180 H180        2.5055  -14.9011  -47.8926 H         1 UNK         0.0600 
    181 H181        2.4598  -17.1309  -46.7550 H         1 UNK         0.0600 
    182 H182        0.9473  -16.7064  -45.9586 H         1 UNK         0.0600 
    183 H183        2.4212  -15.8300  -45.5739 H         1 UNK         0.0600 
    184 H184        0.4792  -16.8845  -48.3226 H         1 UNK         0.3000 
    185 H185       -0.8774  -15.7905  -51.2413 H         1 UNK         0.0600 
    186 H186        0.3165  -17.4848  -52.7009 H         1 UNK         0.0600 
    187 H187        1.2376  -15.9953  -52.5483 H         1 UNK         0.0600 
    188 H188        1.7071  -17.4186  -51.6232 H         1 UNK         0.0600 
    189 H189       -0.0944  -17.9436  -49.4070 H         1 UNK         0.3000 
    190 H190       -0.9097  -23.3243  -42.6807 H         1 UNK         0.3000 
    191 H191       -3.6418  -24.1455  -42.1862 H         1 UNK         0.0600 
    192 H192       -2.5880  -25.6137  -40.4931 H         1 UNK         0.0600 
    193 H193       -1.9222  -23.9915  -40.3805 H         1 UNK         0.0600 
    194 H194       -0.9901  -25.2781  -41.1457 H         1 UNK         0.0600 
    195 H195       -0.9790  -25.3591  -44.1356 H         1 UNK         0.3000 
    196 H196       -2.2160  -27.9567  -44.7185 H         1 UNK         0.0600 
    197 H197        0.2196  -26.5497  -45.9454 H         1 UNK         0.0600 
    198 H198        0.2713  -27.6964  -44.6064 H         1 UNK         0.0600 
    199 H199       -0.2477  -28.2241  -46.1989 H         1 UNK         0.0600 
    200 H200       -2.5455  -24.7424  -45.7996 H         1 UNK         0.3000 
    201 H201       -3.5120  -23.6443  -47.4268 H         1 UNK         0.0600 
    202 H202       -5.0329  -26.2158  -48.1079 H         1 UNK         0.0600 
    203 H203       -5.4770  -24.5819  -48.5839 H         1 UNK         0.0600 
    204 H204       -5.5130  -25.0357  -46.8880 H         1 UNK         0.0600 
    205 H205       -0.9860  -24.4114  -47.9234 H         1 UNK         0.3000 
    206 H206       -0.6334  -25.5810  -50.5565 H         1 UNK         0.0600 
    207 H207        1.7376  -25.1984  -50.1023 H         1 UNK         0.0600 
    208 H208        1.3736  -24.0317  -48.8422 H         1 UNK         0.0600 
    209 H209        1.0116  -25.7399  -48.6008 H         1 UNK         0.0600 
    210 H210        1.0317  -24.2565  -51.9708 H         1 UNK         0.3000 
    211 H211        1.5182  -22.6910  -53.4269 H         1 UNK         0.0600 
    212 H212        1.2657  -20.3114  -52.9797 H         1 UNK         0.0600 
    213 H213        1.6317  -21.0774  -51.4478 H         1 UNK         0.0600 
    214 H214       -0.0189  -20.5810  -51.8178 H         1 UNK         0.0600 
    215 H215        0.3857  -20.8630  -54.8906 H         1 UNK         0.3000 
    216 H216       -1.8242  -22.1880  -56.2611 H         1 UNK         0.0600 
    217 H217       -0.2831  -19.6100  -56.8784 H         1 UNK         0.0600 
    218 H218       -1.4161  -20.4209  -57.9540 H         1 UNK         0.0600 
    219 H219        0.0886  -21.2114  -57.5167 H         1 UNK         0.0600 
    220 H220       -3.0229  -21.8716  -54.1224 H         1 UNK         0.3000 
    221 H221       -3.8185  -19.5996  -52.9405 H         1 UNK         0.0600 
    222 H222       -4.2915  -21.9547  -52.1674 H         1 UNK         0.0600 
    223 H223       -5.6007  -22.0671  -53.3336 H         1 UNK         0.0600 
    224 H224       -5.6995  -20.9121  -52.0095 H         1 UNK         0.0600 
    225 H225       -5.5512  -21.0086  -55.7298 H         1 UNK         0.3000 
    226 H226       -7.7183  -19.1326  -55.7173 H         1 UNK         0.0600 
    227 H227       -6.6985  -21.0121  -57.9147 H         1 UNK         0.0600 
    228 H228       -7.9080  -21.4060  -56.6919 H         1 UNK         0.0600 
    229 H229       -8.2558  -20.1933  -57.9133 H         1 UNK         0.0600 
    230 H230       -4.4842  -18.9793  -57.0800 H         1 UNK         0.3000 
    231 H231       -5.1503  -16.7622  -58.9326 H         1 UNK         0.0600 
    232 H232       -2.5034  -18.2013  -58.3748 H         1 UNK         0.0600 
    233 H233       -2.7890  -17.0016  -59.6277 H         1 UNK         0.0600 
    234 H234       -3.6017  -18.5575  -59.7076 H         1 UNK         0.0600 
    235 H235       -3.4323  -17.4549  -55.9002 H         1 UNK         0.3000 
    236 H236       -2.4314  -14.7417  -55.5496 H         1 UNK         0.0600 
    237 H237       -1.0449  -16.6289  -54.8942 H         1 UNK         0.0600 
    238 H238       -1.5023  -15.7473  -53.4485 H         1 UNK         0.0600 
    239 H239       -2.2959  -17.2757  -53.8460 H         1 UNK         0.0600 
    240 H240       -3.7400  -16.2992  -52.6975 H         1 UNK         0.3000 
    241 H241       -5.1201  -13.9290  -51.9489 H         1 UNK         0.0600 
    242 H242       -8.1025  -16.1700  -53.6044 H         1 UNK         0.3800 
    243 H243       -6.4767  -16.8149  -53.6277 H         1 UNK         0.3800 
    244 H244       -5.0159  -16.7064  -50.7035 H         1 UNK         0.0800 
    245 H245       -5.9452  -15.4096  -49.9954 H         1 UNK         0.0800 
    246 H246       -3.5504  -14.1202  -47.5645 H         1 UNK         0.0800 
    247 H247       -5.1761  -14.5643  -47.9981 H         1 UNK         0.0800 
@<TRIPOS>BOND
     1    1    2 1    
     2    1  127 1    
     3    1  128 1    
     4    1  129 1    
     5    2    3 2    
     6    2    4 am   BACKBONE|DICT|INTERRES
     7    4    5 1    
     8    4  130 1    
     9    5    6 1    
    10    5   65 1    
    11    5  131 1    
    12    6    7 1    
    13    6  132 1    
    14    6  133 1    
    15    7    8 1    
    16    8    9 1    
    17    8  134 1    
    18    8  135 1    
    19    9   10 ar   
    20    9   14 ar   
    21   10   11 ar   
    22   10  136 1    
    23   11   12 ar   
    24   11  126 1    
    25   12   13 ar   
    26   12  137 1    
    27   13   14 ar   
    28   13   15 1    
    29   14  138 1    
    30   15   16 1    
    31   15  139 1    
    32   15  140 1    
    33   16   17 1    
    34   17   18 1    
    35   17  141 1    
    36   17  142 1    
    37   18   19 1    
    38   18   67 1    
    39   18  143 1    
    40   19   20 am   BACKBONE|DICT|INTERRES
    41   19  144 1    
    42   20   21 2    
    43   20   22 1    
    44   22   23 1    
    45   22   24 1    
    46   22  145 1    
    47   23  146 1    
    48   23  147 1    
    49   23  148 1    
    50   24   25 am   BACKBONE|DICT|INTERRES
    51   24  149 1    
    52   25   26 2    
    53   25   27 1    
    54   27   28 1    
    55   27   29 1    
    56   27  150 1    
    57   28  151 1    
    58   28  152 1    
    59   28  153 1    
    60   29   30 am   BACKBONE|DICT|INTERRES
    61   29  154 1    
    62   30   31 2    
    63   30   32 1    
    64   32   33 1    
    65   32   34 1    
    66   32  155 1    
    67   33  156 1    
    68   33  157 1    
    69   33  158 1    
    70   34   35 am   BACKBONE|DICT|INTERRES
    71   34  159 1    
    72   35   36 2    
    73   35   37 1    
    74   37   38 1    
    75   37   39 1    
    76   37  160 1    
    77   38  161 1    
    78   38  162 1    
    79   38  163 1    
    80   39   40 am   BACKBONE|DICT|INTERRES
    81   39  164 1    
    82   40   41 2    
    83   40   42 1    
    84   42   43 1    
    85   42   44 1    
    86   42  165 1    
    87   43  166 1    
    88   43  167 1    
    89   43  168 1    
    90   44   45 am   BACKBONE|DICT|INTERRES
    91   44  169 1    
    92   45   46 2    
    93   45   47 1    
    94   47   48 1    
    95   47   49 1    
    96   47  170 1    
    97   48  171 1    
    98   48  172 1    
    99   48  173 1    
   100   49   50 am   BACKBONE|DICT|INTERRES
   101   49  174 1    
   102   50   51 2    
   103   50   52 1    
   104   52   53 1    
   105   52   54 1    
   106   52  175 1    
   107   53  176 1    
   108   53  177 1    
   109   53  178 1    
   110   54   55 am   BACKBONE|DICT|INTERRES
   111   54  179 1    
   112   55   56 2    
   113   55   57 1    
   114   57   58 1    
   115   57   59 1    
   116   57  180 1    
   117   58  181 1    
   118   58  182 1    
   119   58  183 1    
   120   59   60 am   BACKBONE|DICT|INTERRES
   121   59  184 1    
   122   60   61 2    
   123   60   62 1    
   124   62   63 1    
   125   62   64 1    
   126   62  185 1    
   127   63  186 1    
   128   63  187 1    
   129   63  188 1    
   130   64   65 am   BACKBONE|DICT|INTERRES
   131   64  189 1    
   132   65   66 2    
   133   67   68 2    
   134   67   69 am   BACKBONE|DICT|INTERRES
   135   69   70 1    
   136   69  190 1    
   137   70   71 1    
   138   70   72 1    
   139   70  191 1    
   140   71  192 1    
   141   71  193 1    
   142   71  194 1    
   143   72   73 2    
   144   72   74 am   BACKBONE|DICT|INTERRES
   145   74   75 1    
   146   74  195 1    
   147   75   76 1    
   148   75   77 1    
   149   75  196 1    
   150   76  197 1    
   151   76  198 1    
   152   76  199 1    
   153   77   78 2    
   154   77   79 am   BACKBONE|DICT|INTERRES
   155   79   80 1    
   156   79  200 1    
   157   80   81 1    
   158   80   82 1    
   159   80  201 1    
   160   81  202 1    
   161   81  203 1    
   162   81  204 1    
   163   82   83 2    
   164   82   84 am   BACKBONE|DICT|INTERRES
   165   84   85 1    
   166   84  205 1    
   167   85   86 1    
   168   85   87 1    
   169   85  206 1    
   170   86  207 1    
   171   86  208 1    
   172   86  209 1    
   173   87   88 2    
   174   87   89 am   BACKBONE|DICT|INTERRES
   175   89   90 1    
   176   89  210 1    
   177   90   91 1    
   178   90   92 1    
   179   90  211 1    
   180   91  212 1    
   181   91  213 1    
   182   91  214 1    
   183   92   93 2    
   184   92   94 am   BACKBONE|DICT|INTERRES
   185   94   95 1    
   186   94  215 1    
   187   95   96 1    
   188   95   97 1    
   189   95  216 1    
   190   96  217 1    
   191   96  218 1    
   192   96  219 1    
   193   97   98 2    
   194   97   99 am   BACKBONE|DICT|INTERRES
   195   99  100 1    
   196   99  220 1    
   197  100  101 1    
   198  100  102 1    
   199  100  221 1    
   200  101  222 1    
   201  101  223 1    
   202  101  224 1    
   203  102  103 2    
   204  102  104 am   BACKBONE|DICT|INTERRES
   205  104  105 1    
   206  104  225 1    
   207  105  106 1    
   208  105  107 1    
   209  105  226 1    
   210  106  227 1    
   211  106  228 1    
   212  106  229 1    
   213  107  108 2    
   214  107  109 am   BACKBONE|DICT|INTERRES
   215  109  110 1    
   216  109  230 1    
   217  110  111 1    
   218  110  112 1    
   219  110  231 1    
   220  111  232 1    
   221  111  233 1    
   222  111  234 1    
   223  112  113 2    
   224  112  114 am   BACKBONE|DICT|INTERRES
   225  114  115 1    
   226  114  235 1    
   227  115  116 1    
   228  115  117 1    
   229  115  236 1    
   230  116  237 1    
   231  116  238 1    
   232  116  239 1    
   233  117  118 2    
   234  117  119 am   BACKBONE|DICT|INTERRES
   235  119  120 1    
   236  119  240 1    
   237  120  121 1    
   238  120  124 1    
   239  120  241 1    
   240  121  122 am   BACKBONE|DICT|INTERRES
   241  121  123 2    
   242  122  242 1    
   243  122  243 1    
   244  124  125 1    
   245  124  244 1    
   246  124  245 1    
   247  125  126 1    
   248  126  246 1    
   249  126  247 1    
@<TRIPOS>SUBSTRUCTURE
     1 UNK         1 GROUP             0       ****    0 ROOT    
