@<TRIPOS>MOLECULE
3R540
247   249    1
SMALL
USER_CHARGES


@<TRIPOS>ATOM
      1 CA         -1.4038   -7.8046  -45.0335 C.3       0 UNK        -0.1800 
      2 C          -1.5027   -8.8367  -46.1474 C.2       0 UNK         0.5000 
      3 O          -2.2316   -8.6265  -47.1180 O.2       0 UNK        -0.5000 
      4 N          -0.7665   -9.9476  -46.0219 N.am      1 UNK        -0.5000 
      5 CA         -0.7290  -11.0663  -46.9731 C.3       1 UNK         0.1400 
      6 C6         -0.3308  -12.4011  -46.2862 C.3       23 UNK        -0.0398 
      7 S7         -1.3603  -12.8089  -44.8329 S.3       23 UNK        -0.2404 
      8 C8         -2.8597  -13.4997  -45.6003 C.3       23 UNK        -0.0205 
      9 C9         -2.6702  -14.9339  -46.0712 C.ar      23 UNK        -0.0193 
     10 C10        -2.3903  -15.2065  -47.4129 C.ar      23 UNK        -0.1150 
     11 C11        -2.2684  -16.5255  -47.8593 C.ar      23 UNK        -0.0193 
     12 C12        -2.4219  -17.5765  -46.9514 C.ar      23 UNK        -0.1150 
     13 C13        -2.7058  -17.3171  -45.6080 C.ar      23 UNK        -0.0193 
     14 C14        -2.8227  -15.9939  -45.1721 C.ar      23 UNK        -0.1150 
     15 C15        -2.9292  -18.4686  -44.6423 C.3       23 UNK        -0.0205 
     16 S16        -1.3600  -19.1684  -44.0486 S.3       23 UNK        -0.2404 
     17 C17        -1.9929  -20.5805  -43.0841 C.3       23 UNK        -0.0398 
     18 CA         -2.1093  -21.8563  -43.9491 C.3       11 UNK         0.1400 
     19 N          -0.8027  -22.3828  -44.3577 N.am      11 UNK        -0.5000 
     20 C          -0.6108  -23.3879  -45.2219 C.2       10 UNK         0.5000 
     21 O          -1.5267  -23.9768  -45.7922 O.2       10 UNK        -0.5000 
     22 CA          0.8342  -23.8486  -45.4555 C.3       10 UNK         0.1400 
     23 CB          1.5733  -22.8959  -46.4074 C.3       10 UNK        -0.1800 
     24 N           1.5566  -23.9721  -44.1910 N.am      10 UNK        -0.5000 
     25 C           1.3622  -24.9666  -43.3123 C.2       9 UNK         0.5000 
     26 O           0.6053  -25.9161  -43.5132 O.2       9 UNK        -0.5000 
     27 CA          2.1225  -24.8776  -41.9755 C.3       9 UNK         0.1400 
     28 CB          3.4878  -25.5723  -42.0865 C.3       9 UNK        -0.1800 
     29 N           2.3199  -23.5017  -41.5169 N.am      9 UNK        -0.5000 
     30 C           1.3378  -22.6880  -41.1044 C.2       8 UNK         0.5000 
     31 O           0.1518  -23.0142  -41.0525 O.2       8 UNK        -0.5000 
     32 CA          1.7492  -21.2434  -40.7582 C.3       8 UNK         0.1400 
     33 CB          2.3121  -21.1655  -39.3313 C.3       8 UNK        -0.1800 
     34 N           2.7193  -20.6722  -41.7013 N.am      8 UNK        -0.5000 
     35 C           2.4978  -20.5437  -43.0153 C.2       7 UNK         0.5000 
     36 O           1.4679  -20.9344  -43.5696 O.2       7 UNK        -0.5000 
     37 CA          3.6131  -19.9291  -43.8683 C.3       7 UNK         0.1400 
     38 CB          4.6862  -20.9852  -44.1936 C.3       7 UNK        -0.1800 
     39 N           2.9851  -19.4466  -45.0918 N.am      7 UNK        -0.5000 
     40 C           3.5077  -18.6293  -46.0078 C.2       6 UNK         0.5000 
     41 O           4.6606  -18.1940  -45.9540 O.2       6 UNK        -0.5000 
     42 CA          2.5996  -18.2536  -47.2030 C.3       6 UNK         0.1400 
     43 CB          1.0923  -18.4947  -46.9553 C.3       6 UNK        -0.1800 
     44 N           2.8250  -16.8824  -47.6698 N.am      6 UNK        -0.5000 
     45 C           2.7043  -15.7522  -46.9557 C.2       5 UNK         0.5000 
     46 O           2.3422  -15.7053  -45.7793 O.2       5 UNK        -0.5000 
     47 CA          3.0585  -14.4424  -47.6846 C.3       5 UNK         0.1400 
     48 CB          4.5285  -14.0694  -47.4374 C.3       5 UNK        -0.1800 
     49 N           2.8123  -14.4887  -49.1290 N.am      5 UNK        -0.5000 
     50 C           1.5901  -14.4777  -49.6734 C.2       4 UNK         0.5000 
     51 O           0.5443  -14.4943  -49.0222 O.2       4 UNK        -0.5000 
     52 CA          1.5065  -14.4067  -51.2005 C.3       4 UNK         0.1400 
     53 CB          1.0693  -15.7570  -51.7991 C.3       4 UNK        -0.1800 
     54 N           0.5435  -13.3571  -51.5011 N.am      4 UNK        -0.5000 
     55 C           0.3245  -12.7780  -52.6842 C.2       3 UNK         0.5000 
     56 O           0.8739  -13.1149  -53.7334 O.2       3 UNK        -0.5000 
     57 CA         -0.6614  -11.5944  -52.6780 C.3       3 UNK         0.1400 
     58 CB         -2.1119  -12.0968  -52.7202 C.3       3 UNK        -0.1800 
     59 N          -0.4898  -10.7198  -51.5134 N.am      3 UNK        -0.5000 
     60 C           0.5814   -9.9423  -51.2972 C.2       2 UNK         0.5000 
     61 O           1.5390   -9.8688  -52.0683 O.2       2 UNK        -0.5000 
     62 CA          0.5847   -9.0913  -50.0137 C.3       2 UNK         0.1400 
     63 CB          0.0553   -7.6787  -50.3050 C.3       2 UNK        -0.1800 
     64 N          -0.1932   -9.6692  -48.9162 N.am      2 UNK        -0.5000 
     65 C           0.1807  -10.7203  -48.1758 C.2       1 UNK         0.5000 
     66 O           1.2120  -11.3589  -48.3861 O.2       1 UNK        -0.5000 
     67 C          -2.9762  -22.9255  -43.2545 C.2       11 UNK         0.5000 
     68 O          -4.1665  -23.0215  -43.5557 O.2       11 UNK        -0.5000 
     69 N          -2.3562  -23.7626  -42.4095 N.am      12 UNK        -0.5000 
     70 CA         -2.9793  -24.9337  -41.7826 C.3       12 UNK         0.1400 
     71 CB         -2.0071  -25.5281  -40.7525 C.3       12 UNK        -0.1800 
     72 C          -3.4260  -26.0174  -42.7885 C.2       12 UNK         0.5000 
     73 O          -4.3243  -26.7988  -42.4753 O.2       12 UNK        -0.5000 
     74 N          -2.8154  -26.0264  -43.9798 N.am      13 UNK        -0.5000 
     75 CA         -3.1365  -26.8967  -45.1088 C.3       13 UNK         0.1400 
     76 CB         -1.8205  -27.4426  -45.6922 C.3       13 UNK        -0.1800 
     77 C          -3.9788  -26.1652  -46.1767 C.2       13 UNK         0.5000 
     78 O          -3.9736  -26.5841  -47.3342 O.2       13 UNK        -0.5000 
     79 N          -4.6757  -25.0844  -45.7888 N.am      14 UNK        -0.5000 
     80 CA         -5.5482  -24.2469  -46.6218 C.3       14 UNK         0.1400 
     81 CB         -6.7810  -25.0431  -47.0999 C.3       14 UNK        -0.1800 
     82 C          -4.7824  -23.5694  -47.7760 C.2       14 UNK         0.5000 
     83 O          -5.1517  -23.7128  -48.9431 O.2       14 UNK        -0.5000 
     84 N          -3.6944  -22.8763  -47.4132 N.am      15 UNK        -0.5000 
     85 CA         -2.7220  -22.2228  -48.2973 C.3       15 UNK         0.1400 
     86 CB         -3.3625  -21.0413  -49.0540 C.3       15 UNK        -0.1800 
     87 C          -2.0281  -23.2390  -49.2261 C.2       15 UNK         0.5000 
     88 O          -1.9137  -23.0025  -50.4291 O.2       15 UNK        -0.5000 
     89 N          -1.6183  -24.3719  -48.6348 N.am      16 UNK        -0.5000 
     90 CA         -1.0238  -25.5503  -49.2737 C.3       16 UNK         0.1400 
     91 CB          0.4129  -25.2399  -49.7397 C.3       16 UNK        -0.1800 
     92 C          -1.9230  -26.1264  -50.3886 C.2       16 UNK         0.5000 
     93 O          -1.4667  -26.3297  -51.5146 O.2       16 UNK        -0.5000 
     94 N          -3.1993  -26.3480  -50.0416 N.am      17 UNK        -0.5000 
     95 CA         -4.3025  -26.7663  -50.9104 C.3       17 UNK         0.1400 
     96 CB         -4.0947  -28.2142  -51.4015 C.3       17 UNK        -0.1800 
     97 C          -4.5602  -25.7603  -52.0522 C.2       17 UNK         0.5000 
     98 O          -4.6653  -26.1549  -53.2154 O.2       17 UNK        -0.5000 
     99 N          -4.6506  -24.4743  -51.6813 N.am      18 UNK        -0.5000 
    100 CA        -4.8491  -23.3066  -52.5441 C.3       18 UNK         0.1400 
    101 CB        -6.2800  -23.2983  -53.1203 C.3       18 UNK        -0.1800 
    102 C         -3.7570  -23.1653  -53.6256 C.2       18 UNK         0.5000 
    103 O         -4.0657  -23.0363  -54.8124 O.2       18 UNK        -0.5000 
    104 N         -2.4889  -23.1909  -53.1924 N.am      19 UNK        -0.5000 
    105 CA        -1.3124  -22.9940  -54.0451 C.3       19 UNK         0.1400 
    106 CB        -0.0539  -23.4297  -53.2804 C.3       19 UNK        -0.1800 
    107 C         -1.1638  -21.5406  -54.5377 C.2       19 UNK         0.5000 
    108 O         -0.5230  -21.3088  -55.5640 O.2       19 UNK        -0.5000 
    109 N         -1.7703  -20.5992  -53.8084 N.am      20 UNK        -0.5000 
    110 CA        -1.9287  -19.1976  -54.1699 C.3       20 UNK         0.1400 
    111 CB        -1.0352  -18.3396  -53.2591 C.3       20 UNK        -0.1800 
    112 C         -3.4079  -18.8225  -53.9962 C.2       20 UNK         0.5000 
    113 O         -4.1252  -19.4842  -53.2399 O.2       20 UNK        -0.5000 
    114 N         -3.8348  -17.7607  -54.6916 N.am      21 UNK        -0.5000 
    115 CA        -5.1892  -17.2078  -54.5958 C.3       21 UNK         0.1400 
    116 CB        -5.4450  -16.2890  -55.8005 C.3       21 UNK        -0.1800 
    117 C         -5.4280  -16.4473  -53.2770 C.2       21 UNK         0.5000 
    118 O         -6.5556  -16.4312  -52.7827 O.2       21 UNK        -0.5000 
    119 N         -4.3591  -15.8411  -52.7403 N.am      22 UNK        -0.5000 
    120 CA        -4.3058  -15.1304  -51.4488 C.3       22 UNK         0.1400 
    121 C         -5.1401  -13.8137  -51.3773 C.2       22 UNK         0.5000 
    122 N         -5.5845  -13.2497  -52.4936 N.am      22 UNK        -0.7600 
    123 O         -5.3554  -13.2681  -50.2987 O.2       22 UNK        -0.5000 
    124 C124       -4.5582  -16.0618  -50.2299 C.3       23 UNK        -0.0398 
    125 S125       -3.4300  -17.4977  -50.1894 S.3       23 UNK        -0.2404 
    126 C126       -1.9809  -16.8159  -49.3239 C.3       23 UNK        -0.0205 
    127 H127       -2.3854   -7.6355  -44.5912 H         1 UNK         0.0600 
    128 H128       -1.0397   -6.8574  -45.4314 H         1 UNK         0.0600 
    129 H129       -0.7251   -8.1253  -44.2428 H         1 UNK         0.0600 
    130 H130       -0.1782  -10.0564  -45.2081 H         1 UNK         0.3000 
    131 H131       -1.7332  -11.2033  -47.3789 H         1 UNK         0.0600 
    132 H132        0.7053  -12.3585  -45.9465 H         1 UNK         0.0800 
    133 H133       -0.3796  -13.2284  -46.9928 H         1 UNK         0.0800 
    134 H134       -3.1835  -12.8640  -46.4253 H         1 UNK         0.0800 
    135 H135       -3.6672  -13.4682  -44.8675 H         1 UNK         0.0800 
    136 H136       -2.2767  -14.3919  -48.1143 H         1 UNK         0.1150 
    137 H137       -2.3330  -18.5975  -47.2945 H         1 UNK         0.1150 
    138 H138       -3.0486  -15.7872  -44.1353 H         1 UNK         0.1150 
    139 H139       -3.5225  -18.1368  -43.7889 H         1 UNK         0.0800 
    140 H140       -3.5116  -19.2463  -45.1387 H         1 UNK         0.0800 
    141 H141       -2.9577  -20.3036  -42.6548 H         1 UNK         0.0800 
    142 H142       -1.3239  -20.7525  -42.2394 H         1 UNK         0.0800 
    143 H143       -2.6386  -21.5868  -44.8650 H         1 UNK         0.0600 
    144 H144        0.0115  -21.9134  -43.9647 H         1 UNK         0.3000 
    145 H145        0.7977  -24.8309  -45.9319 H         1 UNK         0.0600 
    146 H146        1.6453  -21.8872  -46.0042 H         1 UNK         0.0600 
    147 H147        2.5848  -23.2482  -46.6094 H         1 UNK         0.0600 
    148 H148        1.0561  -22.8264  -47.3654 H         1 UNK         0.0600 
    149 H149        2.1437  -23.1961  -43.9236 H         1 UNK         0.3000 
    150 H150        1.5311  -25.4041  -41.2233 H         1 UNK         0.0600 
    151 H151        3.3732  -26.6091  -42.4057 H         1 UNK         0.0600 
    152 H152        4.0034  -25.5847  -41.1260 H         1 UNK         0.0600 
    153 H153        4.1356  -25.0756  -42.8100 H         1 UNK         0.0600 
    154 H154        3.2638  -23.1448  -41.5361 H         1 UNK         0.3000 
    155 H155        0.8478  -20.6286  -40.8011 H         1 UNK         0.0600 
    156 H156        1.6024  -21.5718  -38.6092 H         1 UNK         0.0600 
    157 H157        2.5121  -20.1336  -39.0422 H         1 UNK         0.0600 
    158 H158        3.2408  -21.7287  -39.2317 H         1 UNK         0.0600 
    159 H159        3.5911  -20.3433  -41.3118 H         1 UNK         0.3000 
    160 H160        4.0553  -19.0882  -43.3307 H         1 UNK         0.0600 
    161 H161        5.4948  -20.5619  -44.7892 H         1 UNK         0.0600 
    162 H162        4.2676  -21.8250  -44.7498 H         1 UNK         0.0600 
    163 H163        5.1347  -21.3838  -43.2829 H         1 UNK         0.0600 
    164 H164        2.0174  -19.7356  -45.1748 H         1 UNK         0.3000 
    165 H165        2.9037  -18.9050  -48.0234 H         1 UNK         0.0600 
    166 H166        0.7247  -17.9289  -46.0982 H         1 UNK         0.0600 
    167 H167        0.5054  -18.1924  -47.8214 H         1 UNK         0.0600 
    168 H168        0.8731  -19.5481  -46.7789 H         1 UNK         0.0600 
    169 H169        3.1594  -16.7945  -48.6179 H         1 UNK         0.3000 
    170 H170        2.4355  -13.6530  -47.2592 H         1 UNK         0.0600 
    171 H171        5.2088  -14.8103  -47.8590 H         1 UNK         0.0600 
    172 H172        4.7687  -13.1009  -47.8767 H         1 UNK         0.0600 
    173 H173        4.7390  -14.0014  -46.3693 H         1 UNK         0.0600 
    174 H174        3.6244  -14.4627  -49.7285 H         1 UNK         0.3000 
    175 H175        2.4790  -14.1223  -51.6070 H         1 UNK         0.0600 
    176 H176        0.0709  -16.0400  -51.4670 H         1 UNK         0.0600 
    177 H177        1.0609  -15.7271  -52.8884 H         1 UNK         0.0600 
    178 H178        1.7520  -16.5545  -51.5040 H         1 UNK         0.0600 
    179 H179        0.0628  -13.0037  -50.6840 H         1 UNK         0.3000 
    180 H180       -0.4782  -11.0048  -53.5789 H         1 UNK         0.0600 
    181 H181       -2.3759  -12.6220  -51.8028 H         1 UNK         0.0600 
    182 H182       -2.2686  -12.7838  -53.5529 H         1 UNK         0.0600 
    183 H183       -2.8125  -11.2709  -52.8448 H         1 UNK         0.0600 
    184 H184       -1.2363  -10.7045  -50.8345 H         1 UNK         0.3000 
    185 H185        1.6222   -9.0020  -49.6843 H         1 UNK         0.0600 
    186 H186        0.1291   -7.0407  -49.4240 H         1 UNK         0.0600 
    187 H187        0.6297   -7.2012  -51.1000 H         1 UNK         0.0600 
    188 H188       -0.9890   -7.6974  -50.6193 H         1 UNK         0.0600 
    189 H189       -1.0296   -9.1695  -48.6303 H         1 UNK         0.3000 
    190 H190       -1.3846  -23.5875  -42.1694 H         1 UNK         0.3000 
    191 H191       -3.8715  -24.5930  -41.2535 H         1 UNK         0.0600 
    192 H192       -1.0798  -25.8587  -41.2214 H         1 UNK         0.0600 
    193 H193       -1.7523  -24.7986  -39.9835 H         1 UNK         0.0600 
    194 H194       -2.4469  -26.3899  -40.2490 H         1 UNK         0.0600 
    195 H195       -2.1057  -25.3285  -44.1627 H         1 UNK         0.3000 
    196 H196       -3.7297  -27.7476  -44.7692 H         1 UNK         0.0600 
    197 H197       -1.2488  -27.9772  -44.9334 H         1 UNK         0.0600 
    198 H198       -1.1884  -26.6430  -46.0778 H         1 UNK         0.0600 
    199 H199       -2.0062  -28.1419  -46.5082 H         1 UNK         0.0600 
    200 H200       -4.5724  -24.7762  -44.8297 H         1 UNK         0.3000 
    201 H201       -5.9079  -23.4425  -45.9784 H         1 UNK         0.0600 
    202 H202       -7.4820  -24.3942  -47.6261 H         1 UNK         0.0600 
    203 H203       -7.3156  -25.4838  -46.2586 H         1 UNK         0.0600 
    204 H204       -6.5088  -25.8482  -47.7831 H         1 UNK         0.0600 
    205 H205       -3.4210  -22.9296  -46.4416 H         1 UNK         0.3000 
    206 H206       -1.9419  -21.8132  -47.6541 H         1 UNK         0.0600 
    207 H207       -3.8255  -20.3354  -48.3647 H         1 UNK         0.0600 
    208 H208       -4.1272  -21.3706  -49.7571 H         1 UNK         0.0600 
    209 H209       -2.6124  -20.4921  -49.6243 H         1 UNK         0.0600 
    210 H210       -1.7647  -24.4418  -47.6318 H         1 UNK         0.3000 
    211 H211       -0.9601  -26.3224  -48.5064 H         1 UNK         0.0600 
    212 H212        1.0329  -24.9103  -48.9062 H         1 UNK         0.0600 
    213 H213        0.8867  -26.1251  -50.1653 H         1 UNK         0.0600 
    214 H214        0.4329  -24.4594  -50.4996 H         1 UNK         0.0600 
    215 H215       -3.4612  -26.1979  -49.0691 H         1 UNK         0.3000 
    216 H216       -5.1979  -26.7565  -50.2870 H         1 UNK         0.0600 
    217 H217       -4.9680  -28.5680  -51.9505 H         1 UNK         0.0600 
    218 H218       -3.2346  -28.2995  -52.0662 H         1 UNK         0.0600 
    219 H219       -3.9406  -28.8948  -50.5642 H         1 UNK         0.0600 
    220 H220       -4.5892  -24.2634  -50.6879 H         1 UNK         0.3000 
    221 H221       -4.7524  -22.4318  -51.8998 H         1 UNK         0.0600 
    222 H222       -6.4503  -24.1350  -53.7985 H         1 UNK         0.0600 
    223 H223       -7.0238  -23.3534  -52.3254 H         1 UNK         0.0600 
    224 H224       -6.4690  -22.3801  -53.6778 H         1 UNK         0.0600 
    225 H225       -2.3108  -23.2794  -52.1926 H         1 UNK         0.3000 
    226 H226       -1.4164  -23.6331  -54.9242 H         1 UNK         0.0600 
    227 H227       -0.1160  -24.4765  -52.9846 H         1 UNK         0.0600 
    228 H228        0.8380  -23.3201  -53.8985 H         1 UNK         0.0600 
    229 H229        0.0946  -22.8327  -52.3799 H         1 UNK         0.0600 
    230 H230       -2.3311  -20.8946  -53.0202 H         1 UNK         0.3000 
    231 H231       -1.6506  -19.0349  -55.2133 H         1 UNK         0.0600 
    232 H232       -1.1389  -17.2792  -53.4912 H         1 UNK         0.0600 
    233 H233        0.0164  -18.5978  -53.3843 H         1 UNK         0.0600 
    234 H234       -1.2874  -18.4727  -52.2064 H         1 UNK         0.0600 
    235 H235       -3.1928  -17.2816  -55.3066 H         1 UNK         0.3000 
    236 H236       -5.9048  -18.0320  -54.6383 H         1 UNK         0.0600 
    237 H237       -5.3489  -16.8345  -56.7394 H         1 UNK         0.0600 
    238 H238       -6.4541  -15.8758  -55.7686 H         1 UNK         0.0600 
    239 H239       -4.7475  -15.4509  -55.8257 H         1 UNK         0.0600 
    240 H240       -3.4824  -15.9149  -53.2328 H         1 UNK         0.3000 
    241 H241       -3.2745  -14.7887  -51.3652 H         1 UNK         0.0600 
    242 H242       -5.4164  -13.6795  -53.3884 H         1 UNK         0.3800 
    243 H243       -6.1126  -12.3932  -52.4391 H         1 UNK         0.3800 
    244 H244       -4.4621  -15.5140  -49.2924 H         1 UNK         0.0800 
    245 H245       -5.5822  -16.4366  -50.2466 H         1 UNK         0.0800 
    246 H246       -1.1597  -17.5291  -49.3974 H         1 UNK         0.0800 
    247 H247       -1.6473  -15.9132  -49.8360 H         1 UNK         0.0800 
@<TRIPOS>BOND
     1    1    2 1    
     2    1  127 1    
     3    1  128 1    
     4    1  129 1    
     5    2    3 2    
     6    2    4 am   BACKBONE|DICT|INTERRES
     7    4    5 1    
     8    4  130 1    
     9    5    6 1    
    10    5   65 1    
    11    5  131 1    
    12    6    7 1    
    13    6  132 1    
    14    6  133 1    
    15    7    8 1    
    16    8    9 1    
    17    8  134 1    
    18    8  135 1    
    19    9   10 ar   
    20    9   14 ar   
    21   10   11 ar   
    22   10  136 1    
    23   11   12 ar   
    24   11  126 1    
    25   12   13 ar   
    26   12  137 1    
    27   13   14 ar   
    28   13   15 1    
    29   14  138 1    
    30   15   16 1    
    31   15  139 1    
    32   15  140 1    
    33   16   17 1    
    34   17   18 1    
    35   17  141 1    
    36   17  142 1    
    37   18   19 1    
    38   18   67 1    
    39   18  143 1    
    40   19   20 am   BACKBONE|DICT|INTERRES
    41   19  144 1    
    42   20   21 2    
    43   20   22 1    
    44   22   23 1    
    45   22   24 1    
    46   22  145 1    
    47   23  146 1    
    48   23  147 1    
    49   23  148 1    
    50   24   25 am   BACKBONE|DICT|INTERRES
    51   24  149 1    
    52   25   26 2    
    53   25   27 1    
    54   27   28 1    
    55   27   29 1    
    56   27  150 1    
    57   28  151 1    
    58   28  152 1    
    59   28  153 1    
    60   29   30 am   BACKBONE|DICT|INTERRES
    61   29  154 1    
    62   30   31 2    
    63   30   32 1    
    64   32   33 1    
    65   32   34 1    
    66   32  155 1    
    67   33  156 1    
    68   33  157 1    
    69   33  158 1    
    70   34   35 am   BACKBONE|DICT|INTERRES
    71   34  159 1    
    72   35   36 2    
    73   35   37 1    
    74   37   38 1    
    75   37   39 1    
    76   37  160 1    
    77   38  161 1    
    78   38  162 1    
    79   38  163 1    
    80   39   40 am   BACKBONE|DICT|INTERRES
    81   39  164 1    
    82   40   41 2    
    83   40   42 1    
    84   42   43 1    
    85   42   44 1    
    86   42  165 1    
    87   43  166 1    
    88   43  167 1    
    89   43  168 1    
    90   44   45 am   BACKBONE|DICT|INTERRES
    91   44  169 1    
    92   45   46 2    
    93   45   47 1    
    94   47   48 1    
    95   47   49 1    
    96   47  170 1    
    97   48  171 1    
    98   48  172 1    
    99   48  173 1    
   100   49   50 am   BACKBONE|DICT|INTERRES
   101   49  174 1    
   102   50   51 2    
   103   50   52 1    
   104   52   53 1    
   105   52   54 1    
   106   52  175 1    
   107   53  176 1    
   108   53  177 1    
   109   53  178 1    
   110   54   55 am   BACKBONE|DICT|INTERRES
   111   54  179 1    
   112   55   56 2    
   113   55   57 1    
   114   57   58 1    
   115   57   59 1    
   116   57  180 1    
   117   58  181 1    
   118   58  182 1    
   119   58  183 1    
   120   59   60 am   BACKBONE|DICT|INTERRES
   121   59  184 1    
   122   60   61 2    
   123   60   62 1    
   124   62   63 1    
   125   62   64 1    
   126   62  185 1    
   127   63  186 1    
   128   63  187 1    
   129   63  188 1    
   130   64   65 am   BACKBONE|DICT|INTERRES
   131   64  189 1    
   132   65   66 2    
   133   67   68 2    
   134   67   69 am   BACKBONE|DICT|INTERRES
   135   69   70 1    
   136   69  190 1    
   137   70   71 1    
   138   70   72 1    
   139   70  191 1    
   140   71  192 1    
   141   71  193 1    
   142   71  194 1    
   143   72   73 2    
   144   72   74 am   BACKBONE|DICT|INTERRES
   145   74   75 1    
   146   74  195 1    
   147   75   76 1    
   148   75   77 1    
   149   75  196 1    
   150   76  197 1    
   151   76  198 1    
   152   76  199 1    
   153   77   78 2    
   154   77   79 am   BACKBONE|DICT|INTERRES
   155   79   80 1    
   156   79  200 1    
   157   80   81 1    
   158   80   82 1    
   159   80  201 1    
   160   81  202 1    
   161   81  203 1    
   162   81  204 1    
   163   82   83 2    
   164   82   84 am   BACKBONE|DICT|INTERRES
   165   84   85 1    
   166   84  205 1    
   167   85   86 1    
   168   85   87 1    
   169   85  206 1    
   170   86  207 1    
   171   86  208 1    
   172   86  209 1    
   173   87   88 2    
   174   87   89 am   BACKBONE|DICT|INTERRES
   175   89   90 1    
   176   89  210 1    
   177   90   91 1    
   178   90   92 1    
   179   90  211 1    
   180   91  212 1    
   181   91  213 1    
   182   91  214 1    
   183   92   93 2    
   184   92   94 am   BACKBONE|DICT|INTERRES
   185   94   95 1    
   186   94  215 1    
   187   95   96 1    
   188   95   97 1    
   189   95  216 1    
   190   96  217 1    
   191   96  218 1    
   192   96  219 1    
   193   97   98 2    
   194   97   99 am   BACKBONE|DICT|INTERRES
   195   99  100 1    
   196   99  220 1    
   197  100  101 1    
   198  100  102 1    
   199  100  221 1    
   200  101  222 1    
   201  101  223 1    
   202  101  224 1    
   203  102  103 2    
   204  102  104 am   BACKBONE|DICT|INTERRES
   205  104  105 1    
   206  104  225 1    
   207  105  106 1    
   208  105  107 1    
   209  105  226 1    
   210  106  227 1    
   211  106  228 1    
   212  106  229 1    
   213  107  108 2    
   214  107  109 am   BACKBONE|DICT|INTERRES
   215  109  110 1    
   216  109  230 1    
   217  110  111 1    
   218  110  112 1    
   219  110  231 1    
   220  111  232 1    
   221  111  233 1    
   222  111  234 1    
   223  112  113 2    
   224  112  114 am   BACKBONE|DICT|INTERRES
   225  114  115 1    
   226  114  235 1    
   227  115  116 1    
   228  115  117 1    
   229  115  236 1    
   230  116  237 1    
   231  116  238 1    
   232  116  239 1    
   233  117  118 2    
   234  117  119 am   BACKBONE|DICT|INTERRES
   235  119  120 1    
   236  119  240 1    
   237  120  121 1    
   238  120  124 1    
   239  120  241 1    
   240  121  122 am   BACKBONE|DICT|INTERRES
   241  121  123 2    
   242  122  242 1    
   243  122  243 1    
   244  124  125 1    
   245  124  244 1    
   246  124  245 1    
   247  125  126 1    
   248  126  246 1    
   249  126  247 1    
@<TRIPOS>SUBSTRUCTURE
     1 UNK         1 GROUP             0       ****    0 ROOT    
