@<TRIPOS>MOLECULE
3R540
247   249    1
SMALL
USER_CHARGES


@<TRIPOS>ATOM
      1 CA          7.0912  -14.4790  -47.6758 C.3       0 UNK        -0.1800 
      2 C           5.9651  -13.4735  -47.4844 C.2       0 UNK         0.5000 
      3 O           5.9852  -12.4091  -48.1006 O.2       0 UNK        -0.5000 
      4 N           4.9930  -13.8071  -46.6234 N.am      1 UNK        -0.5000 
      5 CA          3.7793  -13.0339  -46.3063 C.3       1 UNK         0.1400 
      6 C6          2.8623  -12.7759  -47.5360 C.3       23 UNK        -0.0398 
      7 S7          1.9595  -14.2803  -48.0262 S.3       23 UNK        -0.2404 
      8 C8          2.9575  -14.8847  -49.4202 C.3       23 UNK        -0.0205 
      9 C9          2.3135  -16.0944  -50.0830 C.ar      23 UNK        -0.0193 
     10 C10         1.2033  -15.9220  -50.9137 C.ar      23 UNK        -0.1150 
     11 C11         0.6058  -17.0154  -51.5496 C.ar      23 UNK        -0.0193 
     12 C12         1.1495  -18.2911  -51.3656 C.ar      23 UNK        -0.1150 
     13 C13         2.2767  -18.4768  -50.5574 C.ar      23 UNK        -0.0193 
     14 C14         2.8430  -17.3765  -49.9040 C.ar      23 UNK        -0.1150 
     15 C15         2.9291  -19.8502  -50.4513 C.3       23 UNK        -0.0205 
     16 S16         2.4704  -20.7453  -48.9354 S.3       23 UNK        -0.2404 
     17 C17         0.7401  -21.1895  -49.2921 C.3       23 UNK        -0.0398 
     18 CA          0.1732  -22.2360  -48.3022 C.3       11 UNK         0.1400 
     19 N           0.0542  -21.7258  -46.9321 N.am      11 UNK        -0.5000 
     20 C          -0.2891  -22.4603  -45.8639 C.2       10 UNK         0.5000 
     21 O          -0.5030  -23.6715  -45.9085 O.2       10 UNK        -0.5000 
     22 CA         -0.4759  -21.7147  -44.5288 C.3       10 UNK         0.1400 
     23 CB          0.8756  -21.4172  -43.8626 C.3       10 UNK        -0.1800 
     24 N          -1.2435  -20.4775  -44.6770 N.am      10 UNK        -0.5000 
     25 C          -2.5262  -20.4274  -45.0651 C.2       9 UNK         0.5000 
     26 O          -3.2114  -21.4234  -45.2930 O.2       9 UNK        -0.5000 
     27 CA         -3.1345  -19.0314  -45.2864 C.3       9 UNK         0.1400 
     28 CB         -3.5942  -18.4081  -43.9600 C.3       9 UNK        -0.1800 
     29 N          -2.2092  -18.1257  -45.9642 N.am      9 UNK        -0.5000 
     30 C          -1.7618  -18.3023  -47.2158 C.2       8 UNK         0.5000 
     31 O          -2.1132  -19.2264  -47.9480 O.2       8 UNK        -0.5000 
     32 CA         -0.7000  -17.3041  -47.7031 C.3       8 UNK         0.1400 
     33 CB         -1.3716  -15.9942  -48.1418 C.3       8 UNK        -0.1800 
     34 N           0.3190  -17.0366  -46.6831 N.am      8 UNK        -0.5000 
     35 C           1.1423  -17.9714  -46.1835 C.2       7 UNK         0.5000 
     36 O           1.1214  -19.1470  -46.5325 O.2       7 UNK        -0.5000 
     37 CA          2.1018  -17.5576  -45.0538 C.3       7 UNK         0.1400 
     38 CB          3.4079  -16.9844  -45.6202 C.3       7 UNK        -0.1800 
     39 N           1.5011  -16.6094  -44.1171 N.am      7 UNK        -0.5000 
     40 C           0.4421  -16.8818  -43.3402 C.2       6 UNK         0.5000 
     41 O          -0.1133  -17.9808  -43.3055 O.2       6 UNK        -0.5000 
     42 CA         -0.1100  -15.7220  -42.4886 C.3       6 UNK         0.1400 
     43 CB          0.4805  -15.7720  -41.0725 C.3       6 UNK        -0.1800 
     44 N           0.1328  -14.3999  -43.0798 N.am      6 UNK        -0.5000 
     45 C          -0.4085  -13.9874  -44.2378 C.2       5 UNK         0.5000 
     46 O          -1.1639  -14.6949  -44.9051 O.2       5 UNK        -0.5000 
     47 CA         -0.0093  -12.5940  -44.7738 C.3       5 UNK         0.1400 
     48 CB         -1.1326  -11.9261  -45.5927 C.3       5 UNK        -0.1800 
     49 N           0.5272  -11.6744  -43.7648 N.am      5 UNK        -0.5000 
     50 C          -0.1100  -11.1883  -42.6892 C.2       4 UNK         0.5000 
     51 O          -1.2866  -11.4387  -42.4215 O.2       4 UNK        -0.5000 
     52 CA          0.7241  -10.2898  -41.7462 C.3       4 UNK         0.1400 
     53 CB          0.0820  -10.1425  -40.3511 C.3       4 UNK        -0.1800 
     54 N           2.1285  -10.7008  -41.6030 N.am      4 UNK        -0.5000 
     55 C           2.5940  -11.9067  -41.2459 C.2       3 UNK         0.5000 
     56 O           1.8754  -12.8945  -41.0909 O.2       3 UNK        -0.5000 
     57 CA          4.1234  -12.0296  -41.0760 C.3       3 UNK         0.1400 
     58 CB          4.5552  -13.4349  -40.6178 C.3       3 UNK        -0.1800 
     59 N           4.8235  -11.7105  -42.3190 N.am      3 UNK        -0.5000 
     60 C           5.0694  -10.4805  -42.7898 C.2       2 UNK         0.5000 
     61 O           4.7826   -9.4483  -42.1821 O.2       2 UNK        -0.5000 
     62 CA          5.6872  -10.3946  -44.1997 C.3       2 UNK         0.1400 
     63 CB          7.2201  -10.3436  -44.1168 C.3       2 UNK        -0.1800 
     64 N           5.2891  -11.5067  -45.0690 N.am      2 UNK        -0.5000 
     65 C           4.0355  -11.7535  -45.4775 C.2       1 UNK         0.5000 
     66 O           3.0769  -11.0487  -45.1563 O.2       1 UNK        -0.5000 
     67 C          -1.1670  -22.7945  -48.8184 C.2       11 UNK         0.5000 
     68 O          -1.1899  -23.9044  -49.3507 O.2       11 UNK        -0.5000 
     69 N          -2.2593  -22.0426  -48.6181 N.am      12 UNK        -0.5000 
     70 CA         -3.6182  -22.4512  -48.9732 C.3       12 UNK         0.1400 
     71 CB         -4.5897  -21.2873  -48.7339 C.3       12 UNK        -0.1800 
     72 C          -4.0756  -23.7074  -48.2123 C.2       12 UNK         0.5000 
     73 O          -4.6483  -24.6054  -48.8271 O.2       12 UNK        -0.5000 
     74 N          -3.7858  -23.7693  -46.9043 N.am      13 UNK        -0.5000 
     75 CA         -4.0710  -24.9186  -46.0447 C.3       13 UNK         0.1400 
     76 CB         -3.7997  -24.5559  -44.5772 C.3       13 UNK        -0.1800 
     77 C          -3.2846  -26.1766  -46.4525 C.2       13 UNK         0.5000 
     78 O          -3.8736  -27.2550  -46.5296 O.2       13 UNK        -0.5000 
     79 N          -1.9875  -26.0160  -46.7533 N.am      14 UNK        -0.5000 
     80 CA         -1.1073  -27.0809  -47.2447 C.3       14 UNK         0.1400 
     81 CB          0.3378  -26.5641  -47.3066 C.3       14 UNK        -0.1800 
     82 C          -1.5450  -27.6393  -48.6127 C.2       14 UNK         0.5000 
     83 O          -1.4432  -28.8447  -48.8423 O.2       14 UNK        -0.5000 
     84 N          -2.0637  -26.7576  -49.4756 N.am      15 UNK        -0.5000 
     85 CA         -2.6531  -27.0851  -50.7735 C.3       15 UNK         0.1400 
     86 CB         -2.5420  -25.8471  -51.6744 C.3       15 UNK        -0.1800 
     87 C          -4.1181  -27.5666  -50.6850 C.2       15 UNK         0.5000 
     88 O          -4.7189  -27.8359  -51.7258 O.2       15 UNK        -0.5000 
     89 N          -4.6860  -27.6384  -49.4699 N.am      16 UNK        -0.5000 
     90 CA         -6.0632  -28.0365  -49.1480 C.3       16 UNK         0.1400 
     91 CB         -6.2561  -29.5454  -49.4035 C.3       16 UNK        -0.1800 
     92 C          -7.1353  -27.1697  -49.8469 C.2       16 UNK         0.5000 
     93 O          -8.2067  -27.6699  -50.1930 O.2       16 UNK        -0.5000 
     94 N          -6.8042  -25.8888  -50.0664 N.am      17 UNK        -0.5000 
     95 CA         -7.5605  -24.8578  -50.7837 C.3       17 UNK         0.1400 
     96 CB         -8.8728  -24.5271  -50.0447 C.3       17 UNK        -0.1800 
     97 C          -7.7874  -25.1452  -52.2859 C.2       17 UNK         0.5000 
     98 O          -8.5498  -24.4187  -52.9253 O.2       17 UNK        -0.5000 
     99 N          -7.1149  -26.1637  -52.8441 N.am      18 UNK        -0.5000 
    100 CA        -7.1670  -26.5071  -54.2688 C.3       18 UNK         0.1400 
    101 CB        -6.7717  -27.9812  -54.4457 C.3       18 UNK        -0.1800 
    102 C         -6.2643  -25.5975  -55.1252 C.2       18 UNK         0.5000 
    103 O         -6.4514  -25.5202  -56.3401 O.2       18 UNK        -0.5000 
    104 N         -5.3115  -24.9237  -54.4755 N.am      19 UNK        -0.5000 
    105 CA        -4.3869  -23.9484  -55.0323 C.3       19 UNK         0.1400 
    106 CB        -3.1955  -24.6736  -55.6860 C.3       19 UNK        -0.1800 
    107 C         -3.9348  -23.0254  -53.8898 C.2       19 UNK         0.5000 
    108 O         -4.2818  -23.2701  -52.7312 O.2       19 UNK        -0.5000 
    109 N         -3.1748  -21.9784  -54.2388 N.am      20 UNK        -0.5000 
    110 CA        -2.5053  -21.0240  -53.3408 C.3       20 UNK         0.1400 
    111 CB        -1.4287  -21.7386  -52.5002 C.3       20 UNK        -0.1800 
    112 C         -3.4384  -20.1620  -52.4614 C.2       20 UNK         0.5000 
    113 O         -2.9516  -19.4423  -51.5895 O.2       20 UNK        -0.5000 
    114 N         -4.7512  -20.2003  -52.7221 N.am      21 UNK        -0.5000 
    115 CA        -5.7890  -19.4382  -52.0276 C.3       21 UNK         0.1400 
    116 CB        -7.1262  -20.1871  -52.1731 C.3       21 UNK        -0.1800 
    117 C         -5.8508  -17.9806  -52.5307 C.2       21 UNK         0.5000 
    118 O         -6.8833  -17.5362  -53.0356 O.2       21 UNK        -0.5000 
    119 N         -4.7227  -17.2732  -52.4097 N.am      22 UNK        -0.5000 
    120 CA        -4.5329  -15.8792  -52.8380 C.3       22 UNK         0.1400 
    121 C         -5.1699  -14.8040  -51.9066 C.2       22 UNK         0.5000 
    122 N         -5.6772  -15.1537  -50.7305 N.am      22 UNK        -0.7600 
    123 O         -5.2211  -13.6311  -52.2677 O.2       22 UNK        -0.5000 
    124 C124       -3.0422  -15.5809  -53.1462 C.3       23 UNK        -0.0398 
    125 S125       -1.9236  -15.8440  -51.7243 S.3       23 UNK        -0.2404 
    126 C126       -0.5809  -16.8120  -52.4863 C.3       23 UNK        -0.0205 
    127 H127        8.0457  -14.0316  -47.3986 H         1 UNK         0.0600 
    128 H128        6.9451  -15.3733  -47.0694 H         1 UNK         0.0600 
    129 H129        7.1466  -14.7835  -48.7209 H         1 UNK         0.0600 
    130 H130        5.0696  -14.6910  -46.1409 H         1 UNK         0.3000 
    131 H131        3.2198  -13.6651  -45.6145 H         1 UNK         0.0600 
    132 H132        2.1001  -12.0268  -47.3169 H         1 UNK         0.0800 
    133 H133        3.4190  -12.3748  -48.3827 H         1 UNK         0.0800 
    134 H134        3.0748  -14.0890  -50.1572 H         1 UNK         0.0800 
    135 H135        3.9589  -15.1323  -49.0669 H         1 UNK         0.0800 
    136 H136        0.8020  -14.9297  -51.0644 H         1 UNK         0.1150 
    137 H137        0.7144  -19.1373  -51.8776 H         1 UNK         0.1150 
    138 H138        3.7133  -17.5170  -49.2784 H         1 UNK         0.1150 
    139 H139        2.6849  -20.4594  -51.3229 H         1 UNK         0.0800 
    140 H140        4.0135  -19.7317  -50.4662 H         1 UNK         0.0800 
    141 H141        0.7141  -21.5840  -50.3085 H         1 UNK         0.0800 
    142 H142        0.1325  -20.2828  -49.2899 H         1 UNK         0.0800 
    143 H143        0.8708  -23.0758  -48.2690 H         1 UNK         0.0600 
    144 H144        0.2808  -20.7414  -46.7997 H         1 UNK         0.3000 
    145 H145       -1.0387  -22.3704  -43.8612 H         1 UNK         0.0600 
    146 H146        0.7418  -20.9124  -42.9056 H         1 UNK         0.0600 
    147 H147        1.4245  -22.3400  -43.6714 H         1 UNK         0.0600 
    148 H148        1.5069  -20.7870  -44.4878 H         1 UNK         0.0600 
    149 H149       -0.7578  -19.6088  -44.4836 H         1 UNK         0.3000 
    150 H150       -4.0117  -19.1500  -45.9259 H         1 UNK         0.0600 
    151 H151       -4.3186  -19.0519  -43.4596 H         1 UNK         0.0600 
    152 H152       -4.0748  -17.4434  -44.1231 H         1 UNK         0.0600 
    153 H153       -2.7626  -18.2560  -43.2720 H         1 UNK         0.0600 
    154 H154       -1.8446  -17.3516  -45.4267 H         1 UNK         0.3000 
    155 H155       -0.2030  -17.7419  -48.5715 H         1 UNK         0.0600 
    156 H156       -0.6715  -15.3414  -48.6599 H         1 UNK         0.0600 
    157 H157       -1.7884  -15.4443  -47.2993 H         1 UNK         0.0600 
    158 H158       -2.1929  -16.1935  -48.8303 H         1 UNK         0.0600 
    159 H159        0.3610  -16.0954  -46.3207 H         1 UNK         0.3000 
    160 H160        2.3523  -18.4587  -44.4903 H         1 UNK         0.0600 
    161 H161        3.2312  -16.0772  -46.1930 H         1 UNK         0.0600 
    162 H162        3.8878  -17.7013  -46.2880 H         1 UNK         0.0600 
    163 H163        4.1173  -16.7536  -44.8254 H         1 UNK         0.0600 
    164 H164        1.8981  -15.6838  -44.0757 H         1 UNK         0.3000 
    165 H165       -1.1905  -15.8599  -42.4105 H         1 UNK         0.0600 
    166 H166        1.5630  -15.6384  -41.0831 H         1 UNK         0.0600 
    167 H167        0.0529  -14.9943  -40.4393 H         1 UNK         0.0600 
    168 H168        0.2724  -16.7306  -40.5955 H         1 UNK         0.0600 
    169 H169        0.7239  -13.7679  -42.5486 H         1 UNK         0.3000 
    170 H170        0.8133  -12.7836  -45.4604 H         1 UNK         0.0600 
    171 H171       -1.4140  -12.5427  -46.4475 H         1 UNK         0.0600 
    172 H172       -2.0307  -11.7673  -44.9955 H         1 UNK         0.0600 
    173 H173       -0.8131  -10.9605  -45.9847 H         1 UNK         0.0600 
    174 H174        1.4876  -11.3840  -43.9195 H         1 UNK         0.3000 
    175 H175        0.7400   -9.3022  -42.2091 H         1 UNK         0.0600 
    176 H176        0.6685   -9.4796  -39.7150 H         1 UNK         0.0600 
    177 H177       -0.9201   -9.7178  -40.4208 H         1 UNK         0.0600 
    178 H178       -0.0030  -11.1047  -39.8445 H         1 UNK         0.0600 
    179 H179        2.8193   -9.9748  -41.7625 H         1 UNK         0.3000 
    180 H180        4.4239  -11.3192  -40.3030 H         1 UNK         0.0600 
    181 H181        4.2893  -14.1988  -41.3497 H         1 UNK         0.0600 
    182 H182        4.0768  -13.7028  -39.6747 H         1 UNK         0.0600 
    183 H183        5.6325  -13.4836  -40.4585 H         1 UNK         0.0600 
    184 H184        5.0761  -12.4948  -42.9012 H         1 UNK         0.3000 
    185 H185        5.3364   -9.4674  -44.6576 H         1 UNK         0.0600 
    186 H186        7.6640  -10.2080  -45.1033 H         1 UNK         0.0600 
    187 H187        7.5499   -9.5095  -43.4958 H         1 UNK         0.0600 
    188 H188        7.6314  -11.2571  -43.6854 H         1 UNK         0.0600 
    189 H189        6.0211  -12.1289  -45.3787 H         1 UNK         0.3000 
    190 H190       -2.1577  -21.1157  -48.2111 H         1 UNK         0.3000 
    191 H191       -3.6258  -22.6845  -50.0399 H         1 UNK         0.0600 
    192 H192       -4.2710  -20.3966  -49.2739 H         1 UNK         0.0600 
    193 H193       -5.5935  -21.5395  -49.0780 H         1 UNK         0.0600 
    194 H194       -4.6557  -21.0268  -47.6772 H         1 UNK         0.0600 
    195 H195       -3.3556  -22.9647  -46.4566 H         1 UNK         0.3000 
    196 H196       -5.1339  -25.1485  -46.1431 H         1 UNK         0.0600 
    197 H197       -4.0117  -25.3999  -43.9197 H         1 UNK         0.0600 
    198 H198       -4.4295  -23.7268  -44.2545 H         1 UNK         0.0600 
    199 H199       -2.7605  -24.2674  -44.4180 H         1 UNK         0.0600 
    200 H200       -1.5634  -25.1004  -46.6250 H         1 UNK         0.3000 
    201 H201       -1.1449  -27.9016  -46.5256 H         1 UNK         0.0600 
    202 H202        0.6843  -26.2455  -46.3233 H         1 UNK         0.0600 
    203 H203        0.4326  -25.7155  -47.9849 H         1 UNK         0.0600 
    204 H204        1.0177  -27.3424  -47.6551 H         1 UNK         0.0600 
    205 H205       -2.0528  -25.7736  -49.2260 H         1 UNK         0.3000 
    206 H206       -2.0778  -27.8912  -51.2330 H         1 UNK         0.0600 
    207 H207       -1.5022  -25.5539  -51.8195 H         1 UNK         0.0600 
    208 H208       -2.9693  -26.0305  -52.6604 H         1 UNK         0.0600 
    209 H209       -3.0672  -24.9982  -51.2369 H         1 UNK         0.0600 
    210 H210       -4.1256  -27.3648  -48.6720 H         1 UNK         0.3000 
    211 H211       -6.1871  -27.8632  -48.0783 H         1 UNK         0.0600 
    212 H212       -6.2018  -29.7856  -50.4658 H         1 UNK         0.0600 
    213 H213       -7.2269  -29.8843  -49.0401 H         1 UNK         0.0600 
    214 H214       -5.4958  -30.1319  -48.8875 H         1 UNK         0.0600 
    215 H215       -5.9064  -25.5713  -49.7014 H         1 UNK         0.3000 
    216 H216       -6.9340  -23.9650  -50.7500 H         1 UNK         0.0600 
    217 H217       -8.6868  -24.3006  -48.9948 H         1 UNK         0.0600 
    218 H218       -9.5831  -25.3529  -50.0903 H         1 UNK         0.0600 
    219 H219       -9.3596  -23.6542  -50.4810 H         1 UNK         0.0600 
    220 H220       -6.4905  -26.7182  -52.2689 H         1 UNK         0.3000 
    221 H221       -8.1927  -26.3877  -54.6239 H         1 UNK         0.0600 
    222 H222       -5.7313  -28.1557  -54.1701 H         1 UNK         0.0600 
    223 H223       -7.3954  -28.6345  -53.8352 H         1 UNK         0.0600 
    224 H224       -6.8905  -28.2936  -55.4839 H         1 UNK         0.0600 
    225 H225       -5.2645  -24.9941  -53.4664 H         1 UNK         0.3000 
    226 H226       -4.9065  -23.3416  -55.7766 H         1 UNK         0.0600 
    227 H227       -3.5272  -25.3460  -56.4773 H         1 UNK         0.0600 
    228 H228       -2.4997  -23.9662  -56.1380 H         1 UNK         0.0600 
    229 H229       -2.6369  -25.2646  -54.9596 H         1 UNK         0.0600 
    230 H230       -2.9769  -21.8459  -55.2212 H         1 UNK         0.3000 
    231 H231       -1.9895  -20.3165  -53.9914 H         1 UNK         0.0600 
    232 H232       -0.8556  -21.0204  -51.9152 H         1 UNK         0.0600 
    233 H233       -0.7238  -22.2765  -53.1339 H         1 UNK         0.0600 
    234 H234       -1.8659  -22.4540  -51.8038 H         1 UNK         0.0600 
    235 H235       -5.0627  -20.8030  -53.4683 H         1 UNK         0.3000 
    236 H236       -5.5496  -19.3973  -50.9640 H         1 UNK         0.0600 
    237 H237       -7.9237  -19.6729  -51.6352 H         1 UNK         0.0600 
    238 H238       -7.4316  -20.2693  -53.2170 H         1 UNK         0.0600 
    239 H239       -7.0584  -21.1958  -51.7642 H         1 UNK         0.0600 
    240 H240       -3.9179  -17.7263  -51.9870 H         1 UNK         0.3000 
    241 H241       -5.0648  -15.7701  -53.7851 H         1 UNK         0.0600 
    242 H242       -5.6374  -16.1111  -50.4217 H         1 UNK         0.3800 
    243 H243       -6.0935  -14.4509  -50.1403 H         1 UNK         0.3800 
    244 H244       -2.7199  -16.2129  -53.9747 H         1 UNK         0.0800 
    245 H245       -2.9183  -14.5555  -53.4987 H         1 UNK         0.0800 
    246 H246       -0.9841  -17.7724  -52.8110 H         1 UNK         0.0800 
    247 H247       -0.2296  -16.2979  -53.3820 H         1 UNK         0.0800 
@<TRIPOS>BOND
     1    1    2 1    
     2    1  127 1    
     3    1  128 1    
     4    1  129 1    
     5    2    3 2    
     6    2    4 am   BACKBONE|DICT|INTERRES
     7    4    5 1    
     8    4  130 1    
     9    5    6 1    
    10    5   65 1    
    11    5  131 1    
    12    6    7 1    
    13    6  132 1    
    14    6  133 1    
    15    7    8 1    
    16    8    9 1    
    17    8  134 1    
    18    8  135 1    
    19    9   10 ar   
    20    9   14 ar   
    21   10   11 ar   
    22   10  136 1    
    23   11   12 ar   
    24   11  126 1    
    25   12   13 ar   
    26   12  137 1    
    27   13   14 ar   
    28   13   15 1    
    29   14  138 1    
    30   15   16 1    
    31   15  139 1    
    32   15  140 1    
    33   16   17 1    
    34   17   18 1    
    35   17  141 1    
    36   17  142 1    
    37   18   19 1    
    38   18   67 1    
    39   18  143 1    
    40   19   20 am   BACKBONE|DICT|INTERRES
    41   19  144 1    
    42   20   21 2    
    43   20   22 1    
    44   22   23 1    
    45   22   24 1    
    46   22  145 1    
    47   23  146 1    
    48   23  147 1    
    49   23  148 1    
    50   24   25 am   BACKBONE|DICT|INTERRES
    51   24  149 1    
    52   25   26 2    
    53   25   27 1    
    54   27   28 1    
    55   27   29 1    
    56   27  150 1    
    57   28  151 1    
    58   28  152 1    
    59   28  153 1    
    60   29   30 am   BACKBONE|DICT|INTERRES
    61   29  154 1    
    62   30   31 2    
    63   30   32 1    
    64   32   33 1    
    65   32   34 1    
    66   32  155 1    
    67   33  156 1    
    68   33  157 1    
    69   33  158 1    
    70   34   35 am   BACKBONE|DICT|INTERRES
    71   34  159 1    
    72   35   36 2    
    73   35   37 1    
    74   37   38 1    
    75   37   39 1    
    76   37  160 1    
    77   38  161 1    
    78   38  162 1    
    79   38  163 1    
    80   39   40 am   BACKBONE|DICT|INTERRES
    81   39  164 1    
    82   40   41 2    
    83   40   42 1    
    84   42   43 1    
    85   42   44 1    
    86   42  165 1    
    87   43  166 1    
    88   43  167 1    
    89   43  168 1    
    90   44   45 am   BACKBONE|DICT|INTERRES
    91   44  169 1    
    92   45   46 2    
    93   45   47 1    
    94   47   48 1    
    95   47   49 1    
    96   47  170 1    
    97   48  171 1    
    98   48  172 1    
    99   48  173 1    
   100   49   50 am   BACKBONE|DICT|INTERRES
   101   49  174 1    
   102   50   51 2    
   103   50   52 1    
   104   52   53 1    
   105   52   54 1    
   106   52  175 1    
   107   53  176 1    
   108   53  177 1    
   109   53  178 1    
   110   54   55 am   BACKBONE|DICT|INTERRES
   111   54  179 1    
   112   55   56 2    
   113   55   57 1    
   114   57   58 1    
   115   57   59 1    
   116   57  180 1    
   117   58  181 1    
   118   58  182 1    
   119   58  183 1    
   120   59   60 am   BACKBONE|DICT|INTERRES
   121   59  184 1    
   122   60   61 2    
   123   60   62 1    
   124   62   63 1    
   125   62   64 1    
   126   62  185 1    
   127   63  186 1    
   128   63  187 1    
   129   63  188 1    
   130   64   65 am   BACKBONE|DICT|INTERRES
   131   64  189 1    
   132   65   66 2    
   133   67   68 2    
   134   67   69 am   BACKBONE|DICT|INTERRES
   135   69   70 1    
   136   69  190 1    
   137   70   71 1    
   138   70   72 1    
   139   70  191 1    
   140   71  192 1    
   141   71  193 1    
   142   71  194 1    
   143   72   73 2    
   144   72   74 am   BACKBONE|DICT|INTERRES
   145   74   75 1    
   146   74  195 1    
   147   75   76 1    
   148   75   77 1    
   149   75  196 1    
   150   76  197 1    
   151   76  198 1    
   152   76  199 1    
   153   77   78 2    
   154   77   79 am   BACKBONE|DICT|INTERRES
   155   79   80 1    
   156   79  200 1    
   157   80   81 1    
   158   80   82 1    
   159   80  201 1    
   160   81  202 1    
   161   81  203 1    
   162   81  204 1    
   163   82   83 2    
   164   82   84 am   BACKBONE|DICT|INTERRES
   165   84   85 1    
   166   84  205 1    
   167   85   86 1    
   168   85   87 1    
   169   85  206 1    
   170   86  207 1    
   171   86  208 1    
   172   86  209 1    
   173   87   88 2    
   174   87   89 am   BACKBONE|DICT|INTERRES
   175   89   90 1    
   176   89  210 1    
   177   90   91 1    
   178   90   92 1    
   179   90  211 1    
   180   91  212 1    
   181   91  213 1    
   182   91  214 1    
   183   92   93 2    
   184   92   94 am   BACKBONE|DICT|INTERRES
   185   94   95 1    
   186   94  215 1    
   187   95   96 1    
   188   95   97 1    
   189   95  216 1    
   190   96  217 1    
   191   96  218 1    
   192   96  219 1    
   193   97   98 2    
   194   97   99 am   BACKBONE|DICT|INTERRES
   195   99  100 1    
   196   99  220 1    
   197  100  101 1    
   198  100  102 1    
   199  100  221 1    
   200  101  222 1    
   201  101  223 1    
   202  101  224 1    
   203  102  103 2    
   204  102  104 am   BACKBONE|DICT|INTERRES
   205  104  105 1    
   206  104  225 1    
   207  105  106 1    
   208  105  107 1    
   209  105  226 1    
   210  106  227 1    
   211  106  228 1    
   212  106  229 1    
   213  107  108 2    
   214  107  109 am   BACKBONE|DICT|INTERRES
   215  109  110 1    
   216  109  230 1    
   217  110  111 1    
   218  110  112 1    
   219  110  231 1    
   220  111  232 1    
   221  111  233 1    
   222  111  234 1    
   223  112  113 2    
   224  112  114 am   BACKBONE|DICT|INTERRES
   225  114  115 1    
   226  114  235 1    
   227  115  116 1    
   228  115  117 1    
   229  115  236 1    
   230  116  237 1    
   231  116  238 1    
   232  116  239 1    
   233  117  118 2    
   234  117  119 am   BACKBONE|DICT|INTERRES
   235  119  120 1    
   236  119  240 1    
   237  120  121 1    
   238  120  124 1    
   239  120  241 1    
   240  121  122 am   BACKBONE|DICT|INTERRES
   241  121  123 2    
   242  122  242 1    
   243  122  243 1    
   244  124  125 1    
   245  124  244 1    
   246  124  245 1    
   247  125  126 1    
   248  126  246 1    
   249  126  247 1    
@<TRIPOS>SUBSTRUCTURE
     1 UNK         1 GROUP             0       ****    0 ROOT    
