@<TRIPOS>MOLECULE
3R540
247   249    1
SMALL
USER_CHARGES


@<TRIPOS>ATOM
      1 CA          0.7027  -14.4185  -48.5912 C.3       0 UNK        -0.1800 
      2 C           0.3790  -13.9977  -47.1672 C.2       0 UNK         0.5000 
      3 O           1.1860  -13.3105  -46.5386 O.2       0 UNK        -0.5000 
      4 N          -0.8071  -14.3695  -46.6665 N.am      1 UNK        -0.5000 
      5 CA         -1.3485  -14.0232  -45.3422 C.3       1 UNK         0.1400 
      6 C6         -2.5028  -14.9707  -44.9271 C.3       23 UNK        -0.0398 
      7 S7         -1.9307  -16.6602  -44.5531 S.3       23 UNK        -0.2404 
      8 C8         -2.6584  -17.6455  -45.9043 C.3       23 UNK        -0.0205 
      9 C9         -1.8052  -17.7266  -47.1690 C.ar      23 UNK        -0.0193 
     10 C10        -2.4379  -17.7923  -48.4144 C.ar      23 UNK        -0.1150 
     11 C11        -1.6924  -17.9346  -49.5885 C.ar      23 UNK        -0.0193 
     12 C12        -0.2983  -17.9672  -49.5152 C.ar      23 UNK        -0.1150 
     13 C13         0.3514  -17.9022  -48.2819 C.ar      23 UNK        -0.0193 
     14 C14        -0.4069  -17.7988  -47.1121 C.ar      23 UNK        -0.1150 
     15 C15         1.8717  -17.9132  -48.2311 C.3       23 UNK        -0.0205 
     16 S16         2.5701  -19.5582  -48.5665 S.3       23 UNK        -0.2404 
     17 C17         2.2564  -20.4360  -47.0014 C.3       23 UNK        -0.0398 
     18 CA          1.5926  -21.8173  -47.2316 C.3       11 UNK         0.1400 
     19 N           1.9983  -22.7850  -46.2125 N.am      11 UNK        -0.5000 
     20 C           2.0107  -24.1140  -46.3836 C.2       10 UNK         0.5000 
     21 O           1.7626  -24.6684  -47.4540 O.2       10 UNK        -0.5000 
     22 CA          2.3410  -24.9725  -45.1464 C.3       10 UNK         0.1400 
     23 CB          3.8373  -25.3187  -45.1169 C.3       10 UNK        -0.1800 
     24 N           1.9764  -24.3265  -43.8836 N.am      10 UNK        -0.5000 
     25 C           0.7192  -24.0797  -43.4898 C.2       9 UNK         0.5000 
     26 O          -0.2746  -24.4110  -44.1337 O.2       9 UNK        -0.5000 
     27 CA          0.5476  -23.2796  -42.1855 C.3       9 UNK         0.1400 
     28 CB          0.4868  -24.2266  -40.9780 C.3       9 UNK        -0.1800 
     29 N           1.5996  -22.2815  -41.9674 N.am      9 UNK        -0.5000 
     30 C           1.8545  -21.2436  -42.7744 C.2       8 UNK         0.5000 
     31 O           1.2567  -21.0284  -43.8342 O.2       8 UNK        -0.5000 
     32 CA          3.0081  -20.3266  -42.3547 C.3       8 UNK         0.1400 
     33 CB          4.3440  -20.8441  -42.9151 C.3       8 UNK        -0.1800 
     34 N           2.7458  -18.9876  -42.8648 N.am      8 UNK        -0.5000 
     35 C           3.1556  -17.8463  -42.3011 C.2       7 UNK         0.5000 
     36 O           3.8614  -17.8029  -41.2908 O.2       7 UNK        -0.5000 
     37 CA          2.7281  -16.5235  -42.9746 C.3       7 UNK         0.1400 
     38 CB          1.7969  -16.7013  -44.1918 C.3       7 UNK        -0.1800 
     39 N           2.1460  -15.5798  -42.0181 N.am      7 UNK        -0.5000 
     40 C           1.0682  -15.7681  -41.2398 C.2       6 UNK         0.5000 
     41 O           0.3846  -16.7925  -41.2463 O.2       6 UNK        -0.5000 
     42 CA          0.6842  -14.6249  -40.2766 C.3       6 UNK         0.1400 
     43 CB          1.1015  -14.9721  -38.8388 C.3       6 UNK        -0.1800 
     44 N           1.2733  -13.3338  -40.6364 N.am      6 UNK        -0.5000 
     45 C           0.8691  -12.5683  -41.6578 C.2       5 UNK         0.5000 
     46 O          -0.0932  -12.8409  -42.3747 O.2       5 UNK        -0.5000 
     47 CA          1.6843  -11.2932  -41.9514 C.3       5 UNK         0.1400 
     48 CB          2.5335  -10.7963  -40.7599 C.3       5 UNK        -0.1800 
     49 N           2.5148  -11.4581  -43.1470 N.am      5 UNK        -0.5000 
     50 C           3.4672  -12.3802  -43.3631 C.2       4 UNK         0.5000 
     51 O           3.8078  -13.2150  -42.5228 O.2       4 UNK        -0.5000 
     52 CA          4.1444  -12.3838  -44.7495 C.3       4 UNK         0.1400 
     53 CB          4.3507  -13.8144  -45.2772 C.3       4 UNK        -0.1800 
     54 N           3.3634  -11.6329  -45.7330 N.am      4 UNK        -0.5000 
     55 C           3.6241  -10.3854  -46.1433 C.2       3 UNK         0.5000 
     56 O           4.5963   -9.7275  -45.7720 O.2       3 UNK        -0.5000 
     57 CA          2.6001   -9.7538  -47.1044 C.3       3 UNK         0.1400 
     58 CB          2.8756  -10.1942  -48.5503 C.3       3 UNK        -0.1800 
     59 N           1.2140  -10.0804  -46.7604 N.am      3 UNK        -0.5000 
     60 C           0.5762   -9.6793  -45.6502 C.2       2 UNK         0.5000 
     61 O           1.0934   -8.9947  -44.7681 O.2       2 UNK        -0.5000 
     62 CA         -0.8550  -10.1979  -45.4712 C.3       2 UNK         0.1400 
     63 CB         -1.8081   -9.6033  -46.5262 C.3       2 UNK        -0.1800 
     64 N          -0.8034  -11.6508  -45.5499 N.am      2 UNK        -0.5000 
     65 C          -1.7601  -12.5306  -45.2515 C.2       1 UNK         0.5000 
     66 O          -2.9052  -12.2082  -44.9289 O.2       1 UNK        -0.5000 
     67 C           0.0554  -21.7297  -47.2839 C.2       11 UNK         0.5000 
     68 O          -0.5316  -21.8381  -48.3606 O.2       11 UNK        -0.5000 
     69 N          -0.5701  -21.6122  -46.1020 N.am      12 UNK        -0.5000 
     70 CA         -2.0219  -21.5539  -45.9183 C.3       12 UNK         0.1400 
     71 CB         -2.3306  -21.2798  -44.4398 C.3       12 UNK        -0.1800 
     72 C          -2.7710  -22.8102  -46.4024 C.2       12 UNK         0.5000 
     73 O          -3.9330  -22.7044  -46.7928 O.2       12 UNK        -0.5000 
     74 N          -2.0930  -23.9658  -46.4136 N.am      13 UNK        -0.5000 
     75 CA         -2.5913  -25.2340  -46.9466 C.3       13 UNK         0.1400 
     76 CB         -1.5317  -26.3256  -46.7376 C.3       13 UNK        -0.1800 
     77 C          -3.0063  -25.1650  -48.4298 C.2       13 UNK         0.5000 
     78 O          -3.9753  -25.8204  -48.8107 O.2       13 UNK        -0.5000 
     79 N          -2.3061  -24.3497  -49.2330 N.am      14 UNK        -0.5000 
     80 CA         -2.6409  -24.1120  -50.6387 C.3       14 UNK         0.1400 
     81 CB         -1.4538  -23.4452  -51.3481 C.3       14 UNK        -0.1800 
     82 C          -3.9268  -23.2810  -50.8025 C.2       14 UNK         0.5000 
     83 O          -4.7019  -23.5385  -51.7239 O.2       14 UNK        -0.5000 
     84 N          -4.1574  -22.3332  -49.8840 N.am      15 UNK        -0.5000 
     85 CA         -5.3796  -21.5334  -49.8208 C.3       15 UNK         0.1400 
     86 CB         -5.1510  -20.2948  -48.9457 C.3       15 UNK        -0.1800 
     87 C          -6.5728  -22.3576  -49.3120 C.2       15 UNK         0.5000 
     88 O          -7.6706  -22.2222  -49.8504 O.2       15 UNK        -0.5000 
     89 N          -6.3295  -23.2345  -48.3270 N.am      16 UNK        -0.5000 
     90 CA         -7.3035  -24.1951  -47.8015 C.3       16 UNK         0.1400 
     91 CB         -6.7227  -24.8868  -46.5594 C.3       16 UNK        -0.1800 
     92 C          -7.7410  -25.2331  -48.8541 C.2       16 UNK         0.5000 
     93 O          -8.9200  -25.5831  -48.9114 O.2       16 UNK        -0.5000 
     94 N          -6.7934  -25.6677  -49.6968 N.am      17 UNK        -0.5000 
     95 CA         -7.0295  -26.5202  -50.8648 C.3       17 UNK         0.1400 
     96 CB         -5.6924  -27.1396  -51.3018 C.3       17 UNK        -0.1800 
     97 C          -7.6846  -25.7770  -52.0492 C.2       17 UNK         0.5000 
     98 O          -8.1317  -26.4333  -52.9907 O.2       17 UNK        -0.5000 
     99 N          -7.7178  -24.4370  -51.9882 N.am      18 UNK        -0.5000 
    100 CA        -8.2168  -23.4992  -52.9976 C.3       18 UNK         0.1400 
    101 CB        -9.7440  -23.6373  -53.1681 C.3       18 UNK        -0.1800 
    102 C         -7.4407  -23.5883  -54.3277 C.2       18 UNK         0.5000 
    103 O         -8.0424  -23.5411  -55.4030 O.2       18 UNK        -0.5000 
    104 N         -6.1118  -23.7283  -54.2308 N.am      19 UNK        -0.5000 
    105 CA        -5.2018  -23.7931  -55.3701 C.3       19 UNK         0.1400 
    106 CB        -3.8245  -24.2756  -54.8876 C.3       19 UNK        -0.1800 
    107 C         -5.0758  -22.4254  -56.0624 C.2       19 UNK         0.5000 
    108 O         -4.8854  -21.4114  -55.3873 O.2       19 UNK        -0.5000 
    109 N         -5.1241  -22.4258  -57.4004 N.am      20 UNK        -0.5000 
    110 CA        -4.9509  -21.2332  -58.2384 C.3       20 UNK         0.1400 
    111 CB        -5.3787  -21.5685  -59.6755 C.3       20 UNK        -0.1800 
    112 C         -3.5123  -20.6752  -58.2190 C.2       20 UNK         0.5000 
    113 O         -3.3059  -19.5079  -58.5514 O.2       20 UNK        -0.5000 
    114 N         -2.5489  -21.5175  -57.8226 N.am      21 UNK        -0.5000 
    115 CA        -1.1323  -21.1874  -57.6794 C.3       21 UNK         0.1400 
    116 CB        -0.3296  -22.4990  -57.6757 C.3       21 UNK        -0.1800 
    117 C         -0.8059  -20.3531  -56.4227 C.2       21 UNK         0.5000 
    118 O          0.3217  -19.8683  -56.3166 O.2       21 UNK        -0.5000 
    119 N         -1.7583  -20.2177  -55.4866 N.am      22 UNK        -0.5000 
    120 CA        -1.5999  -19.4425  -54.2463 C.3       22 UNK         0.1400 
    121 C         -1.3951  -17.9247  -54.5171 C.2       22 UNK         0.5000 
    122 N         -0.3364  -17.3239  -53.9907 N.am      22 UNK        -0.7600 
    123 O         -2.2100  -17.2831  -55.1758 O.2       22 UNK        -0.5000 
    124 C124       -2.7761  -19.6870  -53.2597 C.3       23 UNK        -0.0398 
    125 S125       -2.2078  -19.7976  -51.5333 S.3       23 UNK        -0.2404 
    126 C126       -2.3765  -18.0860  -50.9381 C.3       23 UNK        -0.0205 
    127 H127        1.6556  -14.9448  -48.6164 H         1 UNK         0.0600 
    128 H128        0.7845  -13.5390  -49.2295 H         1 UNK         0.0600 
    129 H129       -0.0657  -15.0701  -49.0066 H         1 UNK         0.0600 
    130 H130       -1.4148  -14.9376  -47.2385 H         1 UNK         0.3000 
    131 H131       -0.5432  -14.1565  -44.6172 H         1 UNK         0.0600 
    132 H132       -3.2832  -14.9869  -45.6891 H         1 UNK         0.0800 
    133 H133       -2.9814  -14.6141  -44.0132 H         1 UNK         0.0800 
    134 H134       -2.8090  -18.6568  -45.5323 H         1 UNK         0.0800 
    135 H135       -3.6543  -17.2634  -46.1328 H         1 UNK         0.0800 
    136 H136       -3.5163  -17.7559  -48.4668 H         1 UNK         0.1150 
    137 H137        0.2828  -18.0673  -50.4212 H         1 UNK         0.1150 
    138 H138        0.0933  -17.7679  -46.1568 H         1 UNK         0.1150 
    139 H139        2.2543  -17.2251  -48.9856 H         1 UNK         0.0800 
    140 H140        2.2375  -17.5417  -47.2744 H         1 UNK         0.0800 
    141 H141        1.6781  -19.8151  -46.3153 H         1 UNK         0.0800 
    142 H142        3.2301  -20.5635  -46.5262 H         1 UNK         0.0800 
    143 H143        1.9302  -22.2011  -48.1972 H         1 UNK         0.0600 
    144 H144        2.1558  -22.4157  -45.2850 H         1 UNK         0.3000 
    145 H145        1.7739  -25.9023  -45.2293 H         1 UNK         0.0600 
    146 H146        4.0715  -25.9869  -44.2879 H         1 UNK         0.0600 
    147 H147        4.1393  -25.8243  -46.0351 H         1 UNK         0.0600 
    148 H148        4.4555  -24.4259  -45.0149 H         1 UNK         0.0600 
    149 H149        2.7343  -24.0237  -43.2901 H         1 UNK         0.3000 
    150 H150       -0.4032  -22.7479  -42.2468 H         1 UNK         0.0600 
    151 H151        1.4246  -24.7664  -40.8409 H         1 UNK         0.0600 
    152 H152       -0.3036  -24.9681  -41.1030 H         1 UNK         0.0600 
    153 H153        0.2750  -23.6808  -40.0584 H         1 UNK         0.0600 
    154 H154        2.1489  -22.3916  -41.1270 H         1 UNK         0.3000 
    155 H155        3.0511  -20.3018  -41.2637 H         1 UNK         0.0600 
    156 H156        4.3359  -20.8797  -44.0054 H         1 UNK         0.0600 
    157 H157        4.5592  -21.8503  -42.5537 H         1 UNK         0.0600 
    158 H158        5.1734  -20.2065  -42.6086 H         1 UNK         0.0600 
    159 H159        2.1112  -18.9589  -43.6519 H         1 UNK         0.3000 
    160 H160        3.6482  -16.0598  -43.3307 H         1 UNK         0.0600 
    161 H161        0.8795  -17.2245  -43.9237 H         1 UNK         0.0600 
    162 H162        2.2907  -17.2701  -44.9787 H         1 UNK         0.0600 
    163 H163        1.5144  -15.7387  -44.6182 H         1 UNK         0.0600 
    164 H164        2.6520  -14.7038  -41.9289 H         1 UNK         0.3000 
    165 H165       -0.4033  -14.5279  -40.3019 H         1 UNK         0.0600 
    166 H166        0.7778  -14.2036  -38.1367 H         1 UNK         0.0600 
    167 H167        0.6528  -15.9132  -38.5181 H         1 UNK         0.0600 
    168 H168        2.1834  -15.0774  -38.7489 H         1 UNK         0.0600 
    169 H169        2.0910  -13.0480  -40.1174 H         1 UNK         0.3000 
    170 H170        0.9579  -10.5130  -42.1841 H         1 UNK         0.0600 
    171 H171        1.9157  -10.6482  -39.8733 H         1 UNK         0.0600 
    172 H172        3.3331  -11.4890  -40.4965 H         1 UNK         0.0600 
    173 H173        2.9964   -9.8368  -40.9905 H         1 UNK         0.0600 
    174 H174        2.3113  -10.8167  -43.9013 H         1 UNK         0.3000 
    175 H175        5.1289  -11.9295  -44.6229 H         1 UNK         0.0600 
    176 H176        3.4069  -14.3532  -45.3583 H         1 UNK         0.0600 
    177 H177        4.8153  -13.8066  -46.2633 H         1 UNK         0.0600 
    178 H178        5.0041  -14.3871  -44.6184 H         1 UNK         0.0600 
    179 H179        2.5447  -12.1151  -46.0977 H         1 UNK         0.3000 
    180 H180        2.7149   -8.6693  -47.0483 H         1 UNK         0.0600 
    181 H181        2.7429  -11.2698  -48.6762 H         1 UNK         0.0600 
    182 H182        3.8979   -9.9526  -48.8442 H         1 UNK         0.0600 
    183 H183        2.2096   -9.6893  -49.2503 H         1 UNK         0.0600 
    184 H184        0.7127  -10.6494  -47.4267 H         1 UNK         0.3000 
    185 H185       -1.2002   -9.9148  -44.4749 H         1 UNK         0.0600 
    186 H186       -1.7651   -8.5135  -46.5192 H         1 UNK         0.0600 
    187 H187       -1.5586   -9.9369  -47.5339 H         1 UNK         0.0600 
    188 H188       -2.8429   -9.8837  -46.3308 H         1 UNK         0.0600 
    189 H189        0.0972  -12.0472  -45.8089 H         1 UNK         0.3000 
    190 H190       -0.0062  -21.5222  -45.2625 H         1 UNK         0.3000 
    191 H191       -2.3876  -20.7165  -46.5144 H         1 UNK         0.0600 
    192 H192       -1.8024  -20.3970  -44.0783 H         1 UNK         0.0600 
    193 H193       -3.3972  -21.1074  -44.2912 H         1 UNK         0.0600 
    194 H194       -2.0452  -22.1227  -43.8109 H         1 UNK         0.0600 
    195 H195       -1.1784  -23.9851  -45.9782 H         1 UNK         0.3000 
    196 H196       -3.4761  -25.5047  -46.3682 H         1 UNK         0.0600 
    197 H197       -1.8841  -27.2887  -47.1090 H         1 UNK         0.0600 
    198 H198       -1.2976  -26.4527  -45.6806 H         1 UNK         0.0600 
    199 H199       -0.6046  -26.0907  -47.2613 H         1 UNK         0.0600 
    200 H200       -1.5513  -23.7982  -48.8428 H         1 UNK         0.3000 
    201 H201       -2.8141  -25.0780  -51.1178 H         1 UNK         0.0600 
    202 H202       -1.6873  -23.2325  -52.3919 H         1 UNK         0.0600 
    203 H203       -0.5754  -24.0902  -51.3348 H         1 UNK         0.0600 
    204 H204       -1.1808  -22.5022  -50.8754 H         1 UNK         0.0600 
    205 H205       -3.4862  -22.2021  -49.1407 H         1 UNK         0.3000 
    206 H206       -5.6148  -21.1900  -50.8308 H         1 UNK         0.0600 
    207 H207       -4.3304  -19.7001  -49.3392 H         1 UNK         0.0600 
    208 H208       -6.0368  -19.6589  -48.9297 H         1 UNK         0.0600 
    209 H209       -4.9139  -20.5544  -47.9144 H         1 UNK         0.0600 
    210 H210       -5.4101  -23.2277  -47.8932 H         1 UNK         0.3000 
    211 H211       -8.1899  -23.6353  -47.4964 H         1 UNK         0.0600 
    212 H212       -5.8498  -25.4902  -46.8065 H         1 UNK         0.0600 
    213 H213       -7.4593  -25.5491  -46.1032 H         1 UNK         0.0600 
    214 H214       -6.4249  -24.1594  -45.8039 H         1 UNK         0.0600 
    215 H215       -5.8301  -25.3983  -49.5253 H         1 UNK         0.3000 
    216 H216       -7.7021  -27.3291  -50.5728 H         1 UNK         0.0600 
    217 H217       -5.8293  -27.8156  -52.1466 H         1 UNK         0.0600 
    218 H218       -5.2422  -27.7173  -50.4943 H         1 UNK         0.0600 
    219 H219       -4.9772  -26.3747  -51.6062 H         1 UNK         0.0600 
    220 H220       -7.3222  -24.0014  -51.1659 H         1 UNK         0.3000 
    221 H221       -8.0215  -22.5004  -52.6053 H         1 UNK         0.0600 
    222 H222      -10.0192  -24.5951  -53.6105 H         1 UNK         0.0600 
    223 H223      -10.2553  -23.5508  -52.2093 H         1 UNK         0.0600 
    224 H224      -10.1368  -22.8532  -53.8163 H         1 UNK         0.0600 
    225 H225       -5.6804  -23.7136  -53.3090 H         1 UNK         0.3000 
    226 H226       -5.5944  -24.5240  -56.0802 H         1 UNK         0.0600 
    227 H227       -3.8983  -25.2374  -54.3794 H         1 UNK         0.0600 
    228 H228       -3.1370  -24.4006  -55.7249 H         1 UNK         0.0600 
    229 H229       -3.3716  -23.5660  -54.1943 H         1 UNK         0.0600 
    230 H230       -5.2857  -23.2961  -57.8872 H         1 UNK         0.3000 
    231 H231       -5.6103  -20.4500  -57.8584 H         1 UNK         0.0600 
    232 H232       -4.7609  -22.3577  -60.1060 H         1 UNK         0.0600 
    233 H233       -5.2931  -20.6948  -60.3230 H         1 UNK         0.0600 
    234 H234       -6.4178  -21.8965  -59.7118 H         1 UNK         0.0600 
    235 H235       -2.8165  -22.4599  -57.5823 H         1 UNK         0.3000 
    236 H236       -0.8244  -20.6008  -58.5475 H         1 UNK         0.0600 
    237 H237       -0.5010  -23.0697  -58.5886 H         1 UNK         0.0600 
    238 H238        0.7419  -22.3037  -57.6148 H         1 UNK         0.0600 
    239 H239       -0.5964  -23.1314  -56.8278 H         1 UNK         0.0600 
    240 H240       -2.6725  -20.6143  -55.6570 H         1 UNK         0.3000 
    241 H241       -0.6865  -19.8271  -53.7870 H         1 UNK         0.0600 
    242 H242        0.3513  -17.8374  -53.4623 H         1 UNK         0.3800 
    243 H243       -0.1993  -16.3392  -54.1563 H         1 UNK         0.3800 
    244 H244       -3.5706  -18.9446  -53.3567 H         1 UNK         0.0800 
    245 H245       -3.2495  -20.6471  -53.4678 H         1 UNK         0.0800 
    246 H246       -1.9247  -17.3927  -51.6472 H         1 UNK         0.0800 
    247 H247       -3.4338  -17.8252  -50.8741 H         1 UNK         0.0800 
@<TRIPOS>BOND
     1    1    2 1    
     2    1  127 1    
     3    1  128 1    
     4    1  129 1    
     5    2    3 2    
     6    2    4 am   BACKBONE|DICT|INTERRES
     7    4    5 1    
     8    4  130 1    
     9    5    6 1    
    10    5   65 1    
    11    5  131 1    
    12    6    7 1    
    13    6  132 1    
    14    6  133 1    
    15    7    8 1    
    16    8    9 1    
    17    8  134 1    
    18    8  135 1    
    19    9   10 ar   
    20    9   14 ar   
    21   10   11 ar   
    22   10  136 1    
    23   11   12 ar   
    24   11  126 1    
    25   12   13 ar   
    26   12  137 1    
    27   13   14 ar   
    28   13   15 1    
    29   14  138 1    
    30   15   16 1    
    31   15  139 1    
    32   15  140 1    
    33   16   17 1    
    34   17   18 1    
    35   17  141 1    
    36   17  142 1    
    37   18   19 1    
    38   18   67 1    
    39   18  143 1    
    40   19   20 am   BACKBONE|DICT|INTERRES
    41   19  144 1    
    42   20   21 2    
    43   20   22 1    
    44   22   23 1    
    45   22   24 1    
    46   22  145 1    
    47   23  146 1    
    48   23  147 1    
    49   23  148 1    
    50   24   25 am   BACKBONE|DICT|INTERRES
    51   24  149 1    
    52   25   26 2    
    53   25   27 1    
    54   27   28 1    
    55   27   29 1    
    56   27  150 1    
    57   28  151 1    
    58   28  152 1    
    59   28  153 1    
    60   29   30 am   BACKBONE|DICT|INTERRES
    61   29  154 1    
    62   30   31 2    
    63   30   32 1    
    64   32   33 1    
    65   32   34 1    
    66   32  155 1    
    67   33  156 1    
    68   33  157 1    
    69   33  158 1    
    70   34   35 am   BACKBONE|DICT|INTERRES
    71   34  159 1    
    72   35   36 2    
    73   35   37 1    
    74   37   38 1    
    75   37   39 1    
    76   37  160 1    
    77   38  161 1    
    78   38  162 1    
    79   38  163 1    
    80   39   40 am   BACKBONE|DICT|INTERRES
    81   39  164 1    
    82   40   41 2    
    83   40   42 1    
    84   42   43 1    
    85   42   44 1    
    86   42  165 1    
    87   43  166 1    
    88   43  167 1    
    89   43  168 1    
    90   44   45 am   BACKBONE|DICT|INTERRES
    91   44  169 1    
    92   45   46 2    
    93   45   47 1    
    94   47   48 1    
    95   47   49 1    
    96   47  170 1    
    97   48  171 1    
    98   48  172 1    
    99   48  173 1    
   100   49   50 am   BACKBONE|DICT|INTERRES
   101   49  174 1    
   102   50   51 2    
   103   50   52 1    
   104   52   53 1    
   105   52   54 1    
   106   52  175 1    
   107   53  176 1    
   108   53  177 1    
   109   53  178 1    
   110   54   55 am   BACKBONE|DICT|INTERRES
   111   54  179 1    
   112   55   56 2    
   113   55   57 1    
   114   57   58 1    
   115   57   59 1    
   116   57  180 1    
   117   58  181 1    
   118   58  182 1    
   119   58  183 1    
   120   59   60 am   BACKBONE|DICT|INTERRES
   121   59  184 1    
   122   60   61 2    
   123   60   62 1    
   124   62   63 1    
   125   62   64 1    
   126   62  185 1    
   127   63  186 1    
   128   63  187 1    
   129   63  188 1    
   130   64   65 am   BACKBONE|DICT|INTERRES
   131   64  189 1    
   132   65   66 2    
   133   67   68 2    
   134   67   69 am   BACKBONE|DICT|INTERRES
   135   69   70 1    
   136   69  190 1    
   137   70   71 1    
   138   70   72 1    
   139   70  191 1    
   140   71  192 1    
   141   71  193 1    
   142   71  194 1    
   143   72   73 2    
   144   72   74 am   BACKBONE|DICT|INTERRES
   145   74   75 1    
   146   74  195 1    
   147   75   76 1    
   148   75   77 1    
   149   75  196 1    
   150   76  197 1    
   151   76  198 1    
   152   76  199 1    
   153   77   78 2    
   154   77   79 am   BACKBONE|DICT|INTERRES
   155   79   80 1    
   156   79  200 1    
   157   80   81 1    
   158   80   82 1    
   159   80  201 1    
   160   81  202 1    
   161   81  203 1    
   162   81  204 1    
   163   82   83 2    
   164   82   84 am   BACKBONE|DICT|INTERRES
   165   84   85 1    
   166   84  205 1    
   167   85   86 1    
   168   85   87 1    
   169   85  206 1    
   170   86  207 1    
   171   86  208 1    
   172   86  209 1    
   173   87   88 2    
   174   87   89 am   BACKBONE|DICT|INTERRES
   175   89   90 1    
   176   89  210 1    
   177   90   91 1    
   178   90   92 1    
   179   90  211 1    
   180   91  212 1    
   181   91  213 1    
   182   91  214 1    
   183   92   93 2    
   184   92   94 am   BACKBONE|DICT|INTERRES
   185   94   95 1    
   186   94  215 1    
   187   95   96 1    
   188   95   97 1    
   189   95  216 1    
   190   96  217 1    
   191   96  218 1    
   192   96  219 1    
   193   97   98 2    
   194   97   99 am   BACKBONE|DICT|INTERRES
   195   99  100 1    
   196   99  220 1    
   197  100  101 1    
   198  100  102 1    
   199  100  221 1    
   200  101  222 1    
   201  101  223 1    
   202  101  224 1    
   203  102  103 2    
   204  102  104 am   BACKBONE|DICT|INTERRES
   205  104  105 1    
   206  104  225 1    
   207  105  106 1    
   208  105  107 1    
   209  105  226 1    
   210  106  227 1    
   211  106  228 1    
   212  106  229 1    
   213  107  108 2    
   214  107  109 am   BACKBONE|DICT|INTERRES
   215  109  110 1    
   216  109  230 1    
   217  110  111 1    
   218  110  112 1    
   219  110  231 1    
   220  111  232 1    
   221  111  233 1    
   222  111  234 1    
   223  112  113 2    
   224  112  114 am   BACKBONE|DICT|INTERRES
   225  114  115 1    
   226  114  235 1    
   227  115  116 1    
   228  115  117 1    
   229  115  236 1    
   230  116  237 1    
   231  116  238 1    
   232  116  239 1    
   233  117  118 2    
   234  117  119 am   BACKBONE|DICT|INTERRES
   235  119  120 1    
   236  119  240 1    
   237  120  121 1    
   238  120  124 1    
   239  120  241 1    
   240  121  122 am   BACKBONE|DICT|INTERRES
   241  121  123 2    
   242  122  242 1    
   243  122  243 1    
   244  124  125 1    
   245  124  244 1    
   246  124  245 1    
   247  125  126 1    
   248  126  246 1    
   249  126  247 1    
@<TRIPOS>SUBSTRUCTURE
     1 UNK         1 GROUP             0       ****    0 ROOT    
