@<TRIPOS>MOLECULE
3R540
247   249    1
SMALL
USER_CHARGES


@<TRIPOS>ATOM
      1 CA          0.8386  -12.1141  -49.3947 C.3       0 UNK        -0.1800 
      2 C           2.1543  -12.4359  -48.7022 C.2       0 UNK         0.5000 
      3 O           2.1447  -12.8878  -47.5588 O.2       0 UNK        -0.5000 
      4 N           3.2826  -12.2045  -49.3845 N.am      1 UNK        -0.5000 
      5 CA          4.6697  -12.4471  -48.9537 C.3       1 UNK         0.1400 
      6 C6          5.0265  -13.9339  -48.6515 C.3       23 UNK        -0.0398 
      7 S7          4.3129  -15.1569  -49.8087 S.3       23 UNK        -0.2404 
      8 C8          3.2569  -16.0792  -48.6452 C.3       23 UNK        -0.0205 
      9 C9          2.2148  -16.9344  -49.3427 C.ar      23 UNK        -0.0193 
     10 C10         1.0790  -16.3401  -49.8974 C.ar      23 UNK        -0.1150 
     11 C11         0.0747  -17.1254  -50.4693 C.ar      23 UNK        -0.0193 
     12 C12         0.2055  -18.5174  -50.4680 C.ar      23 UNK        -0.1150 
     13 C13         1.3403  -19.1247  -49.9196 C.ar      23 UNK        -0.0193 
     14 C14         2.3507  -18.3236  -49.3765 C.ar      23 UNK        -0.1150 
     15 C15         1.4551  -20.6458  -49.9037 C.3       23 UNK        -0.0205 
     16 S16         2.0023  -21.3337  -48.2994 S.3       23 UNK        -0.2404 
     17 C17         0.8452  -20.5675  -47.1110 C.3       23 UNK        -0.0398 
     18 CA         -0.3539  -21.4730  -46.7536 C.3       11 UNK         0.1400 
     19 N          -0.9617  -21.0769  -45.4832 N.am      11 UNK        -0.5000 
     20 C          -1.9413  -21.7407  -44.8553 C.2       10 UNK         0.5000 
     21 O          -2.4157  -22.8038  -45.2534 O.2       10 UNK        -0.5000 
     22 CA         -2.5259  -21.0680  -43.6032 C.3       10 UNK         0.1400 
     23 CB         -1.6481  -21.3372  -42.3719 C.3       10 UNK        -0.1800 
     24 N          -2.6809  -19.6258  -43.7957 N.am      10 UNK        -0.5000 
     25 C          -3.5980  -19.0703  -44.6002 C.2       9 UNK         0.5000 
     26 O          -4.4412  -19.7161  -45.2233 O.2       9 UNK        -0.5000 
     27 CA         -3.5378  -17.5399  -44.7616 C.3       9 UNK         0.1400 
     28 CB         -4.2588  -16.8423  -43.5986 C.3       9 UNK        -0.1800 
     29 N          -2.1680  -17.0305  -44.8589 N.am      9 UNK        -0.5000 
     30 C          -1.3411  -17.2809  -45.8836 C.2       8 UNK         0.5000 
     31 O          -1.6466  -17.9682  -46.8550 O.2       8 UNK        -0.5000 
     32 CA          0.0811  -16.7044  -45.7916 C.3       8 UNK         0.1400 
     33 CB          0.1065  -15.2613  -46.3087 C.3       8 UNK        -0.1800 
     34 N           0.6582  -16.7405  -44.4465 N.am      8 UNK        -0.5000 
     35 C           0.8340  -17.8441  -43.7036 C.2       7 UNK         0.5000 
     36 O           0.4036  -18.9553  -44.0194 O.2       7 UNK        -0.5000 
     37 CA          1.6449  -17.6593  -42.4033 C.3       7 UNK         0.1400 
     38 CB          2.0793  -18.9930  -41.7621 C.3       7 UNK        -0.1800 
     39 N           2.7925  -16.7678  -42.6022 N.am      7 UNK        -0.5000 
     40 C           3.8189  -16.9343  -43.4522 C.2       6 UNK         0.5000 
     41 O           4.0164  -17.9621  -44.1008 O.2       6 UNK        -0.5000 
     42 CA          4.7682  -15.7362  -43.6474 C.3       6 UNK         0.1400 
     43 CB          4.5988  -15.1569  -45.0602 C.3       6 UNK        -0.1800 
     44 N           4.5298  -14.6690  -42.6741 N.am      6 UNK        -0.5000 
     45 C           5.1691  -14.5484  -41.5025 C.2       5 UNK         0.5000 
     46 O           6.0919  -15.2825  -41.1480 O.2       5 UNK        -0.5000 
     47 CA          4.6817  -13.4364  -40.5528 C.3       5 UNK         0.1400 
     48 CB          5.5604  -12.1839  -40.6839 C.3       5 UNK        -0.1800 
     49 N           3.2784  -13.0746  -40.7718 N.am      5 UNK        -0.5000 
     50 C           2.2415  -13.8507  -40.4218 C.2       4 UNK         0.5000 
     51 O           2.3663  -14.9396  -39.8619 O.2       4 UNK        -0.5000 
     52 CA          0.8298  -13.3616  -40.7964 C.3       4 UNK         0.1400 
     53 CB          0.2058  -12.5776  -39.6325 C.3       4 UNK        -0.1800 
     54 N           0.7892  -12.5375  -42.0051 N.am      4 UNK        -0.5000 
     55 C           1.1385  -12.9430  -43.2327 C.2       3 UNK         0.5000 
     56 O           1.5549  -14.0775  -43.4806 O.2       3 UNK        -0.5000 
     57 CA          1.0221  -11.9155  -44.3764 C.3       3 UNK         0.1400 
     58 CB          0.3569  -10.5801  -43.9733 C.3       3 UNK        -0.1800 
     59 N           2.3136  -11.6688  -45.0197 N.am      3 UNK        -0.5000 
     60 C           3.4394  -11.2100  -44.4477 C.2       2 UNK         0.5000 
     61 O           3.5269  -10.9460  -43.2474 O.2       2 UNK        -0.5000 
     62 CA          4.6718  -11.0229  -45.3599 C.3       2 UNK         0.1400 
     63 CB          5.9920  -11.3741  -44.6469 C.3       2 UNK        -0.1800 
     64 N           4.5369  -11.7979  -46.5928 N.am      2 UNK        -0.5000 
     65 C           5.0766  -11.5180  -47.7851 C.2       1 UNK         0.5000 
     66 O           5.8360  -10.5703  -47.9907 O.2       1 UNK        -0.5000 
     67 C          -1.3948  -21.5225  -47.8911 C.2       11 UNK         0.5000 
     68 O          -1.4641  -22.5229  -48.6013 O.2       11 UNK        -0.5000 
     69 N          -2.2193  -20.4724  -48.0091 N.am      12 UNK        -0.5000 
     70 CA         -3.3111  -20.3610  -48.9769 C.3       12 UNK         0.1400 
     71 CB         -3.9314  -18.9604  -48.8715 C.3       12 UNK        -0.1800 
     72 C          -4.3958  -21.4412  -48.8124 C.2       12 UNK         0.5000 
     73 O          -4.9489  -21.8928  -49.8136 O.2       12 UNK        -0.5000 
     74 N          -4.6685  -21.8451  -47.5640 N.am      13 UNK        -0.5000 
     75 CA         -5.5811  -22.9395  -47.2362 C.3       13 UNK         0.1400 
     76 CB         -5.9720  -22.8543  -45.7531 C.3       13 UNK        -0.1800 
     77 C          -4.9857  -24.3205  -47.5698 C.2       13 UNK         0.5000 
     78 O          -5.7067  -25.1914  -48.0557 O.2       13 UNK        -0.5000 
     79 N          -3.6850  -24.4988  -47.3047 N.am      14 UNK        -0.5000 
     80 CA         -2.9481  -25.7357  -47.5654 C.3       14 UNK         0.1400 
     81 CB         -1.6362  -25.7149  -46.7665 C.3       14 UNK        -0.1800 
     82 C          -2.6601  -25.9769  -49.0592 C.2       14 UNK         0.5000 
     83 O          -2.5819  -27.1357  -49.4713 O.2       14 UNK        -0.5000 
     84 N          -2.4872  -24.8886  -49.8249 N.am      15 UNK        -0.5000 
     85 CA         -2.1074  -24.8405  -51.2386 C.3       15 UNK         0.1400 
     86 CB         -2.2409  -23.3973  -51.7492 C.3       15 UNK        -0.1800 
     87 C          -2.9091  -25.8051  -52.1295 C.2       15 UNK         0.5000 
     88 O          -4.1094  -25.6037  -52.3274 O.2       15 UNK        -0.5000 
     89 N          -2.2237  -26.8493  -52.6166 N.am      16 UNK        -0.5000 
     90 CA         -2.7260  -27.9248  -53.4804 C.3       16 UNK         0.1400 
     91 CB         -3.1127  -27.3574  -54.8630 C.3       16 UNK        -0.1800 
     92 C          -3.8668  -28.7643  -52.8616 C.2       16 UNK         0.5000 
     93 O          -4.5964  -29.4225  -53.6040 O.2       16 UNK        -0.5000 
     94 N          -4.0382  -28.7008  -51.5306 N.am      17 UNK        -0.5000 
     95 CA         -5.1019  -29.2879  -50.6981 C.3       17 UNK         0.1400 
     96 CB         -5.1021  -30.8254  -50.7911 C.3       17 UNK        -0.1800 
     97 C          -6.5162  -28.7148  -50.9466 C.2       17 UNK         0.5000 
     98 O          -7.3210  -28.6671  -50.0164 O.2       17 UNK        -0.5000 
     99 N          -6.7905  -28.2705  -52.1779 N.am      18 UNK        -0.5000 
    100 CA        -8.0306  -27.6423  -52.6320 C.3       18 UNK         0.1400 
    101 CB        -8.0937  -27.7682  -54.1634 C.3       18 UNK        -0.1800 
    102 C         -8.1767  -26.1663  -52.2051 C.2       18 UNK         0.5000 
    103 O         -9.2214  -25.5734  -52.4770 O.2       18 UNK        -0.5000 
    104 N         -7.1396  -25.6038  -51.5675 N.am      19 UNK        -0.5000 
    105 CA        -6.9954  -24.2114  -51.1378 C.3       19 UNK         0.1400 
    106 CB        -8.1044  -23.7910  -50.1489 C.3       19 UNK        -0.1800 
    107 C         -6.8613  -23.2675  -52.3451 C.2       19 UNK         0.5000 
    108 O         -7.6758  -22.3605  -52.5350 O.2       19 UNK        -0.5000 
    109 N         -5.8231  -23.5134  -53.1537 N.am      20 UNK        -0.5000 
    110 CA        -5.4095  -22.7045  -54.3003 C.3       20 UNK         0.1400 
    111 CB        -4.4926  -23.5565  -55.1963 C.3       20 UNK        -0.1800 
    112 C         -4.7483  -21.3834  -53.8479 C.2       20 UNK         0.5000 
    113 O         -3.5476  -21.1833  -54.0404 O.2       20 UNK        -0.5000 
    114 N         -5.5529  -20.5262  -53.2112 N.am      21 UNK        -0.5000 
    115 CA        -5.1774  -19.2344  -52.6441 C.3       21 UNK         0.1400 
    116 CB        -6.3769  -18.7035  -51.8416 C.3       21 UNK        -0.1800 
    117 C         -4.7375  -18.2003  -53.6988 C.2       21 UNK         0.5000 
    118 O         -5.0648  -18.3299  -54.8813 O.2       21 UNK        -0.5000 
    119 N         -4.0340  -17.1644  -53.2270 N.am      22 UNK        -0.5000 
    120 CA        -3.5320  -16.0394  -54.0359 C.3       22 UNK         0.1400 
    121 C         -4.6288  -15.0608  -54.5558 C.2       22 UNK         0.5000 
    122 N         -5.8644  -15.1195  -54.0736 N.am      22 UNK        -0.7600 
    123 O         -4.3519  -14.2324  -55.4190 O.2       22 UNK        -0.5000 
    124 C124       -2.4208  -15.2532  -53.2918 C.3       23 UNK        -0.0398 
    125 S125       -0.9640  -16.2734  -52.8775 S.3       23 UNK        -0.2404 
    126 C126       -1.1530  -16.4678  -51.0783 C.3       23 UNK        -0.0205 
    127 H127        0.9865  -11.8393  -50.4392 H         1 UNK         0.0600 
    128 H128        0.3434  -11.2858  -48.8882 H         1 UNK         0.0600 
    129 H129        0.1762  -12.9789  -49.3609 H         1 UNK         0.0600 
    130 H130        3.2028  -11.8128  -50.3122 H         1 UNK         0.3000 
    131 H131        5.2792  -12.1503  -49.8089 H         1 UNK         0.0600 
    132 H132        6.1105  -14.0574  -48.6654 H         1 UNK         0.0800 
    133 H133        4.7218  -14.2074  -47.6438 H         1 UNK         0.0800 
    134 H134        3.8898  -16.6947  -48.0044 H         1 UNK         0.0800 
    135 H135        2.7388  -15.3870  -47.9827 H         1 UNK         0.0800 
    136 H136        0.9769  -15.2646  -49.8763 H         1 UNK         0.1150 
    137 H137       -0.5782  -19.1259  -50.8971 H         1 UNK         0.1150 
    138 H138        3.2276  -18.7856  -48.9454 H         1 UNK         0.1150 
    139 H139        0.5025  -21.1051  -50.1715 H         1 UNK         0.0800 
    140 H140        2.1658  -20.9484  -50.6735 H         1 UNK         0.0800 
    141 H141        0.5118  -19.5887  -47.4554 H         1 UNK         0.0800 
    142 H142        1.4298  -20.3686  -46.2115 H         1 UNK         0.0800 
    143 H143        0.0198  -22.4891  -46.6092 H         1 UNK         0.0600 
    144 H144       -0.6045  -20.2280  -45.0531 H         1 UNK         0.3000 
    145 H145       -3.5120  -21.4998  -43.4186 H         1 UNK         0.0600 
    146 H146       -2.0769  -20.8886  -41.4757 H         1 UNK         0.0600 
    147 H147       -1.5569  -22.4084  -42.1876 H         1 UNK         0.0600 
    148 H148       -0.6405  -20.9408  -42.4970 H         1 UNK         0.0600 
    149 H149       -1.9841  -19.0326  -43.3694 H         1 UNK         0.3000 
    150 H150       -4.0590  -17.2845  -45.6868 H         1 UNK         0.0600 
    151 H151       -5.2889  -17.1910  -43.5134 H         1 UNK         0.0600 
    152 H152       -4.2938  -15.7629  -43.7472 H         1 UNK         0.0600 
    153 H153       -3.7671  -17.0345  -42.6442 H         1 UNK         0.0600 
    154 H154       -1.8310  -16.4636  -44.0951 H         1 UNK         0.3000 
    155 H155        0.7254  -17.3064  -46.4355 H         1 UNK         0.0600 
    156 H156        1.1117  -14.8475  -46.2482 H         1 UNK         0.0600 
    157 H157       -0.5547  -14.6144  -45.7316 H         1 UNK         0.0600 
    158 H158       -0.2074  -15.2107  -47.3520 H         1 UNK         0.0600 
    159 H159        1.0402  -15.8640  -44.1019 H         1 UNK         0.3000 
    160 H160        0.9833  -17.1538  -41.6985 H         1 UNK         0.0600 
    161 H161        2.6823  -19.5950  -42.4423 H         1 UNK         0.0600 
    162 H162        1.2115  -19.5903  -41.4811 H         1 UNK         0.0600 
    163 H163        2.6621  -18.8230  -40.8569 H         1 UNK         0.0600 
    164 H164        2.7344  -15.8801  -42.1239 H         1 UNK         0.3000 
    165 H165        5.7904  -16.1085  -43.5537 H         1 UNK         0.0600 
    166 H166        3.6020  -14.7414  -45.2136 H         1 UNK         0.0600 
    167 H167        5.3285  -14.3720  -45.2515 H         1 UNK         0.0600 
    168 H168        4.7540  -15.9267  -45.8166 H         1 UNK         0.0600 
    169 H169        3.7599  -14.0441  -42.8744 H         1 UNK         0.3000 
    170 H170        4.7827  -13.8104  -39.5317 H         1 UNK         0.0600 
    171 H171        6.6043  -12.4159  -40.4694 H         1 UNK         0.0600 
    172 H172        5.5192  -11.7660  -41.6887 H         1 UNK         0.0600 
    173 H173        5.2495  -11.4078  -39.9844 H         1 UNK         0.0600 
    174 H174        3.1022  -12.2095  -41.2675 H         1 UNK         0.3000 
    175 H175        0.2167  -14.2465  -40.9798 H         1 UNK         0.0600 
    176 H176        0.7600  -11.6623  -39.4211 H         1 UNK         0.0600 
    177 H177       -0.8268  -12.3033  -39.8497 H         1 UNK         0.0600 
    178 H178        0.1965  -13.1744  -38.7194 H         1 UNK         0.0600 
    179 H179        0.4810  -11.5832  -41.8883 H         1 UNK         0.3000 
    180 H180        0.3898  -12.3799  -45.1339 H         1 UNK         0.0600 
    181 H181        0.9354  -10.0372  -43.2251 H         1 UNK         0.0600 
    182 H182       -0.6445  -10.7419  -43.5723 H         1 UNK         0.0600 
    183 H183        0.2491   -9.9267  -44.8392 H         1 UNK         0.0600 
    184 H184        2.3281  -11.9130  -46.0059 H         1 UNK         0.3000 
    185 H185        4.6957   -9.9636  -45.6228 H         1 UNK         0.0600 
    186 H186        6.8462  -11.2798  -45.3173 H         1 UNK         0.0600 
    187 H187        6.1698  -10.7015  -43.8074 H         1 UNK         0.0600 
    188 H188        5.9828  -12.3905  -44.2545 H         1 UNK         0.0600 
    189 H189        3.8594  -12.5515  -46.5657 H         1 UNK         0.3000 
    190 H190       -2.0655  -19.6568  -47.4194 H         1 UNK         0.3000 
    191 H191       -2.8828  -20.4750  -49.9749 H         1 UNK         0.0600 
    192 H192       -3.2021  -18.1868  -49.1088 H         1 UNK         0.0600 
    193 H193       -4.7677  -18.8446  -49.5580 H         1 UNK         0.0600 
    194 H194       -4.3080  -18.7650  -47.8672 H         1 UNK         0.0600 
    195 H195       -4.2034  -21.3875  -46.7903 H         1 UNK         0.3000 
    196 H196       -6.4899  -22.8159  -47.8270 H         1 UNK         0.0600 
    197 H197       -6.6822  -23.6397  -45.4918 H         1 UNK         0.0600 
    198 H198       -6.4444  -21.8986  -45.5251 H         1 UNK         0.0600 
    199 H199       -5.1072  -22.9628  -45.0986 H         1 UNK         0.0600 
    200 H200       -3.1711  -23.7514  -46.8486 H         1 UNK         0.3000 
    201 H201       -3.5490  -26.5740  -47.2067 H         1 UNK         0.0600 
    202 H202       -1.8275  -25.6225  -45.6972 H         1 UNK         0.0600 
    203 H203       -0.9978  -24.8823  -47.0645 H         1 UNK         0.0600 
    204 H204       -1.0702  -26.6349  -46.9178 H         1 UNK         0.0600 
    205 H205       -2.4887  -23.9907  -49.3506 H         1 UNK         0.3000 
    206 H206       -1.0520  -25.1135  -51.2924 H         1 UNK         0.0600 
    207 H207       -1.5637  -22.7237  -51.2253 H         1 UNK         0.0600 
    208 H208       -1.9980  -23.3311  -52.8103 H         1 UNK         0.0600 
    209 H209       -3.2550  -23.0186  -51.6208 H         1 UNK         0.0600 
    210 H210       -1.2532  -26.9401  -52.3498 H         1 UNK         0.3000 
    211 H211       -1.8923  -28.6129  -53.6257 H         1 UNK         0.0600 
    212 H212       -4.0013  -26.7278  -54.8071 H         1 UNK         0.0600 
    213 H213       -3.3253  -28.1583  -55.5720 H         1 UNK         0.0600 
    214 H214       -2.3051  -26.7598  -55.2857 H         1 UNK         0.0600 
    215 H215       -3.3964  -28.1070  -51.0121 H         1 UNK         0.3000 
    216 H216       -4.8428  -29.0227  -49.6718 H         1 UNK         0.0600 
    217 H217       -4.1179  -31.2343  -50.5626 H         1 UNK         0.0600 
    218 H218       -5.3904  -31.1756  -51.7825 H         1 UNK         0.0600 
    219 H219       -5.8065  -31.2564  -50.0786 H         1 UNK         0.0600 
    220 H220       -6.0763  -28.4202  -52.8832 H         1 UNK         0.3000 
    221 H221       -8.8731  -28.1901  -52.2053 H         1 UNK         0.0600 
    222 H222       -7.2729  -27.2329  -54.6430 H         1 UNK         0.0600 
    223 H223       -8.0415  -28.8114  -54.4762 H         1 UNK         0.0600 
    224 H224       -9.0264  -27.3601  -54.5551 H         1 UNK         0.0600 
    225 H225       -6.3100  -26.1703  -51.4532 H         1 UNK         0.3000 
    226 H226       -6.0466  -24.1633  -50.6026 H         1 UNK         0.0600 
    227 H227       -8.1463  -24.4656  -49.2940 H         1 UNK         0.0600 
    228 H228       -7.9138  -22.7881  -49.7659 H         1 UNK         0.0600 
    229 H229       -9.0903  -23.7735  -50.6130 H         1 UNK         0.0600 
    230 H230       -5.2020  -24.2812  -52.9033 H         1 UNK         0.3000 
    231 H231       -6.2960  -22.4454  -54.8829 H         1 UNK         0.0600 
    232 H232       -4.1707  -22.9943  -56.0737 H         1 UNK         0.0600 
    233 H233       -5.0100  -24.4472  -55.5531 H         1 UNK         0.0600 
    234 H234       -3.5972  -23.8817  -54.6660 H         1 UNK         0.0600 
    235 H235       -6.5105  -20.8241  -53.0577 H         1 UNK         0.3000 
    236 H236       -4.3408  -19.4056  -51.9641 H         1 UNK         0.0600 
    237 H237       -6.6757  -19.4107  -51.0669 H         1 UNK         0.0600 
    238 H238       -6.1406  -17.7612  -51.3462 H         1 UNK         0.0600 
    239 H239       -7.2416  -18.5288  -52.4833 H         1 UNK         0.0600 
    240 H240       -3.8271  -17.1203  -52.2415 H         1 UNK         0.3000 
    241 H241       -3.0797  -16.4704  -54.9313 H         1 UNK         0.0600 
    242 H242       -6.1118  -15.7966  -53.3710 H         1 UNK         0.3800 
    243 H243       -6.5631  -14.4826  -54.4235 H         1 UNK         0.3800 
    244 H244       -2.0594  -14.4308  -53.9121 H         1 UNK         0.0800 
    245 H245       -2.8206  -14.7899  -52.3884 H         1 UNK         0.0800 
    246 H246       -2.0381  -17.0675  -50.8674 H         1 UNK         0.0800 
    247 H247       -1.3195  -15.4927  -50.6176 H         1 UNK         0.0800 
@<TRIPOS>BOND
     1    1    2 1    
     2    1  127 1    
     3    1  128 1    
     4    1  129 1    
     5    2    3 2    
     6    2    4 am   BACKBONE|DICT|INTERRES
     7    4    5 1    
     8    4  130 1    
     9    5    6 1    
    10    5   65 1    
    11    5  131 1    
    12    6    7 1    
    13    6  132 1    
    14    6  133 1    
    15    7    8 1    
    16    8    9 1    
    17    8  134 1    
    18    8  135 1    
    19    9   10 ar   
    20    9   14 ar   
    21   10   11 ar   
    22   10  136 1    
    23   11   12 ar   
    24   11  126 1    
    25   12   13 ar   
    26   12  137 1    
    27   13   14 ar   
    28   13   15 1    
    29   14  138 1    
    30   15   16 1    
    31   15  139 1    
    32   15  140 1    
    33   16   17 1    
    34   17   18 1    
    35   17  141 1    
    36   17  142 1    
    37   18   19 1    
    38   18   67 1    
    39   18  143 1    
    40   19   20 am   BACKBONE|DICT|INTERRES
    41   19  144 1    
    42   20   21 2    
    43   20   22 1    
    44   22   23 1    
    45   22   24 1    
    46   22  145 1    
    47   23  146 1    
    48   23  147 1    
    49   23  148 1    
    50   24   25 am   BACKBONE|DICT|INTERRES
    51   24  149 1    
    52   25   26 2    
    53   25   27 1    
    54   27   28 1    
    55   27   29 1    
    56   27  150 1    
    57   28  151 1    
    58   28  152 1    
    59   28  153 1    
    60   29   30 am   BACKBONE|DICT|INTERRES
    61   29  154 1    
    62   30   31 2    
    63   30   32 1    
    64   32   33 1    
    65   32   34 1    
    66   32  155 1    
    67   33  156 1    
    68   33  157 1    
    69   33  158 1    
    70   34   35 am   BACKBONE|DICT|INTERRES
    71   34  159 1    
    72   35   36 2    
    73   35   37 1    
    74   37   38 1    
    75   37   39 1    
    76   37  160 1    
    77   38  161 1    
    78   38  162 1    
    79   38  163 1    
    80   39   40 am   BACKBONE|DICT|INTERRES
    81   39  164 1    
    82   40   41 2    
    83   40   42 1    
    84   42   43 1    
    85   42   44 1    
    86   42  165 1    
    87   43  166 1    
    88   43  167 1    
    89   43  168 1    
    90   44   45 am   BACKBONE|DICT|INTERRES
    91   44  169 1    
    92   45   46 2    
    93   45   47 1    
    94   47   48 1    
    95   47   49 1    
    96   47  170 1    
    97   48  171 1    
    98   48  172 1    
    99   48  173 1    
   100   49   50 am   BACKBONE|DICT|INTERRES
   101   49  174 1    
   102   50   51 2    
   103   50   52 1    
   104   52   53 1    
   105   52   54 1    
   106   52  175 1    
   107   53  176 1    
   108   53  177 1    
   109   53  178 1    
   110   54   55 am   BACKBONE|DICT|INTERRES
   111   54  179 1    
   112   55   56 2    
   113   55   57 1    
   114   57   58 1    
   115   57   59 1    
   116   57  180 1    
   117   58  181 1    
   118   58  182 1    
   119   58  183 1    
   120   59   60 am   BACKBONE|DICT|INTERRES
   121   59  184 1    
   122   60   61 2    
   123   60   62 1    
   124   62   63 1    
   125   62   64 1    
   126   62  185 1    
   127   63  186 1    
   128   63  187 1    
   129   63  188 1    
   130   64   65 am   BACKBONE|DICT|INTERRES
   131   64  189 1    
   132   65   66 2    
   133   67   68 2    
   134   67   69 am   BACKBONE|DICT|INTERRES
   135   69   70 1    
   136   69  190 1    
   137   70   71 1    
   138   70   72 1    
   139   70  191 1    
   140   71  192 1    
   141   71  193 1    
   142   71  194 1    
   143   72   73 2    
   144   72   74 am   BACKBONE|DICT|INTERRES
   145   74   75 1    
   146   74  195 1    
   147   75   76 1    
   148   75   77 1    
   149   75  196 1    
   150   76  197 1    
   151   76  198 1    
   152   76  199 1    
   153   77   78 2    
   154   77   79 am   BACKBONE|DICT|INTERRES
   155   79   80 1    
   156   79  200 1    
   157   80   81 1    
   158   80   82 1    
   159   80  201 1    
   160   81  202 1    
   161   81  203 1    
   162   81  204 1    
   163   82   83 2    
   164   82   84 am   BACKBONE|DICT|INTERRES
   165   84   85 1    
   166   84  205 1    
   167   85   86 1    
   168   85   87 1    
   169   85  206 1    
   170   86  207 1    
   171   86  208 1    
   172   86  209 1    
   173   87   88 2    
   174   87   89 am   BACKBONE|DICT|INTERRES
   175   89   90 1    
   176   89  210 1    
   177   90   91 1    
   178   90   92 1    
   179   90  211 1    
   180   91  212 1    
   181   91  213 1    
   182   91  214 1    
   183   92   93 2    
   184   92   94 am   BACKBONE|DICT|INTERRES
   185   94   95 1    
   186   94  215 1    
   187   95   96 1    
   188   95   97 1    
   189   95  216 1    
   190   96  217 1    
   191   96  218 1    
   192   96  219 1    
   193   97   98 2    
   194   97   99 am   BACKBONE|DICT|INTERRES
   195   99  100 1    
   196   99  220 1    
   197  100  101 1    
   198  100  102 1    
   199  100  221 1    
   200  101  222 1    
   201  101  223 1    
   202  101  224 1    
   203  102  103 2    
   204  102  104 am   BACKBONE|DICT|INTERRES
   205  104  105 1    
   206  104  225 1    
   207  105  106 1    
   208  105  107 1    
   209  105  226 1    
   210  106  227 1    
   211  106  228 1    
   212  106  229 1    
   213  107  108 2    
   214  107  109 am   BACKBONE|DICT|INTERRES
   215  109  110 1    
   216  109  230 1    
   217  110  111 1    
   218  110  112 1    
   219  110  231 1    
   220  111  232 1    
   221  111  233 1    
   222  111  234 1    
   223  112  113 2    
   224  112  114 am   BACKBONE|DICT|INTERRES
   225  114  115 1    
   226  114  235 1    
   227  115  116 1    
   228  115  117 1    
   229  115  236 1    
   230  116  237 1    
   231  116  238 1    
   232  116  239 1    
   233  117  118 2    
   234  117  119 am   BACKBONE|DICT|INTERRES
   235  119  120 1    
   236  119  240 1    
   237  120  121 1    
   238  120  124 1    
   239  120  241 1    
   240  121  122 am   BACKBONE|DICT|INTERRES
   241  121  123 2    
   242  122  242 1    
   243  122  243 1    
   244  124  125 1    
   245  124  244 1    
   246  124  245 1    
   247  125  126 1    
   248  126  246 1    
   249  126  247 1    
@<TRIPOS>SUBSTRUCTURE
     1 UNK         1 GROUP             0       ****    0 ROOT    
