@<TRIPOS>MOLECULE
3R540
247   249    1
SMALL
USER_CHARGES


@<TRIPOS>ATOM
      1 CA          2.3285  -10.9618  -52.6663 C.3       0 UNK        -0.1800 
      2 C           1.5779  -11.4037  -51.4176 C.2       0 UNK         0.5000 
      3 O           0.7447  -10.6547  -50.9060 O.2       0 UNK        -0.5000 
      4 N           1.8772  -12.6095  -50.9215 N.am      1 UNK        -0.5000 
      5 CA          1.2040  -13.2409  -49.7833 C.3       1 UNK         0.1400 
      6 C6          2.0898  -14.3395  -49.1335 C.3       23 UNK        -0.0398 
      7 S7          2.5827  -15.7055  -50.2472 S.3       23 UNK        -0.2404 
      8 C8          1.2858  -16.9314  -49.8795 C.3       23 UNK        -0.0205 
      9 C9          1.4605  -18.2257  -50.6574 C.ar      23 UNK        -0.0193 
     10 C10         1.4482  -18.2227  -52.0537 C.ar      23 UNK        -0.1150 
     11 C11         1.5246  -19.4223  -52.7649 C.ar      23 UNK        -0.0193 
     12 C12         1.6064  -20.6326  -52.0700 C.ar      23 UNK        -0.1150 
     13 C13         1.5945  -20.6543  -50.6711 C.ar      23 UNK        -0.0193 
     14 C14         1.5406  -19.4415  -49.9760 C.ar      23 UNK        -0.1150 
     15 C15         1.5158  -21.9919  -49.9399 C.3       23 UNK        -0.0205 
     16 S16         2.8086  -22.2604  -48.6795 S.3       23 UNK        -0.2404 
     17 C17         2.0497  -21.6312  -47.1388 C.3       23 UNK        -0.0398 
     18 CA          1.2200  -22.6794  -46.3569 C.3       11 UNK         0.1400 
     19 N           1.1546  -22.3637  -44.9289 N.am      11 UNK        -0.5000 
     20 C           0.6162  -23.1567  -43.9916 C.2       10 UNK         0.5000 
     21 O           0.1960  -24.2935  -44.2124 O.2       10 UNK        -0.5000 
     22 CA          0.4731  -22.5512  -42.5832 C.3       10 UNK         0.1400 
     23 CB          1.7963  -22.6475  -41.8097 C.3       10 UNK        -0.1800 
     24 N           0.0185  -21.1582  -42.6189 N.am      10 UNK        -0.5000 
     25 C          -1.1785  -20.7680  -43.0824 C.2       9 UNK         0.5000 
     26 O          -2.0463  -21.5522  -43.4659 O.2       9 UNK        -0.5000 
     27 CA         -1.4361  -19.2524  -43.1811 C.3       9 UNK         0.1400 
     28 CB         -1.8587  -18.6740  -41.8230 C.3       9 UNK        -0.1800 
     29 N          -0.2815  -18.5121  -43.6879 N.am      9 UNK        -0.5000 
     30 C           0.2397  -18.6476  -44.9143 C.2       8 UNK         0.5000 
     31 O          -0.2220  -19.3917  -45.7746 O.2       8 UNK        -0.5000 
     32 CA          1.5228  -17.8589  -45.2183 C.3       8 UNK         0.1400 
     33 CB          1.2032  -16.4039  -45.5910 C.3       8 UNK        -0.1800 
     34 N           2.4637  -17.8938  -44.0995 N.am      8 UNK        -0.5000 
     35 C           3.1058  -18.9971  -43.6900 C.2       7 UNK         0.5000 
     36 O           2.9836  -20.0988  -44.2255 O.2       7 UNK        -0.5000 
     37 CA          4.0023  -18.8501  -42.4481 C.3       7 UNK         0.1400 
     38 CB          5.3608  -18.2412  -42.8260 C.3       7 UNK        -0.1800 
     39 N           3.3779  -18.0395  -41.4018 N.am      7 UNK        -0.5000 
     40 C           2.2903  -18.4101  -40.7122 C.2       6 UNK         0.5000 
     41 O           1.7073  -19.4817  -40.8753 O.2       6 UNK        -0.5000 
     42 CA          1.7322  -17.3887  -39.7046 C.3       6 UNK         0.1400 
     43 CB          2.5081  -17.4541  -38.3805 C.3       6 UNK        -0.1800 
     44 N           1.7225  -16.0069  -40.1982 N.am      6 UNK        -0.5000 
     45 C           1.0770  -15.5984  -41.2980 C.2       5 UNK         0.5000 
     46 O           0.5145  -16.3621  -42.0847 O.2       5 UNK        -0.5000 
     47 CA          1.0668  -14.0885  -41.5866 C.3       5 UNK         0.1400 
     48 CB          2.1853  -13.7201  -42.5727 C.3       5 UNK        -0.1800 
     49 N          -0.2219  -13.7033  -42.1580 N.am      5 UNK        -0.5000 
     50 C          -1.3713  -13.6525  -41.4756 C.2       4 UNK         0.5000 
     51 O          -1.4397  -13.7540  -40.2497 O.2       4 UNK        -0.5000 
     52 CA         -2.6681  -13.4926  -42.2917 C.3       4 UNK         0.1400 
     53 CB         -2.8519  -12.0431  -42.7823 C.3       4 UNK        -0.1800 
     54 N          -2.8199  -14.4645  -43.3860 N.am      4 UNK        -0.5000 
     55 C          -2.1258  -14.5642  -44.5285 C.2       3 UNK         0.5000 
     56 O          -1.1851  -13.8232  -44.8247 O.2       3 UNK        -0.5000 
     57 CA         -2.5556  -15.6526  -45.5303 C.3       3 UNK         0.1400 
     58 CB         -3.9690  -16.2250  -45.2773 C.3       3 UNK        -0.1800 
     59 N          -2.4535  -15.0673  -46.8636 N.am      3 UNK        -0.5000 
     60 C          -2.4607  -15.7216  -48.0301 C.2       2 UNK         0.5000 
     61 O          -2.5818  -16.9399  -48.1409 O.2       2 UNK        -0.5000 
     62 CA         -2.2423  -14.8594  -49.2789 C.3       2 UNK         0.1400 
     63 CB         -3.4107  -13.8865  -49.5207 C.3       2 UNK        -0.1800 
     64 N          -0.9806  -14.1343  -49.1450 N.am      2 UNK        -0.5000 
     65 C          -0.1946  -13.7777  -50.1673 C.2       1 UNK         0.5000 
     66 O          -0.5115  -13.9093  -51.3528 O.2       1 UNK        -0.5000 
     67 C          -0.1953  -22.8417  -46.9505 C.2       11 UNK         0.5000 
     68 O          -0.4583  -23.8437  -47.6106 O.2       11 UNK        -0.5000 
     69 N          -1.0891  -21.8776  -46.6825 N.am      12 UNK        -0.5000 
     70 CA         -2.4799  -21.8605  -47.1399 C.3       12 UNK         0.1400 
     71 CB         -3.1579  -20.5484  -46.7162 C.3       12 UNK        -0.1800 
     72 C          -3.2993  -23.0675  -46.6597 C.2       12 UNK         0.5000 
     73 O          -4.0948  -23.5954  -47.4358 O.2       12 UNK        -0.5000 
     74 N          -3.0694  -23.5048  -45.4149 N.am      13 UNK        -0.5000 
     75 CA         -3.6707  -24.7073  -44.8394 C.3       13 UNK         0.1400 
     76 CB         -3.3294  -24.7877  -43.3439 C.3       13 UNK        -0.1800 
     77 C          -3.2434  -25.9926  -45.5737 C.2       13 UNK         0.5000 
     78 O          -4.0892  -26.8468  -45.8404 O.2       13 UNK        -0.5000 
     79 N          -1.9520  -26.0905  -45.9192 N.am      14 UNK        -0.5000 
     80 CA         -1.3850  -27.1989  -46.6901 C.3       14 UNK         0.1400 
     81 CB          0.1461  -27.1752  -46.5627 C.3       14 UNK        -0.1800 
     82 C          -1.8138  -27.1718  -48.1705 C.2       14 UNK         0.5000 
     83 O          -2.1017  -28.2234  -48.7427 O.2       14 UNK        -0.5000 
     84 N          -1.8635  -25.9684  -48.7556 N.am      15 UNK        -0.5000 
     85 CA         -2.2348  -25.7066  -50.1478 C.3       15 UNK         0.1400 
     86 CB         -1.6665  -24.3363  -50.5551 C.3       15 UNK        -0.1800 
     87 C          -3.7526  -25.7606  -50.4163 C.2       15 UNK         0.5000 
     88 O          -4.1536  -25.6439  -51.5740 O.2       15 UNK        -0.5000 
     89 N          -4.5678  -25.9039  -49.3610 N.am      16 UNK        -0.5000 
     90 CA         -6.0350  -25.9200  -49.3686 C.3       16 UNK         0.1400 
     91 CB         -6.5695  -27.1700  -50.0984 C.3       16 UNK        -0.1800 
     92 C          -6.6295  -24.5984  -49.9009 C.2       16 UNK         0.5000 
     93 O          -7.5058  -24.6065  -50.7666 O.2       16 UNK        -0.5000 
     94 N          -6.1061  -23.4846  -49.3706 N.am      17 UNK        -0.5000 
     95 CA         -6.4598  -22.0857  -49.6368 C.3       17 UNK         0.1400 
     96 CB         -7.9509  -21.8140  -49.3518 C.3       17 UNK        -0.1800 
     97 C          -6.0261  -21.5490  -51.0167 C.2       17 UNK         0.5000 
     98 O          -6.2830  -20.3788  -51.3039 O.2       17 UNK        -0.5000 
     99 N          -5.3235  -22.3584  -51.8265 N.am      18 UNK        -0.5000 
    100 CA        -4.7961  -21.9697  -53.1430 C.3       18 UNK         0.1400 
    101 CB        -4.2195  -23.2024  -53.8521 C.3       18 UNK        -0.1800 
    102 C         -3.7492  -20.8381  -53.0847 C.2       18 UNK         0.5000 
    103 O         -3.5769  -20.1186  -54.0688 O.2       18 UNK        -0.5000 
    104 N         -3.1258  -20.6597  -51.9108 N.am      19 UNK        -0.5000 
    105 CA        -2.2291  -19.5586  -51.5538 C.3       19 UNK         0.1400 
    106 CB        -1.8734  -19.6896  -50.0685 C.3       19 UNK        -0.1800 
    107 C         -2.8166  -18.1604  -51.8208 C.2       19 UNK         0.5000 
    108 O         -2.0817  -17.2576  -52.2162 O.2       19 UNK        -0.5000 
    109 N         -4.1366  -18.0132  -51.6383 N.am      20 UNK        -0.5000 
    110 CA        -4.8670  -16.7738  -51.8951 C.3       20 UNK         0.1400 
    111 CB        -6.2478  -16.8613  -51.2286 C.3       20 UNK        -0.1800 
    112 C         -5.0015  -16.4359  -53.3931 C.2       20 UNK         0.5000 
    113 O         -5.2287  -15.2704  -53.7202 O.2       20 UNK        -0.5000 
    114 N         -4.8669  -17.4394  -54.2723 N.am      21 UNK        -0.5000 
    115 CA        -4.9018  -17.2639  -55.7216 C.3       21 UNK         0.1400 
    116 CB        -5.4699  -18.5270  -56.3895 C.3       21 UNK        -0.1800 
    117 C         -3.5083  -16.9226  -56.2726 C.2       21 UNK         0.5000 
    118 O         -3.3883  -15.9778  -57.0542 O.2       21 UNK        -0.5000 
    119 N         -2.4864  -17.6909  -55.8686 N.am      22 UNK        -0.5000 
    120 CA        -1.0962  -17.5036  -56.3214 C.3       22 UNK         0.1400 
    121 C         -0.2997  -16.3985  -55.5675 C.2       22 UNK         0.5000 
    122 N         -0.6897  -15.9834  -54.3692 N.am      22 UNK        -0.7600 
    123 O          0.6863  -15.8914  -56.0954 O.2       22 UNK        -0.5000 
    124 C124       -0.3163  -18.8414  -56.4090 C.3       23 UNK        -0.0398 
    125 S125       -0.2404  -19.7627  -54.8374 S.3       23 UNK        -0.2404 
    126 C126        1.4551  -19.4093  -54.2815 C.3       23 UNK        -0.0205 
    127 H127        3.0407  -11.7172  -52.9998 H         1 UNK         0.0600 
    128 H128        2.8772  -10.0409  -52.4689 H         1 UNK         0.0600 
    129 H129        1.6266  -10.7748  -53.4789 H         1 UNK         0.0600 
    130 H130        2.5428  -13.1961  -51.4045 H         1 UNK         0.3000 
    131 H131        1.0452  -12.4687  -49.0272 H         1 UNK         0.0600 
    132 H132        3.0080  -13.8780  -48.7676 H         1 UNK         0.0800 
    133 H133        1.6112  -14.7502  -48.2437 H         1 UNK         0.0800 
    134 H134        0.3063  -16.5280  -50.1333 H         1 UNK         0.0800 
    135 H135        1.2734  -17.1257  -48.8061 H         1 UNK         0.0800 
    136 H136        1.3490  -17.2862  -52.5848 H         1 UNK         0.1150 
    137 H137        1.6258  -21.5601  -52.6250 H         1 UNK         0.1150 
    138 H138        1.5048  -19.4283  -48.9016 H         1 UNK         0.1150 
    139 H139        0.5259  -22.0862  -49.4992 H         1 UNK         0.0800 
    140 H140        1.5932  -22.8102  -50.6572 H         1 UNK         0.0800 
    141 H141        1.4640  -20.7340  -47.3149 H         1 UNK         0.0800 
    142 H142        2.8897  -21.3065  -46.5247 H         1 UNK         0.0800 
    143 H143        1.7242  -23.6448  -46.4381 H         1 UNK         0.0600 
    144 H144        1.5198  -21.4598  -44.6477 H         1 UNK         0.3000 
    145 H145       -0.2774  -23.1353  -42.0464 H         1 UNK         0.0600 
    146 H146        1.6765  -22.3043  -40.7820 H         1 UNK         0.0600 
    147 H147        2.1516  -23.6779  -41.7690 H         1 UNK         0.0600 
    148 H148        2.5796  -22.0468  -42.2729 H         1 UNK         0.0600 
    149 H149        0.6624  -20.4591  -42.2616 H         1 UNK         0.3000 
    150 H150       -2.2589  -19.1000  -43.8821 H         1 UNK         0.0600 
    151 H151       -2.7370  -19.1904  -41.4341 H         1 UNK         0.0600 
    152 H152       -2.1114  -17.6167  -41.9070 H         1 UNK         0.0600 
    153 H153       -1.0647  -18.7687  -41.0817 H         1 UNK         0.0600 
    154 H154        0.1387  -17.8367  -43.0513 H         1 UNK         0.3000 
    155 H155        2.0040  -18.3282  -46.0792 H         1 UNK         0.0600 
    156 H156        2.1060  -15.8605  -45.8698 H         1 UNK         0.0600 
    157 H157        0.7325  -15.8710  -44.7652 H         1 UNK         0.0600 
    158 H158        0.5208  -16.3600  -46.4406 H         1 UNK         0.0600 
    159 H159        2.5710  -17.0444  -43.5662 H         1 UNK         0.3000 
    160 H160        4.1776  -19.8498  -42.0447 H         1 UNK         0.0600 
    161 H161        5.2569  -17.2258  -43.2105 H         1 UNK         0.0600 
    162 H162        5.8533  -18.8356  -43.5968 H         1 UNK         0.0600 
    163 H163        6.0302  -18.2077  -41.9662 H         1 UNK         0.0600 
    164 H164        3.7884  -17.1377  -41.2096 H         1 UNK         0.3000 
    165 H165        0.6961  -17.6679  -39.5021 H         1 UNK         0.0600 
    166 H166        2.0516  -16.8160  -37.6236 H         1 UNK         0.0600 
    167 H167        2.5177  -18.4701  -37.9833 H         1 UNK         0.0600 
    168 H168        3.5452  -17.1400  -38.5041 H         1 UNK         0.0600 
    169 H169        2.1727  -15.3190  -39.6117 H         1 UNK         0.3000 
    170 H170        1.2203  -13.5405  -40.6547 H         1 UNK         0.0600 
    171 H171        3.1641  -13.9882  -42.1733 H         1 UNK         0.0600 
    172 H172        2.0679  -14.2320  -43.5282 H         1 UNK         0.0600 
    173 H173        2.1975  -12.6479  -42.7691 H         1 UNK         0.0600 
    174 H174       -0.2856  -13.6656  -43.1713 H         1 UNK         0.3000 
    175 H175       -3.4906  -13.7022  -41.6059 H         1 UNK         0.0600 
    176 H176       -3.8010  -11.9215  -43.3042 H         1 UNK         0.0600 
    177 H177       -2.8518  -11.3477  -41.9421 H         1 UNK         0.0600 
    178 H178       -2.0552  -11.7323  -43.4583 H         1 UNK         0.0600 
    179 H179       -3.5607  -15.1363  -43.2434 H         1 UNK         0.3000 
    180 H180       -1.8325  -16.4656  -45.4524 H         1 UNK         0.0600 
    181 H181       -4.7321  -15.4469  -45.3186 H         1 UNK         0.0600 
    182 H182       -4.0330  -16.7122  -44.3038 H         1 UNK         0.0600 
    183 H183       -4.2303  -16.9818  -46.0168 H         1 UNK         0.0600 
    184 H184       -2.3214  -14.0645  -46.8565 H         1 UNK         0.3000 
    185 H185       -2.1765  -15.5407  -50.1295 H         1 UNK         0.0600 
    186 H186       -4.3662  -14.4124  -49.5216 H         1 UNK         0.0600 
    187 H187       -3.4617  -13.1138  -48.7531 H         1 UNK         0.0600 
    188 H188       -3.3121  -13.3902  -50.4863 H         1 UNK         0.0600 
    189 H189       -0.6405  -14.0212  -48.2005 H         1 UNK         0.3000 
    190 H190       -0.7802  -21.0518  -46.1723 H         1 UNK         0.3000 
    191 H191       -2.4623  -21.8978  -48.2291 H         1 UNK         0.0600 
    192 H192       -3.2491  -20.4735  -45.6333 H         1 UNK         0.0600 
    193 H193       -4.1625  -20.4755  -47.1340 H         1 UNK         0.0600 
    194 H194       -2.5992  -19.6785  -47.0620 H         1 UNK         0.0600 
    195 H195       -2.4502  -22.9666  -44.8163 H         1 UNK         0.3000 
    196 H196       -4.7546  -24.6152  -44.9350 H         1 UNK         0.0600 
    197 H197       -3.7912  -25.6623  -42.8843 H         1 UNK         0.0600 
    198 H198       -3.6920  -23.9091  -42.8100 H         1 UNK         0.0600 
    199 H199       -2.2543  -24.8579  -43.1779 H         1 UNK         0.0600 
    200 H200       -1.3207  -25.3400  -45.6663 H         1 UNK         0.3000 
    201 H201       -1.7441  -28.1349  -46.2569 H         1 UNK         0.0600 
    202 H202        0.4553  -27.2528  -45.5202 H         1 UNK         0.0600 
    203 H203        0.5727  -26.2575  -46.9686 H         1 UNK         0.0600 
    204 H204        0.5953  -28.0116  -47.0996 H         1 UNK         0.0600 
    205 H205       -1.5324  -25.1648  -48.2244 H         1 UNK         0.3000 
    206 H206       -1.7685  -26.4677  -50.7765 H         1 UNK         0.0600 
    207 H207       -0.5895  -24.2945  -50.3935 H         1 UNK         0.0600 
    208 H208       -1.8382  -24.1344  -51.6120 H         1 UNK         0.0600 
    209 H209       -2.1231  -23.5270  -49.9853 H         1 UNK         0.0600 
    210 H210       -4.1358  -25.9329  -48.4473 H         1 UNK         0.3000 
    211 H211       -6.3431  -25.9938  -48.3246 H         1 UNK         0.0600 
    212 H212       -6.3409  -27.1496  -51.1643 H         1 UNK         0.0600 
    213 H213       -7.6529  -27.2450  -49.9990 H         1 UNK         0.0600 
    214 H214       -6.1416  -28.0816  -49.6813 H         1 UNK         0.0600 
    215 H215       -5.3676  -23.6067  -48.6768 H         1 UNK         0.3000 
    216 H216       -5.8867  -21.5070  -48.9111 H         1 UNK         0.0600 
    217 H217       -8.1659  -20.7452  -49.3830 H         1 UNK         0.0600 
    218 H218       -8.2353  -22.1712  -48.3621 H         1 UNK         0.0600 
    219 H219       -8.6003  -22.2948  -50.0836 H         1 UNK         0.0600 
    220 H220       -5.1653  -23.3143  -51.5375 H         1 UNK         0.3000 
    221 H221       -5.6348  -21.6003  -53.7366 H         1 UNK         0.0600 
    222 H222       -3.3631  -23.6109  -53.3169 H         1 UNK         0.0600 
    223 H223       -4.9658  -23.9919  -53.9433 H         1 UNK         0.0600 
    224 H224       -3.8857  -22.9516  -54.8598 H         1 UNK         0.0600 
    225 H225       -3.3451  -21.3105  -51.1734 H         1 UNK         0.3000 
    226 H226       -1.3172  -19.6594  -52.1414 H         1 UNK         0.0600 
    227 H227       -1.2414  -18.8646  -49.7392 H         1 UNK         0.0600 
    228 H228       -2.7682  -19.6738  -49.4468 H         1 UNK         0.0600 
    229 H229       -1.3331  -20.6138  -49.8710 H         1 UNK         0.0600 
    230 H230       -4.6890  -18.8137  -51.3557 H         1 UNK         0.3000 
    231 H231       -4.3170  -15.9547  -51.4297 H         1 UNK         0.0600 
    232 H232       -6.1580  -17.0406  -50.1570 H         1 UNK         0.0600 
    233 H233       -6.8489  -17.6654  -51.6550 H         1 UNK         0.0600 
    234 H234       -6.8037  -15.9318  -51.3571 H         1 UNK         0.0600 
    235 H235       -4.6210  -18.3633  -53.9361 H         1 UNK         0.3000 
    236 H236       -5.5724  -16.4380  -55.9691 H         1 UNK         0.0600 
    237 H237       -5.5689  -18.3829  -57.4660 H         1 UNK         0.0600 
    238 H238       -4.8313  -19.3968  -56.2370 H         1 UNK         0.0600 
    239 H239       -6.4600  -18.7664  -56.0014 H         1 UNK         0.0600 
    240 H240       -2.6541  -18.4542  -55.2234 H         1 UNK         0.3000 
    241 H241       -1.1468  -17.1428  -57.3509 H         1 UNK         0.0600 
    242 H242       -1.4211  -16.4597  -53.8510 H         1 UNK         0.3800 
    243 H243       -0.1746  -15.2515  -53.9070 H         1 UNK         0.3800 
    244 H244       -0.8047  -19.4889  -57.1383 H         1 UNK         0.0800 
    245 H245        0.6907  -18.6803  -56.7976 H         1 UNK         0.0800 
    246 H246        2.1384  -20.1501  -54.6991 H         1 UNK         0.0800 
    247 H247        1.7819  -18.4383  -54.6568 H         1 UNK         0.0800 
@<TRIPOS>BOND
     1    1    2 1    
     2    1  127 1    
     3    1  128 1    
     4    1  129 1    
     5    2    3 2    
     6    2    4 am   BACKBONE|DICT|INTERRES
     7    4    5 1    
     8    4  130 1    
     9    5    6 1    
    10    5   65 1    
    11    5  131 1    
    12    6    7 1    
    13    6  132 1    
    14    6  133 1    
    15    7    8 1    
    16    8    9 1    
    17    8  134 1    
    18    8  135 1    
    19    9   10 ar   
    20    9   14 ar   
    21   10   11 ar   
    22   10  136 1    
    23   11   12 ar   
    24   11  126 1    
    25   12   13 ar   
    26   12  137 1    
    27   13   14 ar   
    28   13   15 1    
    29   14  138 1    
    30   15   16 1    
    31   15  139 1    
    32   15  140 1    
    33   16   17 1    
    34   17   18 1    
    35   17  141 1    
    36   17  142 1    
    37   18   19 1    
    38   18   67 1    
    39   18  143 1    
    40   19   20 am   BACKBONE|DICT|INTERRES
    41   19  144 1    
    42   20   21 2    
    43   20   22 1    
    44   22   23 1    
    45   22   24 1    
    46   22  145 1    
    47   23  146 1    
    48   23  147 1    
    49   23  148 1    
    50   24   25 am   BACKBONE|DICT|INTERRES
    51   24  149 1    
    52   25   26 2    
    53   25   27 1    
    54   27   28 1    
    55   27   29 1    
    56   27  150 1    
    57   28  151 1    
    58   28  152 1    
    59   28  153 1    
    60   29   30 am   BACKBONE|DICT|INTERRES
    61   29  154 1    
    62   30   31 2    
    63   30   32 1    
    64   32   33 1    
    65   32   34 1    
    66   32  155 1    
    67   33  156 1    
    68   33  157 1    
    69   33  158 1    
    70   34   35 am   BACKBONE|DICT|INTERRES
    71   34  159 1    
    72   35   36 2    
    73   35   37 1    
    74   37   38 1    
    75   37   39 1    
    76   37  160 1    
    77   38  161 1    
    78   38  162 1    
    79   38  163 1    
    80   39   40 am   BACKBONE|DICT|INTERRES
    81   39  164 1    
    82   40   41 2    
    83   40   42 1    
    84   42   43 1    
    85   42   44 1    
    86   42  165 1    
    87   43  166 1    
    88   43  167 1    
    89   43  168 1    
    90   44   45 am   BACKBONE|DICT|INTERRES
    91   44  169 1    
    92   45   46 2    
    93   45   47 1    
    94   47   48 1    
    95   47   49 1    
    96   47  170 1    
    97   48  171 1    
    98   48  172 1    
    99   48  173 1    
   100   49   50 am   BACKBONE|DICT|INTERRES
   101   49  174 1    
   102   50   51 2    
   103   50   52 1    
   104   52   53 1    
   105   52   54 1    
   106   52  175 1    
   107   53  176 1    
   108   53  177 1    
   109   53  178 1    
   110   54   55 am   BACKBONE|DICT|INTERRES
   111   54  179 1    
   112   55   56 2    
   113   55   57 1    
   114   57   58 1    
   115   57   59 1    
   116   57  180 1    
   117   58  181 1    
   118   58  182 1    
   119   58  183 1    
   120   59   60 am   BACKBONE|DICT|INTERRES
   121   59  184 1    
   122   60   61 2    
   123   60   62 1    
   124   62   63 1    
   125   62   64 1    
   126   62  185 1    
   127   63  186 1    
   128   63  187 1    
   129   63  188 1    
   130   64   65 am   BACKBONE|DICT|INTERRES
   131   64  189 1    
   132   65   66 2    
   133   67   68 2    
   134   67   69 am   BACKBONE|DICT|INTERRES
   135   69   70 1    
   136   69  190 1    
   137   70   71 1    
   138   70   72 1    
   139   70  191 1    
   140   71  192 1    
   141   71  193 1    
   142   71  194 1    
   143   72   73 2    
   144   72   74 am   BACKBONE|DICT|INTERRES
   145   74   75 1    
   146   74  195 1    
   147   75   76 1    
   148   75   77 1    
   149   75  196 1    
   150   76  197 1    
   151   76  198 1    
   152   76  199 1    
   153   77   78 2    
   154   77   79 am   BACKBONE|DICT|INTERRES
   155   79   80 1    
   156   79  200 1    
   157   80   81 1    
   158   80   82 1    
   159   80  201 1    
   160   81  202 1    
   161   81  203 1    
   162   81  204 1    
   163   82   83 2    
   164   82   84 am   BACKBONE|DICT|INTERRES
   165   84   85 1    
   166   84  205 1    
   167   85   86 1    
   168   85   87 1    
   169   85  206 1    
   170   86  207 1    
   171   86  208 1    
   172   86  209 1    
   173   87   88 2    
   174   87   89 am   BACKBONE|DICT|INTERRES
   175   89   90 1    
   176   89  210 1    
   177   90   91 1    
   178   90   92 1    
   179   90  211 1    
   180   91  212 1    
   181   91  213 1    
   182   91  214 1    
   183   92   93 2    
   184   92   94 am   BACKBONE|DICT|INTERRES
   185   94   95 1    
   186   94  215 1    
   187   95   96 1    
   188   95   97 1    
   189   95  216 1    
   190   96  217 1    
   191   96  218 1    
   192   96  219 1    
   193   97   98 2    
   194   97   99 am   BACKBONE|DICT|INTERRES
   195   99  100 1    
   196   99  220 1    
   197  100  101 1    
   198  100  102 1    
   199  100  221 1    
   200  101  222 1    
   201  101  223 1    
   202  101  224 1    
   203  102  103 2    
   204  102  104 am   BACKBONE|DICT|INTERRES
   205  104  105 1    
   206  104  225 1    
   207  105  106 1    
   208  105  107 1    
   209  105  226 1    
   210  106  227 1    
   211  106  228 1    
   212  106  229 1    
   213  107  108 2    
   214  107  109 am   BACKBONE|DICT|INTERRES
   215  109  110 1    
   216  109  230 1    
   217  110  111 1    
   218  110  112 1    
   219  110  231 1    
   220  111  232 1    
   221  111  233 1    
   222  111  234 1    
   223  112  113 2    
   224  112  114 am   BACKBONE|DICT|INTERRES
   225  114  115 1    
   226  114  235 1    
   227  115  116 1    
   228  115  117 1    
   229  115  236 1    
   230  116  237 1    
   231  116  238 1    
   232  116  239 1    
   233  117  118 2    
   234  117  119 am   BACKBONE|DICT|INTERRES
   235  119  120 1    
   236  119  240 1    
   237  120  121 1    
   238  120  124 1    
   239  120  241 1    
   240  121  122 am   BACKBONE|DICT|INTERRES
   241  121  123 2    
   242  122  242 1    
   243  122  243 1    
   244  124  125 1    
   245  124  244 1    
   246  124  245 1    
   247  125  126 1    
   248  126  246 1    
   249  126  247 1    
@<TRIPOS>SUBSTRUCTURE
     1 UNK         1 GROUP             0       ****    0 ROOT    
