@<TRIPOS>MOLECULE
3R540
247   249    1
SMALL
USER_CHARGES


@<TRIPOS>ATOM
      1 CA          2.5699  -13.8342  -50.7446 C.3       0 UNK        -0.1800 
      2 C           1.3814  -14.0510  -49.8182 C.2       0 UNK         0.5000 
      3 O           0.8552  -15.1609  -49.7513 O.2       0 UNK        -0.5000 
      4 N           0.9619  -12.9924  -49.1135 N.am      1 UNK        -0.5000 
      5 CA         -0.0961  -13.0177  -48.0984 C.3       1 UNK         0.1400 
      6 C6         -0.7331  -11.6039  -47.9551 C.3       23 UNK        -0.0398 
      7 S7         -2.2656  -11.4995  -46.9549 S.3       23 UNK        -0.2404 
      8 C8         -3.5825  -11.8689  -48.1641 C.3       23 UNK        -0.0205 
      9 C9         -3.4519  -13.2692  -48.7458 C.ar      23 UNK        -0.0193 
     10 C10        -3.2948  -13.4462  -50.1233 C.ar      23 UNK        -0.1150 
     11 C11        -3.0884  -14.7220  -50.6555 C.ar      23 UNK        -0.0193 
     12 C12        -3.0317  -15.8260  -49.7991 C.ar      23 UNK        -0.1150 
     13 C13        -3.1822  -15.6598  -48.4194 C.ar      23 UNK        -0.0193 
     14 C14        -3.4260  -14.3849  -47.9022 C.ar      23 UNK        -0.1150 
     15 C15        -3.0095  -16.8396  -47.4778 C.3       23 UNK        -0.0205 
     16 S16        -1.2444  -17.0694  -47.0957 S.3       23 UNK        -0.2404 
     17 C17        -1.3062  -18.1433  -45.6286 C.3       23 UNK        -0.0398 
     18 CA         -1.0444  -19.6313  -45.9642 C.3       11 UNK         0.1400 
     19 N          -0.4235  -20.3377  -44.8421 N.am      11 UNK        -0.5000 
     20 C           0.0133  -21.6048  -44.8696 C.2       10 UNK         0.5000 
     21 O           0.0113  -22.3116  -45.8766 O.2       10 UNK        -0.5000 
     22 CA          0.4722  -22.1974  -43.5261 C.3       10 UNK         0.1400 
     23 CB          1.9292  -21.8152  -43.2219 C.3       10 UNK        -0.1800 
     24 N          -0.3958  -21.7742  -42.4251 N.am      10 UNK        -0.5000 
     25 C          -1.6709  -22.1647  -42.2784 C.2       9 UNK         0.5000 
     26 O          -2.2303  -22.9645  -43.0272 O.2       9 UNK        -0.5000 
     27 CA         -2.4684  -21.5149  -41.1327 C.3       9 UNK         0.1400 
     28 CB         -2.1911  -22.2337  -39.8042 C.3       9 UNK        -0.1800 
     29 N          -2.1738  -20.0890  -40.9839 N.am      9 UNK        -0.5000 
     30 C          -2.4697  -19.1501  -41.8946 C.2       8 UNK         0.5000 
     31 O          -3.0769  -19.3790  -42.9396 O.2       8 UNK        -0.5000 
     32 CA         -1.9369  -17.7301  -41.6223 C.3       8 UNK         0.1400 
     33 CB         -2.9436  -16.9191  -40.7943 C.3       8 UNK        -0.1800 
     34 N          -0.6360  -17.7383  -40.9459 N.am      8 UNK        -0.5000 
     35 C           0.4829  -18.2321  -41.4901 C.2       7 UNK         0.5000 
     36 O           0.5450  -18.6619  -42.6464 O.2       7 UNK        -0.5000 
     37 CA          1.7058  -18.3420  -40.5708 C.3       7 UNK         0.1400 
     38 CB          1.5324  -19.5223  -39.5931 C.3       7 UNK        -0.1800 
     39 N           2.8784  -18.5463  -41.4104 N.am      7 UNK        -0.5000 
     40 C           4.1600  -18.4932  -41.0327 C.2       6 UNK         0.5000 
     41 O           4.5297  -18.2893  -39.8757 O.2       6 UNK        -0.5000 
     42 CA          5.2118  -18.6884  -42.1444 C.3       6 UNK         0.1400 
     43 CB          5.6198  -20.1668  -42.2413 C.3       6 UNK        -0.1800 
     44 N           4.7626  -18.2291  -43.4635 N.am      6 UNK        -0.5000 
     45 C           4.4925  -16.9527  -43.7689 C.2       5 UNK         0.5000 
     46 O           4.6173  -16.0228  -42.9679 O.2       5 UNK        -0.5000 
     47 CA          3.9655  -16.6966  -45.1966 C.3       5 UNK         0.1400 
     48 CB          2.5243  -17.2190  -45.3330 C.3       5 UNK        -0.1800 
     49 N           3.9844  -15.2773  -45.5511 N.am      5 UNK        -0.5000 
     50 C           5.0842  -14.5281  -45.7128 C.2       4 UNK         0.5000 
     51 O           6.2299  -14.9813  -45.7041 O.2       4 UNK        -0.5000 
     52 CA          4.8695  -13.0158  -45.9040 C.3       4 UNK         0.1400 
     53 CB          4.7333  -12.6726  -47.3966 C.3       4 UNK        -0.1800 
     54 N           3.6792  -12.5503  -45.1892 N.am      4 UNK        -0.5000 
     55 C           3.6714  -12.1004  -43.9263 C.2       3 UNK         0.5000 
     56 O           4.6896  -11.9558  -43.2485 O.2       3 UNK        -0.5000 
     57 CA          2.3037  -11.7326  -43.3123 C.3       3 UNK         0.1400 
     58 CB          2.0353  -10.2277  -43.4683 C.3       3 UNK        -0.1800 
     59 N           1.1871  -12.4732  -43.9009 N.am      3 UNK        -0.5000 
     60 C           0.9052  -13.7587  -43.6479 C.2       2 UNK         0.5000 
     61 O           1.5014  -14.4374  -42.8130 O.2       2 UNK        -0.5000 
     62 CA         -0.2199  -14.4081  -44.4807 C.3       2 UNK         0.1400 
     63 CB         -1.5358  -14.4268  -43.6893 C.3       2 UNK        -0.1800 
     64 N          -0.4660  -13.7940  -45.7896 N.am      2 UNK        -0.5000 
     65 C           0.4288  -13.6172  -46.7698 C.2       1 UNK         0.5000 
     66 O           1.6229  -13.8935  -46.6374 O.2       1 UNK        -0.5000 
     67 C          -2.3302  -20.3383  -46.4406 C.2       11 UNK         0.5000 
     68 O          -2.4782  -20.5905  -47.6354 O.2       11 UNK        -0.5000 
     69 N          -3.2112  -20.6887  -45.4923 N.am      12 UNK        -0.5000 
     70 CA         -4.4456  -21.4353  -45.7350 C.3       12 UNK         0.1400 
     71 CB         -5.2748  -21.4938  -44.4437 C.3       12 UNK        -0.1800 
     72 C          -4.1912  -22.8486  -46.2896 C.2       12 UNK         0.5000 
     73 O          -4.8657  -23.2556  -47.2351 O.2       12 UNK        -0.5000 
     74 N          -3.2024  -23.5547  -45.7222 N.am      13 UNK        -0.5000 
     75 CA         -2.7666  -24.8789  -46.1703 C.3       13 UNK         0.1400 
     76 CB         -1.7520  -25.4557  -45.1720 C.3       13 UNK        -0.1800 
     77 C          -2.1860  -24.8734  -47.5966 C.2       13 UNK         0.5000 
     78 O          -2.4286  -25.8173  -48.3480 O.2       13 UNK        -0.5000 
     79 N          -1.4553  -23.8076  -47.9526 N.am      14 UNK        -0.5000 
     80 CA         -0.9622  -23.5670  -49.3067 C.3       14 UNK         0.1400 
     81 CB          0.1043  -22.4615  -49.2878 C.3       14 UNK        -0.1800 
     82 C          -2.1047  -23.2190  -50.2755 C.2       14 UNK         0.5000 
     83 O          -2.1899  -23.8144  -51.3484 O.2       14 UNK        -0.5000 
     84 N          -2.9790  -22.2845  -49.8767 N.am      15 UNK        -0.5000 
     85 CA         -4.1323  -21.8274  -50.6564 C.3       15 UNK         0.1400 
     86 CB         -4.8435  -20.6958  -49.8994 C.3       15 UNK        -0.1800 
     87 C          -5.1241  -22.9501  -51.0138 C.2       15 UNK         0.5000 
     88 O          -5.6967  -22.9255  -52.1056 O.2       15 UNK        -0.5000 
     89 N          -5.2822  -23.9226  -50.1068 N.am      16 UNK        -0.5000 
     90 CA         -6.0652  -25.1436  -50.2745 C.3       16 UNK         0.1400 
     91 CB         -6.1947  -25.8399  -48.9087 C.3       16 UNK        -0.1800 
     92 C          -5.4706  -26.0786  -51.3497 C.2       16 UNK         0.5000 
     93 O          -4.7565  -27.0286  -51.0267 O.2       16 UNK        -0.5000 
     94 N          -5.7809  -25.7754  -52.6161 N.am      17 UNK        -0.5000 
     95 CA         -5.5267  -26.5328  -53.8487 C.3       17 UNK         0.1400 
     96 CB         -6.1782  -27.9278  -53.7830 C.3       17 UNK        -0.1800 
     97 C          -4.0565  -26.6356  -54.3035 C.2       17 UNK         0.5000 
     98 O          -3.8308  -26.7763  -55.5055 O.2       17 UNK        -0.5000 
     99 N          -3.0876  -26.5617  -53.3807 N.am      18 UNK        -0.5000 
    100 CA        -1.6555  -26.6651  -53.6772 C.3       18 UNK         0.1400 
    101 CB        -0.8607  -26.8845  -52.3798 C.3       18 UNK        -0.1800 
    102 C         -1.1377  -25.4546  -54.4760 C.2       18 UNK         0.5000 
    103 O         -0.5927  -25.6305  -55.5665 O.2       18 UNK        -0.5000 
    104 N         -1.3620  -24.2483  -53.9408 N.am      19 UNK        -0.5000 
    105 CA        -1.1268  -22.9768  -54.6281 C.3       19 UNK         0.1400 
    106 CB        -0.7935  -21.8922  -53.5908 C.3       19 UNK        -0.1800 
    107 C         -2.3406  -22.5479  -55.4745 C.2       19 UNK         0.5000 
    108 O         -2.1776  -21.7131  -56.3641 O.2       19 UNK        -0.5000 
    109 N         -3.5176  -23.1279  -55.1818 N.am      20 UNK        -0.5000 
    110 CA        -4.8287  -22.8638  -55.7836 C.3       20 UNK         0.1400 
    111 CB        -4.8496  -23.2735  -57.2702 C.3       20 UNK        -0.1800 
    112 C         -5.2568  -21.4038  -55.5486 C.2       20 UNK         0.5000 
    113 O         -5.1934  -20.5739  -56.4596 O.2       20 UNK        -0.5000 
    114 N         -5.6312  -21.1160  -54.2942 N.am      21 UNK        -0.5000 
    115 CA        -5.8924  -19.7874  -53.7400 C.3       21 UNK         0.1400 
    116 CB        -7.1610  -19.1605  -54.3632 C.3       21 UNK        -0.1800 
    117 C         -4.6232  -18.9187  -53.8369 C.2       21 UNK         0.5000 
    118 O         -3.6125  -19.2727  -53.2278 O.2       21 UNK        -0.5000 
    119 N         -4.6870  -17.8344  -54.6136 N.am      22 UNK        -0.5000 
    120 CA        -3.5500  -16.9590  -54.9342 C.3       22 UNK         0.1400 
    121 C         -2.9716  -17.2140  -56.3581 C.2       22 UNK         0.5000 
    122 N         -3.3918  -18.2459  -57.0822 N.am      22 UNK        -0.7600 
    123 O         -2.1105  -16.4679  -56.8163 O.2       22 UNK        -0.5000 
    124 C124       -3.8948  -15.4631  -54.7052 C.3       23 UNK        -0.0398 
    125 S125       -4.4740  -15.1220  -53.0069 S.3       23 UNK        -0.2404 
    126 C126       -2.8861  -14.9008  -52.1508 C.3       23 UNK        -0.0205 
    127 H127        3.3925  -14.4887  -50.4562 H         1 UNK         0.0600 
    128 H128        2.9284  -12.8050  -50.7119 H         1 UNK         0.0600 
    129 H129        2.2920  -14.0656  -51.7729 H         1 UNK         0.0600 
    130 H130        1.4623  -12.1202  -49.2010 H         1 UNK         0.3000 
    131 H131       -0.8570  -13.7065  -48.4588 H         1 UNK         0.0600 
    132 H132       -0.0074  -10.9104  -47.5272 H         1 UNK         0.0800 
    133 H133       -0.9656  -11.2087  -48.9453 H         1 UNK         0.0800 
    134 H134       -3.5668  -11.1129  -48.9507 H         1 UNK         0.0800 
    135 H135       -4.5513  -11.7809  -47.6707 H         1 UNK         0.0800 
    136 H136       -3.3119  -12.5899  -50.7830 H         1 UNK         0.1150 
    137 H137       -2.8391  -16.8106  -50.2023 H         1 UNK         0.1150 
    138 H138       -3.5322  -14.2514  -46.8348 H         1 UNK         0.1150 
    139 H139       -3.5731  -16.6692  -46.5593 H         1 UNK         0.0800 
    140 H140       -3.4095  -17.7488  -47.9296 H         1 UNK         0.0800 
    141 H141       -2.2418  -17.9985  -45.0867 H         1 UNK         0.0800 
    142 H142       -0.5264  -17.7768  -44.9610 H         1 UNK         0.0800 
    143 H143       -0.3231  -19.6798  -46.7832 H         1 UNK         0.0600 
    144 H144       -0.3216  -19.8156  -43.9779 H         1 UNK         0.3000 
    145 H145        0.4173  -23.2853  -43.6020 H         1 UNK         0.0600 
    146 H146        2.2592  -22.2353  -42.2717 H         1 UNK         0.0600 
    147 H147        2.5978  -22.1961  -43.9949 H         1 UNK         0.0600 
    148 H148        2.0678  -20.7360  -43.1779 H         1 UNK         0.0600 
    149 H149       -0.0237  -21.0837  -41.7923 H         1 UNK         0.3000 
    150 H150       -3.5305  -21.6197  -41.3641 H         1 UNK         0.0600 
    151 H151       -2.4163  -23.2982  -39.8827 H         1 UNK         0.0600 
    152 H152       -2.8093  -21.8306  -39.0017 H         1 UNK         0.0600 
    153 H153       -1.1468  -22.1401  -39.5033 H         1 UNK         0.0600 
    154 H154       -1.6820  -19.8105  -40.1483 H         1 UNK         0.3000 
    155 H155       -1.8125  -17.2384  -42.5887 H         1 UNK         0.0600 
    156 H156       -3.1011  -17.3568  -39.8078 H         1 UNK         0.0600 
    157 H157       -2.6049  -15.8922  -40.6560 H         1 UNK         0.0600 
    158 H158       -3.9127  -16.8757  -41.2933 H         1 UNK         0.0600 
    159 H159       -0.6172  -17.4013  -39.9939 H         1 UNK         0.3000 
    160 H160        1.8181  -17.4062  -40.0199 H         1 UNK         0.0600 
    161 H161        1.4611  -20.4742  -40.1207 H         1 UNK         0.0600 
    162 H162        0.6306  -19.4104  -38.9903 H         1 UNK         0.0600 
    163 H163        2.3687  -19.5920  -38.8979 H         1 UNK         0.0600 
    164 H164        2.6545  -18.6812  -42.3880 H         1 UNK         0.3000 
    165 H165        6.0942  -18.1074  -41.8681 H         1 UNK         0.0600 
    166 H166        6.4215  -20.3090  -42.9661 H         1 UNK         0.0600 
    167 H167        5.9831  -20.5351  -41.2809 H         1 UNK         0.0600 
    168 H168        4.7813  -20.7980  -42.5380 H         1 UNK         0.0600 
    169 H169        4.6444  -18.9401  -44.1707 H         1 UNK         0.3000 
    170 H170        4.6042  -17.2287  -45.9044 H         1 UNK         0.0600 
    171 H171        2.4873  -18.3061  -45.2544 H         1 UNK         0.0600 
    172 H172        1.8833  -16.8190  -44.5479 H         1 UNK         0.0600 
    173 H173        2.0875  -16.9495  -46.2954 H         1 UNK         0.0600 
    174 H174        3.0841  -14.8198  -45.6352 H         1 UNK         0.3000 
    175 H175        5.7527  -12.5003  -45.5207 H         1 UNK         0.0600 
    176 H176        5.6302  -12.9628  -47.9450 H         1 UNK         0.0600 
    177 H177        3.8897  -13.1873  -47.8568 H         1 UNK         0.0600 
    178 H178        4.5940  -11.6016  -47.5440 H         1 UNK         0.0600 
    179 H179        2.7950  -12.7115  -45.6594 H         1 UNK         0.3000 
    180 H180        2.3483  -11.9615  -42.2453 H         1 UNK         0.0600 
    181 H181        1.9674   -9.9372  -44.5174 H         1 UNK         0.0600 
    182 H182        2.8347   -9.6394  -43.0158 H         1 UNK         0.0600 
    183 H183        1.1048   -9.9400  -42.9785 H         1 UNK         0.0600 
    184 H184        0.6312  -11.9885  -44.5895 H         1 UNK         0.3000 
    185 H185        0.0750  -15.4408  -44.6637 H         1 UNK         0.0600 
    186 H186       -1.3887  -14.8461  -42.6935 H         1 UNK         0.0600 
    187 H187       -1.9420  -13.4225  -43.5633 H         1 UNK         0.0600 
    188 H188       -2.2889  -15.0350  -44.1912 H         1 UNK         0.0600 
    189 H189       -1.4149  -13.4930  -45.9647 H         1 UNK         0.3000 
    190 H190       -3.0394  -20.4006  -44.5326 H         1 UNK         0.3000 
    191 H191       -5.0225  -20.8848  -46.4802 H         1 UNK         0.0600 
    192 H192       -4.7422  -22.0094  -43.6445 H         1 UNK         0.0600 
    193 H193       -6.2148  -22.0223  -44.6070 H         1 UNK         0.0600 
    194 H194       -5.5212  -20.4930  -44.0884 H         1 UNK         0.0600 
    195 H195       -2.7296  -23.1722  -44.9086 H         1 UNK         0.3000 
    196 H196       -3.6434  -25.5298  -46.1754 H         1 UNK         0.0600 
    197 H197       -1.4336  -26.4548  -45.4720 H         1 UNK         0.0600 
    198 H198       -2.1832  -25.5379  -44.1742 H         1 UNK         0.0600 
    199 H199       -0.8595  -24.8340  -45.1015 H         1 UNK         0.0600 
    200 H200       -1.2406  -23.1035  -47.2538 H         1 UNK         0.3000 
    201 H201       -0.4879  -24.4830  -49.6652 H         1 UNK         0.0600 
    202 H202        0.9473  -22.7404  -48.6553 H         1 UNK         0.0600 
    203 H203       -0.2935  -21.5182  -48.9133 H         1 UNK         0.0600 
    204 H204        0.4943  -22.2790  -50.2899 H         1 UNK         0.0600 
    205 H205       -2.8199  -21.8113  -48.9897 H         1 UNK         0.3000 
    206 H206       -3.7515  -21.4238  -51.5957 H         1 UNK         0.0600 
    207 H207       -4.1872  -19.8342  -49.7745 H         1 UNK         0.0600 
    208 H208       -5.7304  -20.3545  -50.4323 H         1 UNK         0.0600 
    209 H209       -5.1652  -21.0188  -48.9096 H         1 UNK         0.0600 
    210 H210       -4.8035  -23.8213  -49.2181 H         1 UNK         0.3000 
    211 H211       -7.0697  -24.8611  -50.5962 H         1 UNK         0.0600 
    212 H212       -5.2194  -26.0922  -48.4908 H         1 UNK         0.0600 
    213 H213       -6.7671  -26.7644  -48.9925 H         1 UNK         0.0600 
    214 H214       -6.7097  -25.2027  -48.1895 H         1 UNK         0.0600 
    215 H215       -6.2661  -24.8959  -52.7507 H         1 UNK         0.3000 
    216 H216       -6.0417  -25.9768  -54.6336 H         1 UNK         0.0600 
    217 H217       -6.0950  -28.4421  -54.7412 H         1 UNK         0.0600 
    218 H218       -7.2395  -27.8574  -53.5447 H         1 UNK         0.0600 
    219 H219       -5.7062  -28.5629  -53.0329 H         1 UNK         0.0600 
    220 H220       -3.3610  -26.4935  -52.4063 H         1 UNK         0.3000 
    221 H221       -1.5092  -27.5504  -54.3000 H         1 UNK         0.0600 
    222 H222       -1.0093  -26.0780  -51.6637 H         1 UNK         0.0600 
    223 H223       -1.1557  -27.8146  -51.8938 H         1 UNK         0.0600 
    224 H224        0.2088  -26.9495  -52.5836 H         1 UNK         0.0600 
    225 H225       -1.7633  -24.1873  -53.0044 H         1 UNK         0.3000 
    226 H226       -0.2698  -23.0790  -55.2971 H         1 UNK         0.0600 
    227 H227        0.0403  -22.1920  -52.9560 H         1 UNK         0.0600 
    228 H228       -0.5122  -20.9596  -54.0815 H         1 UNK         0.0600 
    229 H229       -1.6462  -21.6727  -52.9478 H         1 UNK         0.0600 
    230 H230       -3.5123  -23.7876  -54.4185 H         1 UNK         0.3000 
    231 H231       -5.5475  -23.4974  -55.2617 H         1 UNK         0.0600 
    232 H232       -5.8464  -23.1438  -57.6928 H         1 UNK         0.0600 
    233 H233       -4.5778  -24.3223  -57.3909 H         1 UNK         0.0600 
    234 H234       -4.1620  -22.6785  -57.8717 H         1 UNK         0.0600 
    235 H235       -5.6271  -21.8646  -53.6046 H         1 UNK         0.3000 
    236 H236       -6.0885  -19.9275  -52.6777 H         1 UNK         0.0600 
    237 H237       -8.0257  -19.8058  -54.2082 H         1 UNK         0.0600 
    238 H238       -7.3920  -18.2012  -53.8982 H         1 UNK         0.0600 
    239 H239       -7.0652  -18.9956  -55.4366 H         1 UNK         0.0600 
    240 H240       -5.5491  -17.6353  -55.0994 H         1 UNK         0.3000 
    241 H241       -2.7211  -17.1931  -54.2646 H         1 UNK         0.0600 
    242 H242       -2.9939  -18.3971  -57.9952 H         1 UNK         0.3800 
    243 H243       -4.0595  -18.9186  -56.7187 H         1 UNK         0.3800 
    244 H244       -3.0317  -14.8279  -54.9123 H         1 UNK         0.0800 
    245 H245       -4.6757  -15.1470  -55.3985 H         1 UNK         0.0800 
    246 H246       -2.2456  -15.7644  -52.3358 H         1 UNK         0.0800 
    247 H247       -2.3653  -14.0357  -52.5642 H         1 UNK         0.0800 
@<TRIPOS>BOND
     1    1    2 1    
     2    1  127 1    
     3    1  128 1    
     4    1  129 1    
     5    2    3 2    
     6    2    4 am   BACKBONE|DICT|INTERRES
     7    4    5 1    
     8    4  130 1    
     9    5    6 1    
    10    5   65 1    
    11    5  131 1    
    12    6    7 1    
    13    6  132 1    
    14    6  133 1    
    15    7    8 1    
    16    8    9 1    
    17    8  134 1    
    18    8  135 1    
    19    9   10 ar   
    20    9   14 ar   
    21   10   11 ar   
    22   10  136 1    
    23   11   12 ar   
    24   11  126 1    
    25   12   13 ar   
    26   12  137 1    
    27   13   14 ar   
    28   13   15 1    
    29   14  138 1    
    30   15   16 1    
    31   15  139 1    
    32   15  140 1    
    33   16   17 1    
    34   17   18 1    
    35   17  141 1    
    36   17  142 1    
    37   18   19 1    
    38   18   67 1    
    39   18  143 1    
    40   19   20 am   BACKBONE|DICT|INTERRES
    41   19  144 1    
    42   20   21 2    
    43   20   22 1    
    44   22   23 1    
    45   22   24 1    
    46   22  145 1    
    47   23  146 1    
    48   23  147 1    
    49   23  148 1    
    50   24   25 am   BACKBONE|DICT|INTERRES
    51   24  149 1    
    52   25   26 2    
    53   25   27 1    
    54   27   28 1    
    55   27   29 1    
    56   27  150 1    
    57   28  151 1    
    58   28  152 1    
    59   28  153 1    
    60   29   30 am   BACKBONE|DICT|INTERRES
    61   29  154 1    
    62   30   31 2    
    63   30   32 1    
    64   32   33 1    
    65   32   34 1    
    66   32  155 1    
    67   33  156 1    
    68   33  157 1    
    69   33  158 1    
    70   34   35 am   BACKBONE|DICT|INTERRES
    71   34  159 1    
    72   35   36 2    
    73   35   37 1    
    74   37   38 1    
    75   37   39 1    
    76   37  160 1    
    77   38  161 1    
    78   38  162 1    
    79   38  163 1    
    80   39   40 am   BACKBONE|DICT|INTERRES
    81   39  164 1    
    82   40   41 2    
    83   40   42 1    
    84   42   43 1    
    85   42   44 1    
    86   42  165 1    
    87   43  166 1    
    88   43  167 1    
    89   43  168 1    
    90   44   45 am   BACKBONE|DICT|INTERRES
    91   44  169 1    
    92   45   46 2    
    93   45   47 1    
    94   47   48 1    
    95   47   49 1    
    96   47  170 1    
    97   48  171 1    
    98   48  172 1    
    99   48  173 1    
   100   49   50 am   BACKBONE|DICT|INTERRES
   101   49  174 1    
   102   50   51 2    
   103   50   52 1    
   104   52   53 1    
   105   52   54 1    
   106   52  175 1    
   107   53  176 1    
   108   53  177 1    
   109   53  178 1    
   110   54   55 am   BACKBONE|DICT|INTERRES
   111   54  179 1    
   112   55   56 2    
   113   55   57 1    
   114   57   58 1    
   115   57   59 1    
   116   57  180 1    
   117   58  181 1    
   118   58  182 1    
   119   58  183 1    
   120   59   60 am   BACKBONE|DICT|INTERRES
   121   59  184 1    
   122   60   61 2    
   123   60   62 1    
   124   62   63 1    
   125   62   64 1    
   126   62  185 1    
   127   63  186 1    
   128   63  187 1    
   129   63  188 1    
   130   64   65 am   BACKBONE|DICT|INTERRES
   131   64  189 1    
   132   65   66 2    
   133   67   68 2    
   134   67   69 am   BACKBONE|DICT|INTERRES
   135   69   70 1    
   136   69  190 1    
   137   70   71 1    
   138   70   72 1    
   139   70  191 1    
   140   71  192 1    
   141   71  193 1    
   142   71  194 1    
   143   72   73 2    
   144   72   74 am   BACKBONE|DICT|INTERRES
   145   74   75 1    
   146   74  195 1    
   147   75   76 1    
   148   75   77 1    
   149   75  196 1    
   150   76  197 1    
   151   76  198 1    
   152   76  199 1    
   153   77   78 2    
   154   77   79 am   BACKBONE|DICT|INTERRES
   155   79   80 1    
   156   79  200 1    
   157   80   81 1    
   158   80   82 1    
   159   80  201 1    
   160   81  202 1    
   161   81  203 1    
   162   81  204 1    
   163   82   83 2    
   164   82   84 am   BACKBONE|DICT|INTERRES
   165   84   85 1    
   166   84  205 1    
   167   85   86 1    
   168   85   87 1    
   169   85  206 1    
   170   86  207 1    
   171   86  208 1    
   172   86  209 1    
   173   87   88 2    
   174   87   89 am   BACKBONE|DICT|INTERRES
   175   89   90 1    
   176   89  210 1    
   177   90   91 1    
   178   90   92 1    
   179   90  211 1    
   180   91  212 1    
   181   91  213 1    
   182   91  214 1    
   183   92   93 2    
   184   92   94 am   BACKBONE|DICT|INTERRES
   185   94   95 1    
   186   94  215 1    
   187   95   96 1    
   188   95   97 1    
   189   95  216 1    
   190   96  217 1    
   191   96  218 1    
   192   96  219 1    
   193   97   98 2    
   194   97   99 am   BACKBONE|DICT|INTERRES
   195   99  100 1    
   196   99  220 1    
   197  100  101 1    
   198  100  102 1    
   199  100  221 1    
   200  101  222 1    
   201  101  223 1    
   202  101  224 1    
   203  102  103 2    
   204  102  104 am   BACKBONE|DICT|INTERRES
   205  104  105 1    
   206  104  225 1    
   207  105  106 1    
   208  105  107 1    
   209  105  226 1    
   210  106  227 1    
   211  106  228 1    
   212  106  229 1    
   213  107  108 2    
   214  107  109 am   BACKBONE|DICT|INTERRES
   215  109  110 1    
   216  109  230 1    
   217  110  111 1    
   218  110  112 1    
   219  110  231 1    
   220  111  232 1    
   221  111  233 1    
   222  111  234 1    
   223  112  113 2    
   224  112  114 am   BACKBONE|DICT|INTERRES
   225  114  115 1    
   226  114  235 1    
   227  115  116 1    
   228  115  117 1    
   229  115  236 1    
   230  116  237 1    
   231  116  238 1    
   232  116  239 1    
   233  117  118 2    
   234  117  119 am   BACKBONE|DICT|INTERRES
   235  119  120 1    
   236  119  240 1    
   237  120  121 1    
   238  120  124 1    
   239  120  241 1    
   240  121  122 am   BACKBONE|DICT|INTERRES
   241  121  123 2    
   242  122  242 1    
   243  122  243 1    
   244  124  125 1    
   245  124  244 1    
   246  124  245 1    
   247  125  126 1    
   248  126  246 1    
   249  126  247 1    
@<TRIPOS>SUBSTRUCTURE
     1 UNK         1 GROUP             0       ****    0 ROOT    
