@<TRIPOS>MOLECULE
3R540
247   249    1
SMALL
USER_CHARGES


@<TRIPOS>ATOM
      1 CA         -2.8855  -16.1754  -44.1826 C.3       0 UNK        -0.1800 
      2 C          -2.3569  -15.0456  -45.0530 C.2       0 UNK         0.5000 
      3 O          -1.4313  -14.3472  -44.6468 O.2       0 UNK        -0.5000 
      4 N          -2.9625  -14.8311  -46.2303 N.am      1 UNK        -0.5000 
      5 CA         -2.5688  -13.8421  -47.2541 C.3       1 UNK         0.1400 
      6 C6         -1.1612  -14.1176  -47.8564 C.3       23 UNK        -0.0398 
      7 S7         -0.9818  -15.7834  -48.5798 S.3       23 UNK        -0.2404 
      8 C8          0.2618  -15.4293  -49.8622 C.3       23 UNK        -0.0205 
      9 C9          0.8369  -16.6963  -50.4768 C.ar      23 UNK        -0.0193 
     10 C10         0.6407  -16.9903  -51.8291 C.ar      23 UNK        -0.1150 
     11 C11         1.2284  -18.1236  -52.4013 C.ar      23 UNK        -0.0193 
     12 C12         1.9991  -18.9758  -51.6035 C.ar      23 UNK        -0.1150 
     13 C13         2.1723  -18.7117  -50.2429 C.ar      23 UNK        -0.0193 
     14 C14         1.6075  -17.5582  -49.6943 C.ar      23 UNK        -0.1150 
     15 C15         2.9689  -19.6671  -49.3640 C.3       23 UNK        -0.0205 
     16 S16         2.1631  -21.2954  -49.1825 S.3       23 UNK        -0.2404 
     17 C17         0.4797  -20.8333  -48.6540 C.3       23 UNK        -0.0398 
     18 CA         -0.1939  -21.9098  -47.7718 C.3       11 UNK         0.1400 
     19 N           0.4218  -22.0256  -46.4430 N.am      11 UNK        -0.5000 
     20 C           0.1304  -22.9895  -45.5567 C.2       10 UNK         0.5000 
     21 O          -0.6729  -23.8956  -45.7769 O.2       10 UNK        -0.5000 
     22 CA          0.8040  -22.9067  -44.1747 C.3       10 UNK         0.1400 
     23 CB          2.2614  -23.3873  -44.2376 C.3       10 UNK        -0.1800 
     24 N           0.7378  -21.5654  -43.5921 N.am      10 UNK        -0.5000 
     25 C          -0.4029  -20.9527  -43.2405 C.2       9 UNK         0.5000 
     26 O          -1.5127  -21.4721  -43.3370 O.2       9 UNK        -0.5000 
     27 CA         -0.3032  -19.4968  -42.7524 C.3       9 UNK         0.1400 
     28 CB          0.1220  -19.4332  -41.2784 C.3       9 UNK        -0.1800 
     29 N           0.6162  -18.7026  -43.5604 N.am      9 UNK        -0.5000 
     30 C           0.4791  -18.4670  -44.8713 C.2       8 UNK         0.5000 
     31 O          -0.4819  -18.8411  -45.5422 O.2       8 UNK        -0.5000 
     32 CA          1.6507  -17.7538  -45.5595 C.3       8 UNK         0.1400 
     33 CB          1.5725  -16.2340  -45.3620 C.3       8 UNK        -0.1800 
     34 N           2.9499  -18.2507  -45.1048 N.am      8 UNK        -0.5000 
     35 C           3.4028  -19.4909  -45.3344 C.2       7 UNK         0.5000 
     36 O           2.7695  -20.3422  -45.9563 O.2       7 UNK        -0.5000 
     37 CA          4.7780  -19.8474  -44.7434 C.3       7 UNK         0.1400 
     38 CB          5.9073  -19.2648  -45.6065 C.3       7 UNK        -0.1800 
     39 N           4.9285  -19.3876  -43.3624 N.am      7 UNK        -0.5000 
     40 C           4.2462  -19.8920  -42.3247 C.2       6 UNK         0.5000 
     41 O           3.4424  -20.8195  -42.4207 O.2       6 UNK        -0.5000 
     42 CA          4.4610  -19.2121  -40.9573 C.3       6 UNK         0.1400 
     43 CB          5.7117  -19.7748  -40.2653 C.3       6 UNK        -0.1800 
     44 N           4.5523  -17.7468  -41.0130 N.am      6 UNK        -0.5000 
     45 C           3.6230  -16.9457  -41.5504 C.2       5 UNK         0.5000 
     46 O           2.6308  -17.3686  -42.1473 O.2       5 UNK        -0.5000 
     47 CA          3.8496  -15.4247  -41.4342 C.3       5 UNK         0.1400 
     48 CB          4.9097  -14.9615  -42.4454 C.3       5 UNK        -0.1800 
     49 N           2.6065  -14.7040  -41.7050 N.am      5 UNK        -0.5000 
     50 C           1.5236  -14.7173  -40.9218 C.2       4 UNK         0.5000 
     51 O           1.5473  -15.0579  -39.7370 O.2       4 UNK        -0.5000 
     52 CA          0.1918  -14.3340  -41.6020 C.3       4 UNK         0.1400 
     53 CB         -1.0250  -14.5292  -40.6798 C.3       4 UNK        -0.1800 
     54 N           0.1476  -12.9766  -42.1488 N.am      4 UNK        -0.5000 
     55 C           0.8026  -12.5272  -43.2279 C.2       3 UNK         0.5000 
     56 O           1.6739  -13.1614  -43.8261 O.2       3 UNK        -0.5000 
     57 CA          0.3103  -11.1804  -43.7743 C.3       3 UNK         0.1400 
     58 CB          1.1642  -10.6491  -44.9430 C.3       3 UNK        -0.1800 
     59 N          -1.0688  -11.3782  -44.2087 N.am      3 UNK        -0.5000 
     60 C          -1.9988  -10.4268  -44.3587 C.2       2 UNK         0.5000 
     61 O          -1.7974   -9.2388  -44.1003 O.2       2 UNK        -0.5000 
     62 CA         -3.3883  -10.8819  -44.8698 C.3       2 UNK         0.1400 
     63 CB         -4.1330   -9.7775  -45.6489 C.3       2 UNK        -0.1800 
     64 N          -3.3449  -12.1351  -45.6367 N.am      2 UNK        -0.5000 
     65 C          -2.6843  -12.3676  -46.7830 C.2       1 UNK         0.5000 
     66 O          -2.1530  -11.4771  -47.4483 O.2       1 UNK        -0.5000 
     67 C          -1.7169  -21.6650  -47.6990 C.2       11 UNK         0.5000 
     68 O          -2.4509  -22.1826  -48.5438 O.2       11 UNK        -0.5000 
     69 N          -2.1701  -20.8976  -46.6987 N.am      12 UNK        -0.5000 
     70 CA         -3.5840  -20.6599  -46.4180 C.3       12 UNK         0.1400 
     71 CB         -3.7306  -19.4472  -45.4899 C.3       12 UNK        -0.1800 
     72 C          -4.2809  -21.8998  -45.8314 C.2       12 UNK         0.5000 
     73 O          -5.3742  -22.2388  -46.2821 O.2       12 UNK        -0.5000 
     74 N          -3.6334  -22.5790  -44.8728 N.am      13 UNK        -0.5000 
     75 CA         -4.1247  -23.8076  -44.2379 C.3       13 UNK         0.1400 
     76 CB         -3.2206  -24.1778  -43.0528 C.3       13 UNK        -0.1800 
     77 C          -4.2403  -24.9900  -45.2170 C.2       13 UNK         0.5000 
     78 O          -5.1897  -25.7685  -45.1234 O.2       13 UNK        -0.5000 
     79 N          -3.2985  -25.0751  -46.1658 N.am      14 UNK        -0.5000 
     80 CA         -3.3140  -26.0194  -47.2850 C.3       14 UNK         0.1400 
     81 CB         -1.9093  -26.0601  -47.9086 C.3       14 UNK        -0.1800 
     82 C          -4.3619  -25.6755  -48.3650 C.2       14 UNK         0.5000 
     83 O          -4.5952  -26.4951  -49.2534 O.2       14 UNK        -0.5000 
     84 N          -4.9376  -24.4647  -48.2938 N.am      15 UNK        -0.5000 
     85 CA         -5.8743  -23.8396  -49.2342 C.3       15 UNK         0.1400 
     86 CB         -7.1733  -24.6587  -49.3695 C.3       15 UNK        -0.1800 
     87 C          -5.2510  -23.4989  -50.6024 C.2       15 UNK         0.5000 
     88 O          -5.9758  -23.1062  -51.5162 O.2       15 UNK        -0.5000 
     89 N          -3.9211  -23.6026  -50.7182 N.am      16 UNK        -0.5000 
     90 CA         -3.1590  -23.3166  -51.9293 C.3       16 UNK         0.1400 
     91 CB         -1.7221  -23.8312  -51.7605 C.3       16 UNK        -0.1800 
     92 C          -3.1780  -21.8205  -52.2735 C.2       16 UNK         0.5000 
     93 O          -3.3693  -21.4733  -53.4386 O.2       16 UNK        -0.5000 
     94 N          -3.0308  -20.9667  -51.2504 N.am      17 UNK        -0.5000 
     95 CA         -3.1486  -19.5126  -51.3838 C.3       17 UNK         0.1400 
     96 CB         -2.5368  -18.8208  -50.1568 C.3       17 UNK        -0.1800 
     97 C          -4.6031  -19.0544  -51.5935 C.2       17 UNK         0.5000 
     98 O          -4.8308  -18.0645  -52.2881 O.2       17 UNK        -0.5000 
     99 N          -5.5586  -19.7865  -51.0027 N.am      18 UNK        -0.5000 
    100 CA        -6.9935  -19.5142  -51.1019 C.3       18 UNK         0.1400 
    101 CB        -7.7441  -20.3072  -50.0202 C.3       18 UNK        -0.1800 
    102 C         -7.5490  -19.8273  -52.5025 C.2       18 UNK         0.5000 
    103 O         -8.2951  -19.0202  -53.0575 O.2       18 UNK        -0.5000 
    104 N         -7.1537  -20.9813  -53.0566 N.am      19 UNK        -0.5000 
    105 CA        -7.5168  -21.4236  -54.4039 C.3       19 UNK         0.1400 
    106 CB        -7.3340  -22.9479  -54.4841 C.3       19 UNK        -0.1800 
    107 C         -6.6949  -20.7376  -55.5124 C.2       19 UNK         0.5000 
    108 O         -7.0854  -20.8135  -56.6779 O.2       19 UNK        -0.5000 
    109 N         -5.5614  -20.1235  -55.1374 N.am      20 UNK        -0.5000 
    110 CA        -4.5084  -19.5852  -56.0082 C.3       20 UNK         0.1400 
    111 CB        -5.0223  -18.3969  -56.8467 C.3       20 UNK        -0.1800 
    112 C         -3.8367  -20.6909  -56.8534 C.2       20 UNK         0.5000 
    113 O         -3.4578  -20.4629  -58.0034 O.2       20 UNK        -0.5000 
    114 N         -3.7116  -21.8780  -56.2482 N.am      21 UNK        -0.5000 
    115 CA        -3.0707  -23.0675  -56.8054 C.3       21 UNK         0.1400 
    116 CB        -3.8155  -24.3055  -56.2803 C.3       21 UNK        -0.1800 
    117 C         -1.5750  -23.1407  -56.4413 C.2       21 UNK         0.5000 
    118 O         -0.8570  -23.9705  -57.0010 O.2       21 UNK        -0.5000 
    119 N         -1.1400  -22.2903  -55.5031 N.am      22 UNK        -0.5000 
    120 CA         0.2484  -22.1135  -55.0624 C.3       22 UNK         0.1400 
    121 C          1.2375  -21.6957  -56.1921 C.2       22 UNK         0.5000 
    122 N          2.5175  -22.0118  -56.0447 N.am      22 UNK        -0.7600 
    123 O          0.8699  -21.0636  -57.1802 O.2       22 UNK        -0.5000 
    124 C124        0.3190  -21.1467  -53.8523 C.3       23 UNK        -0.0398 
    125 S125       -0.3923  -19.4918  -54.1782 S.3       23 UNK        -0.2404 
    126 C126        1.0406  -18.4119  -53.8832 C.3       23 UNK        -0.0205 
    127 H127       -3.8376  -16.5572  -44.5507 H         1 UNK         0.0600 
    128 H128       -3.0335  -15.8255  -43.1611 H         1 UNK         0.0600 
    129 H129       -2.1688  -16.9955  -44.1609 H         1 UNK         0.0600 
    130 H130       -3.7316  -15.4297  -46.4963 H         1 UNK         0.3000 
    131 H131       -3.2956  -13.9449  -48.0611 H         1 UNK         0.0600 
    132 H132       -0.9435  -13.3923  -48.6422 H         1 UNK         0.0800 
    133 H133       -0.3841  -13.9844  -47.1021 H         1 UNK         0.0800 
    134 H134        1.0785  -14.8537  -49.4238 H         1 UNK         0.0800 
    135 H135       -0.1874  -14.7969  -50.6295 H         1 UNK         0.0800 
    136 H136        0.0469  -16.3277  -52.4430 H         1 UNK         0.1150 
    137 H137        2.4623  -19.8522  -52.0311 H         1 UNK         0.1150 
    138 H138        1.7643  -17.3197  -48.6552 H         1 UNK         0.1150 
    139 H139        3.1265  -19.2367  -48.3750 H         1 UNK         0.0800 
    140 H140        3.9605  -19.8095  -49.7953 H         1 UNK         0.0800 
    141 H141       -0.0894  -20.6779  -49.5714 H         1 UNK         0.0800 
    142 H142        0.5020  -19.8749  -48.1321 H         1 UNK         0.0800 
    143 H143       -0.0658  -22.8743  -48.2680 H         1 UNK         0.0600 
    144 H144        1.1342  -21.3387  -46.2087 H         1 UNK         0.3000 
    145 H145        0.2632  -23.5805  -43.5071 H         1 UNK         0.0600 
    146 H146        2.3214  -24.3953  -44.6497 H         1 UNK         0.0600 
    147 H147        2.7091  -23.4155  -43.2442 H         1 UNK         0.0600 
    148 H148        2.8771  -22.7413  -44.8626 H         1 UNK         0.0600 
    149 H149        1.6197  -21.0853  -43.4531 H         1 UNK         0.3000 
    150 H150       -1.2942  -19.0474  -42.8405 H         1 UNK         0.0600 
    151 H151        1.1198  -19.8467  -41.1293 H         1 UNK         0.0600 
    152 H152       -0.5667  -19.9974  -40.6484 H         1 UNK         0.0600 
    153 H153        0.1300  -18.4050  -40.9152 H         1 UNK         0.0600 
    154 H154        1.4318  -18.3224  -43.0822 H         1 UNK         0.3000 
    155 H155        1.5678  -17.9672  -46.6235 H         1 UNK         0.0600 
    156 H156        0.6253  -15.8441  -45.7346 H         1 UNK         0.0600 
    157 H157        2.3680  -15.7207  -45.9020 H         1 UNK         0.0600 
    158 H158        1.6471  -15.9579  -44.3103 H         1 UNK         0.0600 
    159 H159        3.4946  -17.6332  -44.5220 H         1 UNK         0.3000 
    160 H160        4.8714  -20.9356  -44.7528 H         1 UNK         0.0600 
    161 H161        5.8202  -19.6016  -46.6405 H         1 UNK         0.0600 
    162 H162        6.8846  -19.5833  -45.2433 H         1 UNK         0.0600 
    163 H163        5.8908  -18.1743  -45.6139 H         1 UNK         0.0600 
    164 H164        5.5628  -18.6203  -43.1968 H         1 UNK         0.3000 
    165 H165        3.5951  -19.4563  -40.3385 H         1 UNK         0.0600 
    166 H166        5.6631  -20.8623  -40.1944 H         1 UNK         0.0600 
    167 H167        6.6220  -19.5214  -40.8099 H         1 UNK         0.0600 
    168 H168        5.8086  -19.3892  -39.2503 H         1 UNK         0.0600 
    169 H169        5.3500  -17.3305  -40.5547 H         1 UNK         0.3000 
    170 H170        4.1847  -15.1913  -40.4217 H         1 UNK         0.0600 
    171 H171        5.0762  -13.8864  -42.3748 H         1 UNK         0.0600 
    172 H172        4.6123  -15.1858  -43.4709 H         1 UNK         0.0600 
    173 H173        5.8683  -15.4495  -42.2656 H         1 UNK         0.0600 
    174 H174        2.4782  -14.3543  -42.6513 H         1 UNK         0.3000 
    175 H175        0.0705  -15.0272  -42.4374 H         1 UNK         0.0600 
    176 H176       -0.9938  -13.8544  -39.8236 H         1 UNK         0.0600 
    177 H177       -1.0661  -15.5495  -40.2959 H         1 UNK         0.0600 
    178 H178       -1.9575  -14.3509  -41.2159 H         1 UNK         0.0600 
    179 H179       -0.5432  -12.3674  -41.7359 H         1 UNK         0.3000 
    180 H180        0.3394  -10.4575  -42.9565 H         1 UNK         0.0600 
    181 H181        1.1316  -11.3223  -45.8008 H         1 UNK         0.0600 
    182 H182        2.2079  -10.5404  -44.6463 H         1 UNK         0.0600 
    183 H183        0.8175   -9.6704  -45.2745 H         1 UNK         0.0600 
    184 H184       -1.3122  -12.3445  -44.4136 H         1 UNK         0.3000 
    185 H185       -3.9743  -11.0997  -43.9759 H         1 UNK         0.0600 
    186 H186       -4.3147   -8.9080  -45.0162 H         1 UNK         0.0600 
    187 H187       -3.5648   -9.4356  -46.5142 H         1 UNK         0.0600 
    188 H188       -5.1030  -10.1284  -46.0009 H         1 UNK         0.0600 
    189 H189       -3.7452  -12.9393  -45.1745 H         1 UNK         0.3000 
    190 H190       -1.5013  -20.4312  -46.0926 H         1 UNK         0.3000 
    191 H191       -4.0820  -20.4182  -47.3593 H         1 UNK         0.0600 
    192 H192       -3.3109  -18.5549  -45.9543 H         1 UNK         0.0600 
    193 H193       -4.7796  -19.2416  -45.2741 H         1 UNK         0.0600 
    194 H194       -3.2205  -19.6008  -44.5386 H         1 UNK         0.0600 
    195 H195       -2.7557  -22.2099  -44.5138 H         1 UNK         0.3000 
    196 H196       -5.1247  -23.6031  -43.8501 H         1 UNK         0.0600 
    197 H197       -3.5678  -25.0890  -42.5640 H         1 UNK         0.0600 
    198 H198       -3.2148  -23.3889  -42.3006 H         1 UNK         0.0600 
    199 H199       -2.1911  -24.3459  -43.3706 H         1 UNK         0.0600 
    200 H200       -2.5026  -24.4440  -46.1177 H         1 UNK         0.3000 
    201 H201       -3.5507  -27.0130  -46.8994 H         1 UNK         0.0600 
    202 H202       -1.8624  -26.7760  -48.7302 H         1 UNK         0.0600 
    203 H203       -1.1611  -26.3605  -47.1748 H         1 UNK         0.0600 
    204 H204       -1.6172  -25.0861  -48.3036 H         1 UNK         0.0600 
    205 H205       -4.6842  -23.8763  -47.5095 H         1 UNK         0.3000 
    206 H206       -6.1419  -22.8813  -48.7885 H         1 UNK         0.0600 
    207 H207       -7.6014  -24.8823  -48.3923 H         1 UNK         0.0600 
    208 H208       -7.9259  -24.1063  -49.9334 H         1 UNK         0.0600 
    209 H209       -7.0082  -25.6024  -49.8897 H         1 UNK         0.0600 
    210 H210       -3.3909  -23.8328  -49.8893 H         1 UNK         0.3000 
    211 H211       -3.6232  -23.8592  -52.7552 H         1 UNK         0.0600 
    212 H212       -1.7119  -24.8880  -51.4926 H         1 UNK         0.0600 
    213 H213       -1.1626  -23.7319  -52.6908 H         1 UNK         0.0600 
    214 H214       -1.1823  -23.2852  -50.9854 H         1 UNK         0.0600 
    215 H215       -2.8827  -21.3440  -50.3198 H         1 UNK         0.3000 
    216 H216       -2.5827  -19.1957  -52.2612 H         1 UNK         0.0600 
    217 H217       -2.9629  -19.1887  -49.2237 H         1 UNK         0.0600 
    218 H218       -2.7079  -17.7443  -50.1925 H         1 UNK         0.0600 
    219 H219       -1.4581  -18.9629  -50.1216 H         1 UNK         0.0600 
    220 H220       -5.2821  -20.5989  -50.4744 H         1 UNK         0.3000 
    221 H221       -7.1508  -18.4507  -50.9091 H         1 UNK         0.0600 
    222 H222       -7.6586  -21.3832  -50.1708 H         1 UNK         0.0600 
    223 H223       -7.3658  -20.0755  -49.0243 H         1 UNK         0.0600 
    224 H224       -8.8068  -20.0622  -50.0288 H         1 UNK         0.0600 
    225 H225       -6.5904  -21.6279  -52.5091 H         1 UNK         0.3000 
    226 H226       -8.5699  -21.1945  -54.5800 H         1 UNK         0.0600 
    227 H227       -7.9398  -23.4580  -53.7349 H         1 UNK         0.0600 
    228 H228       -7.6346  -23.3296  -55.4607 H         1 UNK         0.0600 
    229 H229       -6.2939  -23.2360  -54.3250 H         1 UNK         0.0600 
    230 H230       -5.3333  -20.1444  -54.1531 H         1 UNK         0.3000 
    231 H231       -3.7334  -19.2042  -55.3412 H         1 UNK         0.0600 
    232 H232       -5.7477  -18.7102  -57.5978 H         1 UNK         0.0600 
    233 H233       -4.2010  -17.9083  -57.3719 H         1 UNK         0.0600 
    234 H234       -5.4954  -17.6454  -56.2146 H         1 UNK         0.0600 
    235 H235       -3.9783  -21.9279  -55.2705 H         1 UNK         0.3000 
    236 H236       -3.1490  -23.0522  -57.8944 H         1 UNK         0.0600 
    237 H237       -3.7570  -24.3800  -55.1940 H         1 UNK         0.0600 
    238 H238       -4.8696  -24.2775  -56.5575 H         1 UNK         0.0600 
    239 H239       -3.3947  -25.2218  -56.6962 H         1 UNK         0.0600 
    240 H240       -1.8080  -21.6463  -55.1010 H         1 UNK         0.3000 
    241 H241        0.5756  -23.0949  -54.7137 H         1 UNK         0.0600 
    242 H242        2.8508  -22.5316  -55.2475 H         1 UNK         0.3800 
    243 H243        3.1718  -21.7390  -56.7619 H         1 UNK         0.3800 
    244 H244       -0.2203  -21.5700  -53.0060 H         1 UNK         0.0800 
    245 H245        1.3505  -21.0589  -53.5151 H         1 UNK         0.0800 
    246 H246        1.9422  -18.8575  -54.3065 H         1 UNK         0.0800 
    247 H247        0.8869  -17.4767  -54.4235 H         1 UNK         0.0800 
@<TRIPOS>BOND
     1    1    2 1    
     2    1  127 1    
     3    1  128 1    
     4    1  129 1    
     5    2    3 2    
     6    2    4 am   BACKBONE|DICT|INTERRES
     7    4    5 1    
     8    4  130 1    
     9    5    6 1    
    10    5   65 1    
    11    5  131 1    
    12    6    7 1    
    13    6  132 1    
    14    6  133 1    
    15    7    8 1    
    16    8    9 1    
    17    8  134 1    
    18    8  135 1    
    19    9   10 ar   
    20    9   14 ar   
    21   10   11 ar   
    22   10  136 1    
    23   11   12 ar   
    24   11  126 1    
    25   12   13 ar   
    26   12  137 1    
    27   13   14 ar   
    28   13   15 1    
    29   14  138 1    
    30   15   16 1    
    31   15  139 1    
    32   15  140 1    
    33   16   17 1    
    34   17   18 1    
    35   17  141 1    
    36   17  142 1    
    37   18   19 1    
    38   18   67 1    
    39   18  143 1    
    40   19   20 am   BACKBONE|DICT|INTERRES
    41   19  144 1    
    42   20   21 2    
    43   20   22 1    
    44   22   23 1    
    45   22   24 1    
    46   22  145 1    
    47   23  146 1    
    48   23  147 1    
    49   23  148 1    
    50   24   25 am   BACKBONE|DICT|INTERRES
    51   24  149 1    
    52   25   26 2    
    53   25   27 1    
    54   27   28 1    
    55   27   29 1    
    56   27  150 1    
    57   28  151 1    
    58   28  152 1    
    59   28  153 1    
    60   29   30 am   BACKBONE|DICT|INTERRES
    61   29  154 1    
    62   30   31 2    
    63   30   32 1    
    64   32   33 1    
    65   32   34 1    
    66   32  155 1    
    67   33  156 1    
    68   33  157 1    
    69   33  158 1    
    70   34   35 am   BACKBONE|DICT|INTERRES
    71   34  159 1    
    72   35   36 2    
    73   35   37 1    
    74   37   38 1    
    75   37   39 1    
    76   37  160 1    
    77   38  161 1    
    78   38  162 1    
    79   38  163 1    
    80   39   40 am   BACKBONE|DICT|INTERRES
    81   39  164 1    
    82   40   41 2    
    83   40   42 1    
    84   42   43 1    
    85   42   44 1    
    86   42  165 1    
    87   43  166 1    
    88   43  167 1    
    89   43  168 1    
    90   44   45 am   BACKBONE|DICT|INTERRES
    91   44  169 1    
    92   45   46 2    
    93   45   47 1    
    94   47   48 1    
    95   47   49 1    
    96   47  170 1    
    97   48  171 1    
    98   48  172 1    
    99   48  173 1    
   100   49   50 am   BACKBONE|DICT|INTERRES
   101   49  174 1    
   102   50   51 2    
   103   50   52 1    
   104   52   53 1    
   105   52   54 1    
   106   52  175 1    
   107   53  176 1    
   108   53  177 1    
   109   53  178 1    
   110   54   55 am   BACKBONE|DICT|INTERRES
   111   54  179 1    
   112   55   56 2    
   113   55   57 1    
   114   57   58 1    
   115   57   59 1    
   116   57  180 1    
   117   58  181 1    
   118   58  182 1    
   119   58  183 1    
   120   59   60 am   BACKBONE|DICT|INTERRES
   121   59  184 1    
   122   60   61 2    
   123   60   62 1    
   124   62   63 1    
   125   62   64 1    
   126   62  185 1    
   127   63  186 1    
   128   63  187 1    
   129   63  188 1    
   130   64   65 am   BACKBONE|DICT|INTERRES
   131   64  189 1    
   132   65   66 2    
   133   67   68 2    
   134   67   69 am   BACKBONE|DICT|INTERRES
   135   69   70 1    
   136   69  190 1    
   137   70   71 1    
   138   70   72 1    
   139   70  191 1    
   140   71  192 1    
   141   71  193 1    
   142   71  194 1    
   143   72   73 2    
   144   72   74 am   BACKBONE|DICT|INTERRES
   145   74   75 1    
   146   74  195 1    
   147   75   76 1    
   148   75   77 1    
   149   75  196 1    
   150   76  197 1    
   151   76  198 1    
   152   76  199 1    
   153   77   78 2    
   154   77   79 am   BACKBONE|DICT|INTERRES
   155   79   80 1    
   156   79  200 1    
   157   80   81 1    
   158   80   82 1    
   159   80  201 1    
   160   81  202 1    
   161   81  203 1    
   162   81  204 1    
   163   82   83 2    
   164   82   84 am   BACKBONE|DICT|INTERRES
   165   84   85 1    
   166   84  205 1    
   167   85   86 1    
   168   85   87 1    
   169   85  206 1    
   170   86  207 1    
   171   86  208 1    
   172   86  209 1    
   173   87   88 2    
   174   87   89 am   BACKBONE|DICT|INTERRES
   175   89   90 1    
   176   89  210 1    
   177   90   91 1    
   178   90   92 1    
   179   90  211 1    
   180   91  212 1    
   181   91  213 1    
   182   91  214 1    
   183   92   93 2    
   184   92   94 am   BACKBONE|DICT|INTERRES
   185   94   95 1    
   186   94  215 1    
   187   95   96 1    
   188   95   97 1    
   189   95  216 1    
   190   96  217 1    
   191   96  218 1    
   192   96  219 1    
   193   97   98 2    
   194   97   99 am   BACKBONE|DICT|INTERRES
   195   99  100 1    
   196   99  220 1    
   197  100  101 1    
   198  100  102 1    
   199  100  221 1    
   200  101  222 1    
   201  101  223 1    
   202  101  224 1    
   203  102  103 2    
   204  102  104 am   BACKBONE|DICT|INTERRES
   205  104  105 1    
   206  104  225 1    
   207  105  106 1    
   208  105  107 1    
   209  105  226 1    
   210  106  227 1    
   211  106  228 1    
   212  106  229 1    
   213  107  108 2    
   214  107  109 am   BACKBONE|DICT|INTERRES
   215  109  110 1    
   216  109  230 1    
   217  110  111 1    
   218  110  112 1    
   219  110  231 1    
   220  111  232 1    
   221  111  233 1    
   222  111  234 1    
   223  112  113 2    
   224  112  114 am   BACKBONE|DICT|INTERRES
   225  114  115 1    
   226  114  235 1    
   227  115  116 1    
   228  115  117 1    
   229  115  236 1    
   230  116  237 1    
   231  116  238 1    
   232  116  239 1    
   233  117  118 2    
   234  117  119 am   BACKBONE|DICT|INTERRES
   235  119  120 1    
   236  119  240 1    
   237  120  121 1    
   238  120  124 1    
   239  120  241 1    
   240  121  122 am   BACKBONE|DICT|INTERRES
   241  121  123 2    
   242  122  242 1    
   243  122  243 1    
   244  124  125 1    
   245  124  244 1    
   246  124  245 1    
   247  125  126 1    
   248  126  246 1    
   249  126  247 1    
@<TRIPOS>SUBSTRUCTURE
     1 UNK         1 GROUP             0       ****    0 ROOT    
