@<TRIPOS>MOLECULE
3R540
247   249    1
SMALL
USER_CHARGES


@<TRIPOS>ATOM
      1 CA          3.9075  -14.3195  -47.3273 C.3       0 UNK        -0.1800 
      2 C           2.7456  -13.5848  -46.6776 C.2       0 UNK         0.5000 
      3 O           2.9622  -12.6838  -45.8677 O.2       0 UNK        -0.5000 
      4 N           1.5085  -13.9481  -47.0399 N.am      1 UNK        -0.5000 
      5 CA          0.2428  -13.4352  -46.4886 C.3       1 UNK         0.1400 
      6 C6         -0.9831  -14.3312  -46.8324 C.3       23 UNK        -0.0398 
      7 S7         -0.9271  -15.1135  -48.4866 S.3       23 UNK        -0.2404 
      8 C8         -1.2219  -16.8528  -48.0371 C.3       23 UNK        -0.0205 
      9 C9         -0.7882  -17.8101  -49.1343 C.ar      23 UNK        -0.0193 
     10 C10        -1.7216  -18.3289  -50.0340 C.ar      23 UNK        -0.1150 
     11 C11        -1.3313  -19.2494  -51.0117 C.ar      23 UNK        -0.0193 
     12 C12         0.0080  -19.6482  -51.0866 C.ar      23 UNK        -0.1150 
     13 C13         0.9512  -19.1366  -50.1888 C.ar      23 UNK        -0.0193 
     14 C14         0.5458  -18.2144  -49.2203 C.ar      23 UNK        -0.1150 
     15 C15         2.4126  -19.5601  -50.2689 C.3       23 UNK        -0.0205 
     16 S16         2.7147  -21.2426  -49.6313 S.3       23 UNK        -0.2404 
     17 C17         2.2744  -21.1017  -47.8607 C.3       23 UNK        -0.0398 
     18 CA          1.3832  -22.2697  -47.3680 C.3       11 UNK         0.1400 
     19 N           1.2313  -22.2897  -45.9116 N.am      11 UNK        -0.5000 
     20 C           0.7473  -23.3294  -45.2144 C.2       10 UNK         0.5000 
     21 O           0.4611  -24.4174  -45.7160 O.2       10 UNK        -0.5000 
     22 CA          0.4957  -23.0965  -43.7126 C.3       10 UNK         0.1400 
     23 CB          1.7823  -23.3216  -42.9053 C.3       10 UNK        -0.1800 
     24 N          -0.0271  -21.7568  -43.4365 N.am      10 UNK        -0.5000 
     25 C          -1.2441  -21.3336  -43.8142 C.2       9 UNK         0.5000 
     26 O          -2.0693  -22.0559  -44.3719 O.2       9 UNK        -0.5000 
     27 CA         -1.5837  -19.8467  -43.5801 C.3       9 UNK         0.1400 
     28 CB         -2.2617  -19.6653  -42.2142 C.3       9 UNK        -0.1800 
     29 N          -0.4202  -18.9624  -43.6642 N.am      9 UNK        -0.5000 
     30 C           0.4007  -18.8627  -44.7187 C.2       8 UNK         0.5000 
     31 O           0.1823  -19.4129  -45.7976 O.2       8 UNK        -0.5000 
     32 CA          1.7159  -18.0833  -44.5304 C.3       8 UNK         0.1400 
     33 CB          1.6950  -16.7651  -45.3087 C.3       8 UNK        -0.1800 
     34 N           2.0605  -17.8033  -43.1358 N.am      8 UNK        -0.5000 
     35 C           2.3893  -18.7210  -42.2159 C.2       7 UNK         0.5000 
     36 O           2.3642  -19.9350  -42.4227 O.2       7 UNK        -0.5000 
     37 CA          2.7754  -18.1855  -40.8291 C.3       7 UNK         0.1400 
     38 CB          4.2025  -17.6155  -40.8471 C.3       7 UNK        -0.1800 
     39 N           1.8449  -17.1428  -40.3988 N.am      7 UNK        -0.5000 
     40 C           0.7467  -17.3618  -39.6632 C.2       6 UNK         0.5000 
     41 O           0.4252  -18.4670  -39.2256 O.2       6 UNK        -0.5000 
     42 CA         -0.1532  -16.1438  -39.3701 C.3       6 UNK         0.1400 
     43 CB          0.2644  -15.4717  -38.0534 C.3       6 UNK        -0.1800 
     44 N          -0.1478  -15.1436  -40.4399 N.am      6 UNK        -0.5000 
     45 C          -0.6431  -15.3462  -41.6681 C.2       5 UNK         0.5000 
     46 O          -1.1873  -16.3916  -42.0199 O.2       5 UNK        -0.5000 
     47 CA         -0.4648  -14.2124  -42.6953 C.3       5 UNK         0.1400 
     48 CB         -1.6973  -13.2976  -42.7195 C.3       5 UNK        -0.1800 
     49 N           0.7402  -13.3923  -42.5191 N.am      5 UNK        -0.5000 
     50 C           2.0004  -13.8483  -42.4872 C.2       4 UNK         0.5000 
     51 O           2.2863  -15.0460  -42.5366 O.2       4 UNK        -0.5000 
     52 CA          3.1128  -12.7912  -42.3782 C.3       4 UNK         0.1400 
     53 CB          4.5042  -13.3796  -42.6763 C.3       4 UNK        -0.1800 
     54 N           2.8692  -11.6815  -43.3015 N.am      4 UNK        -0.5000 
     55 C           2.5798  -10.4243  -42.9446 C.2       3 UNK         0.5000 
     56 O           2.3720  -10.0857  -41.7791 O.2       3 UNK        -0.5000 
     57 CA          2.5166   -9.3549  -44.0501 C.3       3 UNK         0.1400 
     58 CB          3.8894   -8.6829  -44.2284 C.3       3 UNK        -0.1800 
     59 N           2.0463   -9.8640  -45.3422 N.am      3 UNK        -0.5000 
     60 C           1.3511   -9.1294  -46.2267 C.2       2 UNK         0.5000 
     61 O           1.0336   -7.9549  -46.0330 O.2       2 UNK        -0.5000 
     62 CA          0.9328   -9.7978  -47.5560 C.3       2 UNK         0.1400 
     63 CB          1.9112   -9.4173  -48.6778 C.3       2 UNK        -0.1800 
     64 N           0.8580  -11.2548  -47.4715 N.am      2 UNK        -0.5000 
     65 C          -0.0276  -11.9328  -46.7314 C.2       1 UNK         0.5000 
     66 O          -0.9964  -11.4011  -46.1877 O.2       1 UNK        -0.5000 
     67 C           0.0024  -22.2897  -48.0485 C.2       11 UNK         0.5000 
     68 O          -0.2039  -23.1028  -48.9457 O.2       11 UNK        -0.5000 
     69 N          -0.9308  -21.4542  -47.5679 N.am      12 UNK        -0.5000 
     70 CA         -2.3085  -21.3816  -48.0584 C.3       12 UNK         0.1400 
     71 CB         -3.0703  -20.2742  -47.3161 C.3       12 UNK        -0.1800 
     72 C          -3.0584  -22.7205  -47.9525 C.2       12 UNK         0.5000 
     73 O          -3.7017  -23.1296  -48.9183 O.2       12 UNK        -0.5000 
     74 N          -2.9284  -23.3928  -46.8001 N.am      13 UNK        -0.5000 
     75 CA         -3.4894  -24.7175  -46.5375 C.3       13 UNK         0.1400 
     76 CB         -3.2159  -25.1125  -45.0785 C.3       13 UNK        -0.1800 
     77 C          -2.9616  -25.7926  -47.5044 C.2       13 UNK         0.5000 
     78 O          -3.7575  -26.5583  -48.0500 O.2       13 UNK        -0.5000 
     79 N          -1.6384  -25.8069  -47.7199 N.am      14 UNK        -0.5000 
     80 CA         -0.9622  -26.7087  -48.6527 C.3       14 UNK         0.1400 
     81 CB          0.5560  -26.6253  -48.4322 C.3       14 UNK        -0.1800 
     82 C          -1.3197  -26.4195  -50.1224 C.2       14 UNK         0.5000 
     83 O          -1.5837  -27.3516  -50.8838 O.2       14 UNK        -0.5000 
     84 N          -1.3500  -25.1336  -50.4904 N.am      15 UNK        -0.5000 
     85 CA         -1.6676  -24.6227  -51.8216 C.3       15 UNK         0.1400 
     86 CB         -1.0270  -23.2366  -51.9814 C.3       15 UNK        -0.1800 
     87 C          -3.1844  -24.6145  -52.1000 C.2       15 UNK         0.5000 
     88 O          -3.7678  -23.5606  -52.3649 O.2       15 UNK        -0.5000 
     89 N          -3.7786  -25.8146  -52.0628 N.am      16 UNK        -0.5000 
     90 CA         -5.1548  -26.1437  -52.4437 C.3       16 UNK         0.1400 
     91 CB         -5.3444  -25.9517  -53.9634 C.3       16 UNK        -0.1800 
     92 C          -6.2372  -25.4383  -51.5974 C.2       16 UNK         0.5000 
     93 O          -7.3156  -25.1406  -52.1126 O.2       16 UNK        -0.5000 
     94 N          -5.9405  -25.2250  -50.3059 N.am      17 UNK        -0.5000 
     95 CA         -6.8090  -24.6190  -49.2894 C.3       17 UNK         0.1400 
     96 CB         -8.0092  -25.5374  -48.9763 C.3       17 UNK        -0.1800 
     97 C          -7.2177  -23.1693  -49.6303 C.2       17 UNK         0.5000 
     98 O          -8.3976  -22.8204  -49.5542 O.2       17 UNK        -0.5000 
     99 N          -6.2021  -22.3637  -49.9675 N.am      18 UNK        -0.5000 
    100 CA        -6.2142  -20.9472  -50.3375 C.3       18 UNK         0.1400 
    101 CB        -6.8746  -20.0823  -49.2458 C.3       18 UNK        -0.1800 
    102 C         -6.8234  -20.6631  -51.7241 C.2       18 UNK         0.5000 
    103 O         -7.6896  -21.3959  -52.2046 O.2       18 UNK        -0.5000 
    104 N         -6.3474  -19.5700  -52.3367 N.am      19 UNK        -0.5000 
    105 CA        -6.7346  -18.9615  -53.6184 C.3       19 UNK         0.1400 
    106 CB        -8.2033  -18.4984  -53.5863 C.3       19 UNK        -0.1800 
    107 C         -6.4563  -19.8070  -54.8786 C.2       19 UNK         0.5000 
    108 O         -5.9954  -19.2610  -55.8814 O.2       19 UNK        -0.5000 
    109 N         -6.7627  -21.1060  -54.8226 N.am      20 UNK        -0.5000 
    110 CA        -6.8086  -22.0188  -55.9629 C.3       20 UNK         0.1400 
    111 CB        -7.5751  -23.2834  -55.5459 C.3       20 UNK        -0.1800 
    112 C         -5.4448  -22.3753  -56.5853 C.2       20 UNK         0.5000 
    113 O         -5.4196  -22.7604  -57.7556 O.2       20 UNK        -0.5000 
    114 N         -4.3469  -22.2577  -55.8255 N.am      21 UNK        -0.5000 
    115 CA        -3.0037  -22.6296  -56.2827 C.3       21 UNK         0.1400 
    116 CB        -2.7490  -24.1228  -55.9967 C.3       21 UNK        -0.1800 
    117 C         -1.9028  -21.7144  -55.7168 C.2       21 UNK         0.5000 
    118 O         -0.7601  -22.1553  -55.5810 O.2       21 UNK        -0.5000 
    119 N         -2.2443  -20.4595  -55.3969 N.am      22 UNK        -0.5000 
    120 CA        -1.2791  -19.4415  -54.9439 C.3       22 UNK         0.1400 
    121 C         -0.3353  -18.9604  -56.0824 C.2       22 UNK         0.5000 
    122 N          0.8872  -18.5619  -55.7568 N.am      22 UNK        -0.7600 
    123 O         -0.7121  -18.9054  -57.2513 O.2       22 UNK        -0.5000 
    124 C124       -1.9702  -18.2261  -54.2713 C.3       23 UNK        -0.0398 
    125 S125       -3.2036  -18.6225  -52.9839 S.3       23 UNK        -0.2404 
    126 C126       -2.3751  -19.8583  -51.9356 C.3       23 UNK        -0.0205 
    127 H127        4.5220  -13.6214  -47.8954 H         1 UNK         0.0600 
    128 H128        3.5639  -15.1030  -48.0030 H         1 UNK         0.0600 
    129 H129        4.5311  -14.7801  -46.5613 H         1 UNK         0.0600 
    130 H130        1.3911  -14.6576  -47.7503 H         1 UNK         0.3000 
    131 H131        0.3678  -13.4859  -45.4076 H         1 UNK         0.0600 
    132 H132       -1.0549  -15.1146  -46.0784 H         1 UNK         0.0800 
    133 H133       -1.9260  -13.7884  -46.7441 H         1 UNK         0.0800 
    134 H134       -0.6859  -17.1057  -47.1230 H         1 UNK         0.0800 
    135 H135       -2.2815  -16.9830  -47.8126 H         1 UNK         0.0800 
    136 H136       -2.7581  -18.0307  -49.9630 H         1 UNK         0.1150 
    137 H137        0.3168  -20.3718  -51.8278 H         1 UNK         0.1150 
    138 H138        1.2685  -17.8170  -48.5231 H         1 UNK         0.1150 
    139 H139        2.7364  -19.5192  -51.3097 H         1 UNK         0.0800 
    140 H140        3.0478  -18.8563  -49.7286 H         1 UNK         0.0800 
    141 H141        1.7988  -20.1419  -47.6670 H         1 UNK         0.0800 
    142 H142        3.2069  -21.0902  -47.2952 H         1 UNK         0.0800 
    143 H143        1.8886  -23.1983  -47.6435 H         1 UNK         0.0600 
    144 H144        1.3713  -21.4125  -45.4322 H         1 UNK         0.3000 
    145 H145       -0.2463  -23.8262  -43.3813 H         1 UNK         0.0600 
    146 H146        1.6025  -23.2058  -41.8363 H         1 UNK         0.0600 
    147 H147        2.1703  -24.3287  -43.0632 H         1 UNK         0.0600 
    148 H148        2.5661  -22.6190  -43.1908 H         1 UNK         0.0600 
    149 H149        0.6088  -21.1015  -42.9962 H         1 UNK         0.3000 
    150 H150       -2.2869  -19.5408  -44.3562 H         1 UNK         0.0600 
    151 H151       -3.1150  -20.3365  -42.1073 H         1 UNK         0.0600 
    152 H152       -2.6357  -18.6491  -42.0917 H         1 UNK         0.0600 
    153 H153       -1.5742  -19.8715  -41.3928 H         1 UNK         0.0600 
    154 H154       -0.2007  -18.4262  -42.8358 H         1 UNK         0.3000 
    155 H155        2.5127  -18.7038  -44.9452 H         1 UNK         0.0600 
    156 H156        0.8915  -16.1144  -44.9691 H         1 UNK         0.0600 
    157 H157        1.5580  -16.9390  -46.3749 H         1 UNK         0.0600 
    158 H158        2.6350  -16.2269  -45.1880 H         1 UNK         0.0600 
    159 H159        2.1182  -16.8190  -42.8821 H         1 UNK         0.3000 
    160 H160        2.7554  -19.0204  -40.1253 H         1 UNK         0.0600 
    161 H161        4.2953  -16.7719  -41.5324 H         1 UNK         0.0600 
    162 H162        4.9212  -18.3738  -41.1603 H         1 UNK         0.0600 
    163 H163        4.5011  -17.2743  -39.8558 H         1 UNK         0.0600 
    164 H164        2.0034  -16.2156  -40.7731 H         1 UNK         0.3000 
    165 H165       -1.1758  -16.5104  -39.2568 H         1 UNK         0.0600 
    166 H166       -0.4136  -14.6590  -37.7925 H         1 UNK         0.0600 
    167 H167        0.2471  -16.1850  -37.2283 H         1 UNK         0.0600 
    168 H168        1.2738  -15.0626  -38.1125 H         1 UNK         0.0600 
    169 H169        0.2849  -14.2551  -40.2350 H         1 UNK         0.3000 
    170 H170       -0.3918  -14.6981  -43.6671 H         1 UNK         0.0600 
    171 H171       -2.6106  -13.8744  -42.8724 H         1 UNK         0.0600 
    172 H172       -1.8081  -12.7484  -41.7838 H         1 UNK         0.0600 
    173 H173       -1.6347  -12.5718  -43.5307 H         1 UNK         0.0600 
    174 H174        0.5998  -12.3944  -42.4557 H         1 UNK         0.3000 
    175 H175        3.1141  -12.4431  -41.3437 H         1 UNK         0.0600 
    176 H176        4.5562  -13.7969  -43.6828 H         1 UNK         0.0600 
    177 H177        5.2796  -12.6185  -42.5896 H         1 UNK         0.0600 
    178 H178        4.7540  -14.1766  -41.9749 H         1 UNK         0.0600 
    179 H179        2.9877  -11.9194  -44.2846 H         1 UNK         0.3000 
    180 H180        1.8139   -8.5997  -43.6910 H         1 UNK         0.0600 
    181 H181        4.6278   -9.3824  -44.6222 H         1 UNK         0.0600 
    182 H182        4.2680   -8.3037  -43.2783 H         1 UNK         0.0600 
    183 H183        3.8303   -7.8370  -44.9134 H         1 UNK         0.0600 
    184 H184        2.2793  -10.8230  -45.5759 H         1 UNK         0.3000 
    185 H185       -0.0571   -9.4196  -47.8198 H         1 UNK         0.0600 
    186 H186        1.9722   -8.3342  -48.7925 H         1 UNK         0.0600 
    187 H187        2.9184   -9.7831  -48.4739 H         1 UNK         0.0600 
    188 H188        1.5917   -9.8267  -49.6363 H         1 UNK         0.0600 
    189 H189        1.6288  -11.7711  -47.8695 H         1 UNK         0.3000 
    190 H190       -0.6618  -20.7915  -46.8465 H         1 UNK         0.3000 
    191 H191       -2.2571  -21.1160  -49.1143 H         1 UNK         0.0600 
    192 H192       -2.5009  -19.3470  -47.2908 H         1 UNK         0.0600 
    193 H193       -4.0197  -20.0629  -47.8081 H         1 UNK         0.0600 
    194 H194       -3.2919  -20.5541  -46.2867 H         1 UNK         0.0600 
    195 H195       -2.4236  -22.9548  -46.0342 H         1 UNK         0.3000 
    196 H196       -4.5702  -24.6505  -46.6701 H         1 UNK         0.0600 
    197 H197       -3.6265  -26.0981  -44.8558 H         1 UNK         0.0600 
    198 H198       -3.6750  -24.4055  -44.3872 H         1 UNK         0.0600 
    199 H199       -2.1475  -25.1436  -44.8623 H         1 UNK         0.0600 
    200 H200       -1.0553  -25.1387  -47.2300 H         1 UNK         0.3000 
    201 H201       -1.2817  -27.7282  -48.4272 H         1 UNK         0.0600 
    202 H202        0.8210  -26.9015  -47.4114 H         1 UNK         0.0600 
    203 H203        0.9358  -25.6191  -48.6135 H         1 UNK         0.0600 
    204 H204        1.0863  -27.3033  -49.1019 H         1 UNK         0.0600 
    205 H205       -1.0947  -24.4269  -49.8023 H         1 UNK         0.3000 
    206 H206       -1.2096  -25.2790  -52.5644 H         1 UNK         0.0600 
    207 H207        0.0519  -23.2777  -51.8313 H         1 UNK         0.0600 
    208 H208       -1.2006  -22.8400  -52.9807 H         1 UNK         0.0600 
    209 H209       -1.4366  -22.5295  -51.2601 H         1 UNK         0.0600 
    210 H210       -3.1973  -26.5997  -51.7844 H         1 UNK         0.3000 
    211 H211       -5.2750  -27.2079  -52.2367 H         1 UNK         0.0600 
    212 H212       -5.2148  -24.9103  -54.2560 H         1 UNK         0.0600 
    213 H213       -6.3383  -26.2650  -54.2848 H         1 UNK         0.0600 
    214 H214       -4.6235  -26.5447  -54.5262 H         1 UNK         0.0600 
    215 H215       -5.0164  -25.4850  -49.9865 H         1 UNK         0.3000 
    216 H216       -6.2091  -24.5549  -48.3816 H         1 UNK         0.0600 
    217 H217       -8.5881  -25.1493  -48.1375 H         1 UNK         0.0600 
    218 H218       -7.6774  -26.5394  -48.7041 H         1 UNK         0.0600 
    219 H219       -8.6862  -25.6267  -49.8262 H         1 UNK         0.0600 
    220 H220       -5.2749  -22.7820  -49.9522 H         1 UNK         0.3000 
    221 H221       -5.1627  -20.6664  -50.3798 H         1 UNK         0.0600 
    222 H222       -7.9526  -20.2385  -49.1994 H         1 UNK         0.0600 
    223 H223       -6.4614  -20.3013  -48.2613 H         1 UNK         0.0600 
    224 H224       -6.7113  -19.0213  -49.4379 H         1 UNK         0.0600 
    225 H225       -5.6047  -19.0692  -51.8688 H         1 UNK         0.3000 
    226 H226       -6.1202  -18.0648  -53.7118 H         1 UNK         0.0600 
    227 H227       -8.3856  -17.8245  -52.7491 H         1 UNK         0.0600 
    228 H228       -8.4617  -17.9598  -54.4989 H         1 UNK         0.0600 
    229 H229       -8.8940  -19.3374  -53.4978 H         1 UNK         0.0600 
    230 H230       -7.1397  -21.4512  -53.9419 H         1 UNK         0.3000 
    231 H231       -7.3862  -21.5294  -56.7500 H         1 UNK         0.0600 
    232 H232       -7.1529  -23.7296  -54.6463 H         1 UNK         0.0600 
    233 H233       -7.5600  -24.0393  -56.3323 H         1 UNK         0.0600 
    234 H234       -8.6201  -23.0543  -55.3371 H         1 UNK         0.0600 
    235 H235       -4.4377  -21.9537  -54.8655 H         1 UNK         0.3000 
    236 H236       -2.9434  -22.4879  -57.3637 H         1 UNK         0.0600 
    237 H237       -3.5179  -24.7507  -56.4469 H         1 UNK         0.0600 
    238 H238       -1.7914  -24.4469  -56.4057 H         1 UNK         0.0600 
    239 H239       -2.7347  -24.3259  -54.9275 H         1 UNK         0.0600 
    240 H240       -3.1856  -20.1418  -55.5762 H         1 UNK         0.3000 
    241 H241       -0.6371  -19.9125  -54.1982 H         1 UNK         0.0600 
    242 H242        1.2203  -18.5880  -54.8056 H         1 UNK         0.3800 
    243 H243        1.5032  -18.2342  -56.4849 H         1 UNK         0.3800 
    244 H244       -1.2212  -17.5740  -53.8185 H         1 UNK         0.0800 
    245 H245       -2.4794  -17.6214  -55.0238 H         1 UNK         0.0800 
    246 H246       -1.9524  -20.6448  -52.5553 H         1 UNK         0.0800 
    247 H247       -3.1264  -20.3527  -51.3225 H         1 UNK         0.0800 
@<TRIPOS>BOND
     1    1    2 1    
     2    1  127 1    
     3    1  128 1    
     4    1  129 1    
     5    2    3 2    
     6    2    4 am   BACKBONE|DICT|INTERRES
     7    4    5 1    
     8    4  130 1    
     9    5    6 1    
    10    5   65 1    
    11    5  131 1    
    12    6    7 1    
    13    6  132 1    
    14    6  133 1    
    15    7    8 1    
    16    8    9 1    
    17    8  134 1    
    18    8  135 1    
    19    9   10 ar   
    20    9   14 ar   
    21   10   11 ar   
    22   10  136 1    
    23   11   12 ar   
    24   11  126 1    
    25   12   13 ar   
    26   12  137 1    
    27   13   14 ar   
    28   13   15 1    
    29   14  138 1    
    30   15   16 1    
    31   15  139 1    
    32   15  140 1    
    33   16   17 1    
    34   17   18 1    
    35   17  141 1    
    36   17  142 1    
    37   18   19 1    
    38   18   67 1    
    39   18  143 1    
    40   19   20 am   BACKBONE|DICT|INTERRES
    41   19  144 1    
    42   20   21 2    
    43   20   22 1    
    44   22   23 1    
    45   22   24 1    
    46   22  145 1    
    47   23  146 1    
    48   23  147 1    
    49   23  148 1    
    50   24   25 am   BACKBONE|DICT|INTERRES
    51   24  149 1    
    52   25   26 2    
    53   25   27 1    
    54   27   28 1    
    55   27   29 1    
    56   27  150 1    
    57   28  151 1    
    58   28  152 1    
    59   28  153 1    
    60   29   30 am   BACKBONE|DICT|INTERRES
    61   29  154 1    
    62   30   31 2    
    63   30   32 1    
    64   32   33 1    
    65   32   34 1    
    66   32  155 1    
    67   33  156 1    
    68   33  157 1    
    69   33  158 1    
    70   34   35 am   BACKBONE|DICT|INTERRES
    71   34  159 1    
    72   35   36 2    
    73   35   37 1    
    74   37   38 1    
    75   37   39 1    
    76   37  160 1    
    77   38  161 1    
    78   38  162 1    
    79   38  163 1    
    80   39   40 am   BACKBONE|DICT|INTERRES
    81   39  164 1    
    82   40   41 2    
    83   40   42 1    
    84   42   43 1    
    85   42   44 1    
    86   42  165 1    
    87   43  166 1    
    88   43  167 1    
    89   43  168 1    
    90   44   45 am   BACKBONE|DICT|INTERRES
    91   44  169 1    
    92   45   46 2    
    93   45   47 1    
    94   47   48 1    
    95   47   49 1    
    96   47  170 1    
    97   48  171 1    
    98   48  172 1    
    99   48  173 1    
   100   49   50 am   BACKBONE|DICT|INTERRES
   101   49  174 1    
   102   50   51 2    
   103   50   52 1    
   104   52   53 1    
   105   52   54 1    
   106   52  175 1    
   107   53  176 1    
   108   53  177 1    
   109   53  178 1    
   110   54   55 am   BACKBONE|DICT|INTERRES
   111   54  179 1    
   112   55   56 2    
   113   55   57 1    
   114   57   58 1    
   115   57   59 1    
   116   57  180 1    
   117   58  181 1    
   118   58  182 1    
   119   58  183 1    
   120   59   60 am   BACKBONE|DICT|INTERRES
   121   59  184 1    
   122   60   61 2    
   123   60   62 1    
   124   62   63 1    
   125   62   64 1    
   126   62  185 1    
   127   63  186 1    
   128   63  187 1    
   129   63  188 1    
   130   64   65 am   BACKBONE|DICT|INTERRES
   131   64  189 1    
   132   65   66 2    
   133   67   68 2    
   134   67   69 am   BACKBONE|DICT|INTERRES
   135   69   70 1    
   136   69  190 1    
   137   70   71 1    
   138   70   72 1    
   139   70  191 1    
   140   71  192 1    
   141   71  193 1    
   142   71  194 1    
   143   72   73 2    
   144   72   74 am   BACKBONE|DICT|INTERRES
   145   74   75 1    
   146   74  195 1    
   147   75   76 1    
   148   75   77 1    
   149   75  196 1    
   150   76  197 1    
   151   76  198 1    
   152   76  199 1    
   153   77   78 2    
   154   77   79 am   BACKBONE|DICT|INTERRES
   155   79   80 1    
   156   79  200 1    
   157   80   81 1    
   158   80   82 1    
   159   80  201 1    
   160   81  202 1    
   161   81  203 1    
   162   81  204 1    
   163   82   83 2    
   164   82   84 am   BACKBONE|DICT|INTERRES
   165   84   85 1    
   166   84  205 1    
   167   85   86 1    
   168   85   87 1    
   169   85  206 1    
   170   86  207 1    
   171   86  208 1    
   172   86  209 1    
   173   87   88 2    
   174   87   89 am   BACKBONE|DICT|INTERRES
   175   89   90 1    
   176   89  210 1    
   177   90   91 1    
   178   90   92 1    
   179   90  211 1    
   180   91  212 1    
   181   91  213 1    
   182   91  214 1    
   183   92   93 2    
   184   92   94 am   BACKBONE|DICT|INTERRES
   185   94   95 1    
   186   94  215 1    
   187   95   96 1    
   188   95   97 1    
   189   95  216 1    
   190   96  217 1    
   191   96  218 1    
   192   96  219 1    
   193   97   98 2    
   194   97   99 am   BACKBONE|DICT|INTERRES
   195   99  100 1    
   196   99  220 1    
   197  100  101 1    
   198  100  102 1    
   199  100  221 1    
   200  101  222 1    
   201  101  223 1    
   202  101  224 1    
   203  102  103 2    
   204  102  104 am   BACKBONE|DICT|INTERRES
   205  104  105 1    
   206  104  225 1    
   207  105  106 1    
   208  105  107 1    
   209  105  226 1    
   210  106  227 1    
   211  106  228 1    
   212  106  229 1    
   213  107  108 2    
   214  107  109 am   BACKBONE|DICT|INTERRES
   215  109  110 1    
   216  109  230 1    
   217  110  111 1    
   218  110  112 1    
   219  110  231 1    
   220  111  232 1    
   221  111  233 1    
   222  111  234 1    
   223  112  113 2    
   224  112  114 am   BACKBONE|DICT|INTERRES
   225  114  115 1    
   226  114  235 1    
   227  115  116 1    
   228  115  117 1    
   229  115  236 1    
   230  116  237 1    
   231  116  238 1    
   232  116  239 1    
   233  117  118 2    
   234  117  119 am   BACKBONE|DICT|INTERRES
   235  119  120 1    
   236  119  240 1    
   237  120  121 1    
   238  120  124 1    
   239  120  241 1    
   240  121  122 am   BACKBONE|DICT|INTERRES
   241  121  123 2    
   242  122  242 1    
   243  122  243 1    
   244  124  125 1    
   245  124  244 1    
   246  124  245 1    
   247  125  126 1    
   248  126  246 1    
   249  126  247 1    
@<TRIPOS>SUBSTRUCTURE
     1 UNK         1 GROUP             0       ****    0 ROOT    
