@<TRIPOS>MOLECULE
3R540
247   249    1
SMALL
USER_CHARGES


@<TRIPOS>ATOM
      1 CA          0.1106  -11.8506  -44.3610 C.3       0 UNK        -0.1800 
      2 C           0.7570  -11.0781  -45.5017 C.2       0 UNK         0.5000 
      3 O           1.1673   -9.9317  -45.3156 O.2       0 UNK        -0.5000 
      4 N           0.8442  -11.6974  -46.6850 N.am      1 UNK        -0.5000 
      5 CA          1.4269  -11.1484  -47.9150 C.3       1 UNK         0.1400 
      6 C6          0.8740  -11.8544  -49.1850 C.3       23 UNK        -0.0398 
      7 S7          0.8260  -13.6854  -49.1222 S.3       23 UNK        -0.2404 
      8 C8          2.0355  -14.1254  -50.4095 C.3       23 UNK        -0.0205 
      9 C9          1.9484  -15.5988  -50.7740 C.ar      23 UNK        -0.0193 
     10 C10         1.2431  -16.0008  -51.9132 C.ar      23 UNK        -0.1150 
     11 C11         1.1741  -17.3523  -52.2629 C.ar      23 UNK        -0.0193 
     12 C12         1.8066  -18.3035  -51.4597 C.ar      23 UNK        -0.1150 
     13 C13         2.4978  -17.9177  -50.3089 C.ar      23 UNK        -0.0193 
     14 C14         2.5787  -16.5610  -49.9785 C.ar      23 UNK        -0.1150 
     15 C15         3.1376  -18.9768  -49.4219 C.3       23 UNK        -0.0205 
     16 S16         2.4288  -19.0128  -47.7431 S.3       23 UNK        -0.2404 
     17 C17         0.6426  -19.2483  -48.0468 C.3       23 UNK        -0.0398 
     18 CA          0.1297  -20.6650  -47.6948 C.3       11 UNK         0.1400 
     19 N           0.3393  -21.0282  -46.2874 N.am      11 UNK        -0.5000 
     20 C           0.0870  -22.2385  -45.7668 C.2       10 UNK         0.5000 
     21 O          -0.2789  -23.2043  -46.4367 O.2       10 UNK        -0.5000 
     22 CA          0.1972  -22.3854  -44.2370 C.3       10 UNK         0.1400 
     23 CB          1.6452  -22.6531  -43.8003 C.3       10 UNK        -0.1800 
     24 N          -0.3413  -21.2239  -43.5260 N.am      10 UNK        -0.5000 
     25 C          -1.6404  -20.8910  -43.5150 C.2       9 UNK         0.5000 
     26 O          -2.5173  -21.5655  -44.0529 O.2       9 UNK        -0.5000 
     27 CA         -2.0271  -19.5655  -42.8332 C.3       9 UNK         0.1400 
     28 CB         -2.1959  -19.7601  -41.3195 C.3       9 UNK        -0.1800 
     29 N          -1.0678  -18.4920  -43.0944 N.am      9 UNK        -0.5000 
     30 C          -0.8155  -17.9810  -44.3083 C.2       8 UNK         0.5000 
     31 O          -1.4241  -18.3123  -45.3255 O.2       8 UNK        -0.5000 
     32 CA          0.3510  -16.9812  -44.4193 C.3       8 UNK         0.1400 
     33 CB         -0.1052  -15.5588  -44.0684 C.3       8 UNK        -0.1800 
     34 N           1.4946  -17.3448  -43.5827 N.am      8 UNK        -0.5000 
     35 C           2.1955  -18.4805  -43.6992 C.2       7 UNK         0.5000 
     36 O           1.9595  -19.3430  -44.5414 O.2       7 UNK        -0.5000 
     37 CA          3.2935  -18.7285  -42.6537 C.3       7 UNK         0.1400 
     38 CB          4.5526  -17.9004  -42.9516 C.3       7 UNK        -0.1800 
     39 N           2.8138  -18.4405  -41.3034 N.am      7 UNK        -0.5000 
     40 C           1.9217  -19.1940  -40.6456 C.2       6 UNK         0.5000 
     41 O           1.4536  -20.2428  -41.0894 O.2       6 UNK        -0.5000 
     42 CA          1.4524  -18.6700  -39.2754 C.3       6 UNK         0.1400 
     43 CB          2.4124  -19.1241  -38.1658 C.3       6 UNK        -0.1800 
     44 N           1.3273  -17.2112  -39.2395 N.am      6 UNK        -0.5000 
     45 C           0.4034  -16.5154  -39.9172 C.2       5 UNK         0.5000 
     46 O          -0.4580  -17.0339  -40.6260 O.2       5 UNK        -0.5000 
     47 CA          0.4909  -14.9795  -39.8293 C.3       5 UNK         0.1400 
     48 CB         -0.2236  -14.4671  -38.5701 C.3       5 UNK        -0.1800 
     49 N           1.8656  -14.4675  -39.8545 N.am      5 UNK        -0.5000 
     50 C           2.7251  -14.6645  -40.8622 C.2       4 UNK         0.5000 
     51 O           2.4626  -15.3479  -41.8536 O.2       4 UNK        -0.5000 
     52 CA          4.1262  -14.0426  -40.7159 C.3       4 UNK         0.1400 
     53 CB          5.0218  -14.9545  -39.8624 C.3       4 UNK        -0.1800 
     54 N           4.7651  -13.8459  -42.0186 N.am      4 UNK        -0.5000 
     55 C           4.3475  -12.9734  -42.9431 C.2       3 UNK         0.5000 
     56 O           3.4527  -12.1439  -42.7528 O.2       3 UNK        -0.5000 
     57 CA          5.0342  -13.0579  -44.3135 C.3       3 UNK         0.1400 
     58 CB          4.5395  -14.2825  -45.1058 C.3       3 UNK        -0.1800 
     59 N           4.7234  -11.8495  -45.0645 N.am      3 UNK        -0.5000 
     60 C           5.5048  -11.2588  -45.9734 C.2       2 UNK         0.5000 
     61 O           6.6264  -11.6661  -46.2824 O.2       2 UNK        -0.5000 
     62 CA          4.9039  -10.0087  -46.6506 C.3       2 UNK         0.1400 
     63 CB          5.7154   -9.5205  -47.8695 C.3       2 UNK        -0.1800 
     64 N           3.4891  -10.2000  -46.9950 N.am      2 UNK        -0.5000 
     65 C           2.9712  -11.1009  -47.8437 C.2       1 UNK         0.5000 
     66 O           3.6515  -11.8708  -48.5218 O.2       1 UNK        -0.5000 
     67 C          -1.3543  -20.8020  -48.0970 C.2       11 UNK         0.5000 
     68 O          -1.6505  -21.3999  -49.1312 O.2       11 UNK        -0.5000 
     69 N          -2.2609  -20.2836  -47.2552 N.am      12 UNK        -0.5000 
     70 CA         -3.7102  -20.3834  -47.4327 C.3       12 UNK         0.1400 
     71 CB         -4.4231  -19.5141  -46.3872 C.3       12 UNK        -0.1800 
     72 C          -4.2230  -21.8333  -47.3790 C.2       12 UNK         0.5000 
     73 O          -5.1038  -22.1877  -48.1613 O.2       12 UNK        -0.5000 
     74 N          -3.6489  -22.6546  -46.4891 N.am      13 UNK        -0.5000 
     75 CA         -3.9249  -24.0876  -46.3907 C.3       13 UNK         0.1400 
     76 CB         -3.2884  -24.6593  -45.1153 C.3       13 UNK        -0.1800 
     77 C          -3.4570  -24.8603  -47.6370 C.2       13 UNK         0.5000 
     78 O          -4.2088  -25.6921  -48.1444 O.2       13 UNK        -0.5000 
     79 N          -2.2540  -24.5417  -48.1378 N.am      14 UNK        -0.5000 
     80 CA         -1.6866  -25.1041  -49.3672 C.3       14 UNK         0.1400 
     81 CB         -0.2208  -24.6658  -49.5075 C.3       14 UNK        -0.1800 
     82 C          -2.4956  -24.7335  -50.6257 C.2       14 UNK         0.5000 
     83 O          -2.7004  -25.5860  -51.4896 O.2       14 UNK        -0.5000 
     84 N          -2.9825  -23.4864  -50.6782 N.am      15 UNK        -0.5000 
     85 CA         -3.8861  -22.9782  -51.7129 C.3       15 UNK         0.1400 
     86 CB         -3.8592  -21.4418  -51.6771 C.3       15 UNK        -0.1800 
     87 C          -5.3364  -23.4851  -51.5684 C.2       15 UNK         0.5000 
     88 O          -6.1441  -23.2418  -52.4650 O.2       15 UNK        -0.5000 
     89 N          -5.6556  -24.1506  -50.4459 N.am      16 UNK        -0.5000 
     90 CA         -6.9820  -24.6252  -50.0380 C.3       16 UNK         0.1400 
     91 CB         -7.4056  -25.8305  -50.9000 C.3       16 UNK        -0.1800 
     92 C          -8.0101  -23.4758  -50.0378 C.2       16 UNK         0.5000 
     93 O          -9.0506  -23.5639  -50.6944 O.2       16 UNK        -0.5000 
     94 N          -7.6286  -22.3731  -49.3771 N.am      17 UNK        -0.5000 
     95 CA         -8.1945  -21.0238  -49.4471 C.3       17 UNK         0.1400 
     96 CB         -9.6689  -20.9781  -48.9963 C.3       17 UNK        -0.1800 
     97 C          -7.9725  -20.4039  -50.8391 C.2       17 UNK         0.5000 
     98 O          -7.1619  -19.4869  -50.9740 O.2       17 UNK        -0.5000 
     99 N          -8.6629  -20.9478  -51.8455 N.am      18 UNK        -0.5000 
    100 CA        -8.4965  -20.6348  -53.2629 C.3       18 UNK         0.1400 
    101 CB        -9.2513  -19.3333  -53.6002 C.3       18 UNK        -0.1800 
    102 C         -8.9330  -21.8045  -54.1702 C.2       18 UNK         0.5000 
    103 O         -9.0491  -21.6077  -55.3812 O.2       18 UNK        -0.5000 
    104 N         -9.2013  -22.9900  -53.5982 N.am      19 UNK        -0.5000 
    105 CA        -9.6819  -24.1616  -54.3356 C.3       19 UNK         0.1400 
    106 CB       -10.4243  -25.0979  -53.3696 C.3       19 UNK        -0.1800 
    107 C         -8.5684  -24.9177  -55.0872 C.2       19 UNK         0.5000 
    108 O         -8.8812  -25.6838  -56.0003 O.2       19 UNK        -0.5000 
    109 N         -7.3053  -24.6982  -54.7060 N.am      20 UNK        -0.5000 
    110 CA        -6.1147  -25.2450  -55.3501 C.3       20 UNK         0.1400 
    111 CB        -5.4031  -26.1833  -54.3588 C.3       20 UNK        -0.1800 
    112 C         -5.1941  -24.0951  -55.7948 C.2       20 UNK         0.5000 
    113 O         -5.4603  -22.9268  -55.4998 O.2       20 UNK        -0.5000 
    114 N         -4.1213  -24.4440  -56.5146 N.am      21 UNK        -0.5000 
    115 CA        -3.0846  -23.5074  -56.9456 C.3       21 UNK         0.1400 
    116 CB        -2.1769  -24.1989  -57.9745 C.3       21 UNK        -0.1800 
    117 C         -2.2598  -22.9962  -55.7496 C.2       21 UNK         0.5000 
    118 O         -1.8891  -23.7889  -54.8811 O.2       21 UNK        -0.5000 
    119 N         -1.9761  -21.6893  -55.7405 N.am      22 UNK        -0.5000 
    120 CA        -1.1613  -21.0214  -54.7122 C.3       22 UNK         0.1400 
    121 C          0.3637  -21.3349  -54.8088 C.2       22 UNK         0.5000 
    122 N          0.8790  -21.7604  -55.9565 N.am      22 UNK        -0.7600 
    123 O          1.0886  -21.2132  -53.8263 O.2       22 UNK        -0.5000 
    124 C124       -1.4489  -19.4956  -54.7018 C.3       23 UNK        -0.0398 
    125 S125       -1.0949  -18.6930  -53.1022 S.3       23 UNK        -0.2404 
    126 C126        0.4358  -17.7977  -53.5139 C.3       23 UNK        -0.0205 
    127 H127        0.8750  -12.2716  -43.7084 H         1 UNK         0.0600 
    128 H128       -0.5125  -12.6635  -44.7332 H         1 UNK         0.0600 
    129 H129       -0.5205  -11.1902  -43.7666 H         1 UNK         0.0600 
    130 H130        0.5124  -12.6480  -46.7717 H         1 UNK         0.3000 
    131 H131        1.1052  -10.1071  -47.9896 H         1 UNK         0.0600 
    132 H132       -0.1547  -11.5266  -49.3401 H         1 UNK         0.0800 
    133 H133        1.4105  -11.5202  -50.0745 H         1 UNK         0.0800 
    134 H134        1.8667  -13.5134  -51.2967 H         1 UNK         0.0800 
    135 H135        3.0426  -13.8938  -50.0615 H         1 UNK         0.0800 
    136 H136        0.7533  -15.2606  -52.5304 H         1 UNK         0.1150 
    137 H137        1.7430  -19.3493  -51.7286 H         1 UNK         0.1150 
    138 H138        3.1144  -16.2561  -49.0901 H         1 UNK         0.1150 
    139 H139        3.0370  -19.9689  -49.8649 H         1 UNK         0.0800 
    140 H140        4.2079  -18.7800  -49.3492 H         1 UNK         0.0800 
    141 H141        0.4170  -19.0226  -49.0891 H         1 UNK         0.0800 
    142 H142        0.1119  -18.4943  -47.4652 H         1 UNK         0.0800 
    143 H143        0.6927  -21.3806  -48.2978 H         1 UNK         0.0600 
    144 H144        0.7125  -20.3046  -45.6786 H         1 UNK         0.3000 
    145 H145       -0.3982  -23.2534  -43.9468 H         1 UNK         0.0600 
    146 H146        1.7147  -22.7752  -42.7192 H         1 UNK         0.0600 
    147 H147        2.0231  -23.5685  -44.2569 H         1 UNK         0.0600 
    148 H148        2.3173  -21.8461  -44.0889 H         1 UNK         0.0600 
    149 H149        0.3258  -20.6246  -43.0561 H         1 UNK         0.3000 
    150 H150       -2.9907  -19.2540  -43.2411 H         1 UNK         0.0600 
    151 H151       -2.9169  -20.5500  -41.1054 H         1 UNK         0.0600 
    152 H152       -2.5614  -18.8499  -40.8439 H         1 UNK         0.0600 
    153 H153       -1.2562  -20.0343  -40.8403 H         1 UNK         0.0600 
    154 H154       -0.5747  -18.1154  -42.2909 H         1 UNK         0.3000 
    155 H155        0.6909  -16.9829  -45.4570 H         1 UNK         0.0600 
    156 H156       -0.4450  -15.4887  -43.0348 H         1 UNK         0.0600 
    157 H157       -0.9289  -15.2434  -44.7098 H         1 UNK         0.0600 
    158 H158        0.7078  -14.8450  -44.2016 H         1 UNK         0.0600 
    159 H159        1.7749  -16.6686  -42.8745 H         1 UNK         0.3000 
    160 H160        3.5678  -19.7846  -42.7032 H         1 UNK         0.0600 
    161 H161        4.3613  -16.8306  -42.8829 H         1 UNK         0.0600 
    162 H162        4.9222  -18.1032  -43.9576 H         1 UNK         0.0600 
    163 H163        5.3554  -18.1414  -42.2549 H         1 UNK         0.0600 
    164 H164        3.0987  -17.5622  -40.8975 H         1 UNK         0.3000 
    165 H165        0.4695  -19.1014  -39.0739 H         1 UNK         0.0600 
    166 H166        2.0491  -18.8237  -37.1829 H         1 UNK         0.0600 
    167 H167        2.5112  -20.2104  -38.1565 H         1 UNK         0.0600 
    168 H168        3.4105  -18.7046  -38.2983 H         1 UNK         0.0600 
    169 H169        2.0000  -16.7058  -38.6821 H         1 UNK         0.3000 
    170 H170       -0.0266  -14.5732  -40.7008 H         1 UNK         0.0600 
    171 H171       -1.2552  -14.8202  -38.5358 H         1 UNK         0.0600 
    172 H172        0.2703  -14.8069  -37.6589 H         1 UNK         0.0600 
    173 H173       -0.2542  -13.3775  -38.5497 H         1 UNK         0.0600 
    174 H174        2.1530  -13.9080  -39.0643 H         1 UNK         0.3000 
    175 H175        4.0308  -13.0722  -40.2242 H         1 UNK         0.0600 
    176 H176        5.1472  -15.9380  -40.3174 H         1 UNK         0.0600 
    177 H177        6.0124  -14.5193  -39.7280 H         1 UNK         0.0600 
    178 H178        4.5988  -15.1042  -38.8683 H         1 UNK         0.0600 
    179 H179        5.4891  -14.5048  -42.2630 H         1 UNK         0.3000 
    180 H180        6.1123  -13.1288  -44.1545 H         1 UNK         0.0600 
    181 H181        3.4558  -14.2680  -45.2316 H         1 UNK         0.0600 
    182 H182        4.7989  -15.2117  -44.5992 H         1 UNK         0.0600 
    183 H183        4.9891  -14.3202  -46.0982 H         1 UNK         0.0600 
    184 H184        3.8430  -11.4200  -44.8099 H         1 UNK         0.3000 
    185 H185        4.9314   -9.2158  -45.9019 H         1 UNK         0.0600 
    186 H186        6.7309   -9.2507  -47.5774 H         1 UNK         0.0600 
    187 H187        5.7922  -10.2856  -48.6423 H         1 UNK         0.0600 
    188 H188        5.2614   -8.6362  -48.3165 H         1 UNK         0.0600 
    189 H189        2.8253   -9.6766  -46.4321 H         1 UNK         0.3000 
    190 H190       -1.9371  -19.7608  -46.4451 H         1 UNK         0.3000 
    191 H191       -3.9496  -19.9867  -48.4214 H         1 UNK         0.0600 
    192 H192       -4.2148  -19.8520  -45.3722 H         1 UNK         0.0600 
    193 H193       -5.5043  -19.5428  -46.5280 H         1 UNK         0.0600 
    194 H194       -4.1121  -18.4720  -46.4629 H         1 UNK         0.0600 
    195 H195       -2.9885  -22.2689  -45.8210 H         1 UNK         0.3000 
    196 H196       -5.0068  -24.2126  -46.3101 H         1 UNK         0.0600 
    197 H197       -3.5150  -25.7208  -45.0090 H         1 UNK         0.0600 
    198 H198       -3.6673  -24.1552  -44.2261 H         1 UNK         0.0600 
    199 H199       -2.2038  -24.5551  -45.1218 H         1 UNK         0.0600 
    200 H200       -1.6751  -23.8759  -47.6335 H         1 UNK         0.3000 
    201 H201       -1.7053  -26.1918  -49.2720 H         1 UNK         0.0600 
    202 H202        0.3711  -24.9913  -48.6519 H         1 UNK         0.0600 
    203 H203       -0.1282  -23.5824  -49.5840 H         1 UNK         0.0600 
    204 H204        0.2319  -25.0977  -50.4008 H         1 UNK         0.0600 
    205 H205       -2.7040  -22.8267  -49.9568 H         1 UNK         0.3000 
    206 H206       -3.5193  -23.3062  -52.6873 H         1 UNK         0.0600 
    207 H207       -2.8434  -21.0586  -51.7716 H         1 UNK         0.0600 
    208 H208       -4.4444  -21.0211  -52.4960 H         1 UNK         0.0600 
    209 H209       -4.2749  -21.0565  -50.7453 H         1 UNK         0.0600 
    210 H210       -4.9229  -24.2896  -49.7624 H         1 UNK         0.3000 
    211 H211       -6.8933  -24.9656  -49.0055 H         1 UNK         0.0600 
    212 H212       -7.4876  -25.5665  -51.9538 H         1 UNK         0.0600 
    213 H213       -8.3717  -26.2218  -50.5795 H         1 UNK         0.0600 
    214 H214       -6.6825  -26.6418  -50.8183 H         1 UNK         0.0600 
    215 H215       -6.7156  -22.4078  -48.9236 H         1 UNK         0.3000 
    216 H216       -7.6201  -20.4250  -48.7383 H         1 UNK         0.0600 
    217 H217      -10.0349  -19.9509  -48.9832 H         1 UNK         0.0600 
    218 H218       -9.7805  -21.3750  -47.9874 H         1 UNK         0.0600 
    219 H219      -10.3284  -21.5469  -49.6513 H         1 UNK         0.0600 
    220 H220       -9.2733  -21.7244  -51.6215 H         1 UNK         0.3000 
    221 H221       -7.4329  -20.4839  -53.4603 H         1 UNK         0.0600 
    222 H222      -10.3223  -19.4378  -53.4237 H         1 UNK         0.0600 
    223 H223       -8.8931  -18.4973  -52.9995 H         1 UNK         0.0600 
    224 H224       -9.1144  -19.0554  -54.6459 H         1 UNK         0.0600 
    225 H225       -9.0300  -23.1320  -52.6085 H         1 UNK         0.3000 
    226 H226      -10.4032  -23.8269  -55.0842 H         1 UNK         0.0600 
    227 H227      -11.2485  -24.5824  -52.8763 H         1 UNK         0.0600 
    228 H228      -10.8465  -25.9521  -53.9003 H         1 UNK         0.0600 
    229 H229       -9.7650  -25.4881  -52.5958 H         1 UNK         0.0600 
    230 H230       -7.1147  -24.0107  -53.9804 H         1 UNK         0.3000 
    231 H231       -6.3848  -25.8136  -56.2420 H         1 UNK         0.0600 
    232 H232       -4.5531  -26.6818  -54.8253 H         1 UNK         0.0600 
    233 H233       -6.0770  -26.9620  -54.0013 H         1 UNK         0.0600 
    234 H234       -5.0262  -25.6455  -53.4892 H         1 UNK         0.0600 
    235 H235       -3.9469  -25.4212  -56.6975 H         1 UNK         0.3000 
    236 H236       -3.5718  -22.6596  -57.4325 H         1 UNK         0.0600 
    237 H237       -2.7467  -24.5360  -58.8407 H         1 UNK         0.0600 
    238 H238       -1.4081  -23.5161  -58.3384 H         1 UNK         0.0600 
    239 H239       -1.6704  -25.0653  -57.5471 H         1 UNK         0.0600 
    240 H240       -2.3104  -21.1073  -56.4949 H         1 UNK         0.3000 
    241 H241       -1.4885  -21.4229  -53.7512 H         1 UNK         0.0600 
    242 H242        1.8633  -21.9719  -56.0066 H         1 UNK         0.3800 
    243 H243        0.3007  -21.8770  -56.7726 H         1 UNK         0.3800 
    244 H244       -0.9209  -18.9892  -55.5119 H         1 UNK         0.0800 
    245 H245       -2.5091  -19.3215  -54.8912 H         1 UNK         0.0800 
    246 H246        1.0965  -18.4395  -54.0980 H         1 UNK         0.0800 
    247 H247        0.1932  -16.9439  -54.1484 H         1 UNK         0.0800 
@<TRIPOS>BOND
     1    1    2 1    
     2    1  127 1    
     3    1  128 1    
     4    1  129 1    
     5    2    3 2    
     6    2    4 am   BACKBONE|DICT|INTERRES
     7    4    5 1    
     8    4  130 1    
     9    5    6 1    
    10    5   65 1    
    11    5  131 1    
    12    6    7 1    
    13    6  132 1    
    14    6  133 1    
    15    7    8 1    
    16    8    9 1    
    17    8  134 1    
    18    8  135 1    
    19    9   10 ar   
    20    9   14 ar   
    21   10   11 ar   
    22   10  136 1    
    23   11   12 ar   
    24   11  126 1    
    25   12   13 ar   
    26   12  137 1    
    27   13   14 ar   
    28   13   15 1    
    29   14  138 1    
    30   15   16 1    
    31   15  139 1    
    32   15  140 1    
    33   16   17 1    
    34   17   18 1    
    35   17  141 1    
    36   17  142 1    
    37   18   19 1    
    38   18   67 1    
    39   18  143 1    
    40   19   20 am   BACKBONE|DICT|INTERRES
    41   19  144 1    
    42   20   21 2    
    43   20   22 1    
    44   22   23 1    
    45   22   24 1    
    46   22  145 1    
    47   23  146 1    
    48   23  147 1    
    49   23  148 1    
    50   24   25 am   BACKBONE|DICT|INTERRES
    51   24  149 1    
    52   25   26 2    
    53   25   27 1    
    54   27   28 1    
    55   27   29 1    
    56   27  150 1    
    57   28  151 1    
    58   28  152 1    
    59   28  153 1    
    60   29   30 am   BACKBONE|DICT|INTERRES
    61   29  154 1    
    62   30   31 2    
    63   30   32 1    
    64   32   33 1    
    65   32   34 1    
    66   32  155 1    
    67   33  156 1    
    68   33  157 1    
    69   33  158 1    
    70   34   35 am   BACKBONE|DICT|INTERRES
    71   34  159 1    
    72   35   36 2    
    73   35   37 1    
    74   37   38 1    
    75   37   39 1    
    76   37  160 1    
    77   38  161 1    
    78   38  162 1    
    79   38  163 1    
    80   39   40 am   BACKBONE|DICT|INTERRES
    81   39  164 1    
    82   40   41 2    
    83   40   42 1    
    84   42   43 1    
    85   42   44 1    
    86   42  165 1    
    87   43  166 1    
    88   43  167 1    
    89   43  168 1    
    90   44   45 am   BACKBONE|DICT|INTERRES
    91   44  169 1    
    92   45   46 2    
    93   45   47 1    
    94   47   48 1    
    95   47   49 1    
    96   47  170 1    
    97   48  171 1    
    98   48  172 1    
    99   48  173 1    
   100   49   50 am   BACKBONE|DICT|INTERRES
   101   49  174 1    
   102   50   51 2    
   103   50   52 1    
   104   52   53 1    
   105   52   54 1    
   106   52  175 1    
   107   53  176 1    
   108   53  177 1    
   109   53  178 1    
   110   54   55 am   BACKBONE|DICT|INTERRES
   111   54  179 1    
   112   55   56 2    
   113   55   57 1    
   114   57   58 1    
   115   57   59 1    
   116   57  180 1    
   117   58  181 1    
   118   58  182 1    
   119   58  183 1    
   120   59   60 am   BACKBONE|DICT|INTERRES
   121   59  184 1    
   122   60   61 2    
   123   60   62 1    
   124   62   63 1    
   125   62   64 1    
   126   62  185 1    
   127   63  186 1    
   128   63  187 1    
   129   63  188 1    
   130   64   65 am   BACKBONE|DICT|INTERRES
   131   64  189 1    
   132   65   66 2    
   133   67   68 2    
   134   67   69 am   BACKBONE|DICT|INTERRES
   135   69   70 1    
   136   69  190 1    
   137   70   71 1    
   138   70   72 1    
   139   70  191 1    
   140   71  192 1    
   141   71  193 1    
   142   71  194 1    
   143   72   73 2    
   144   72   74 am   BACKBONE|DICT|INTERRES
   145   74   75 1    
   146   74  195 1    
   147   75   76 1    
   148   75   77 1    
   149   75  196 1    
   150   76  197 1    
   151   76  198 1    
   152   76  199 1    
   153   77   78 2    
   154   77   79 am   BACKBONE|DICT|INTERRES
   155   79   80 1    
   156   79  200 1    
   157   80   81 1    
   158   80   82 1    
   159   80  201 1    
   160   81  202 1    
   161   81  203 1    
   162   81  204 1    
   163   82   83 2    
   164   82   84 am   BACKBONE|DICT|INTERRES
   165   84   85 1    
   166   84  205 1    
   167   85   86 1    
   168   85   87 1    
   169   85  206 1    
   170   86  207 1    
   171   86  208 1    
   172   86  209 1    
   173   87   88 2    
   174   87   89 am   BACKBONE|DICT|INTERRES
   175   89   90 1    
   176   89  210 1    
   177   90   91 1    
   178   90   92 1    
   179   90  211 1    
   180   91  212 1    
   181   91  213 1    
   182   91  214 1    
   183   92   93 2    
   184   92   94 am   BACKBONE|DICT|INTERRES
   185   94   95 1    
   186   94  215 1    
   187   95   96 1    
   188   95   97 1    
   189   95  216 1    
   190   96  217 1    
   191   96  218 1    
   192   96  219 1    
   193   97   98 2    
   194   97   99 am   BACKBONE|DICT|INTERRES
   195   99  100 1    
   196   99  220 1    
   197  100  101 1    
   198  100  102 1    
   199  100  221 1    
   200  101  222 1    
   201  101  223 1    
   202  101  224 1    
   203  102  103 2    
   204  102  104 am   BACKBONE|DICT|INTERRES
   205  104  105 1    
   206  104  225 1    
   207  105  106 1    
   208  105  107 1    
   209  105  226 1    
   210  106  227 1    
   211  106  228 1    
   212  106  229 1    
   213  107  108 2    
   214  107  109 am   BACKBONE|DICT|INTERRES
   215  109  110 1    
   216  109  230 1    
   217  110  111 1    
   218  110  112 1    
   219  110  231 1    
   220  111  232 1    
   221  111  233 1    
   222  111  234 1    
   223  112  113 2    
   224  112  114 am   BACKBONE|DICT|INTERRES
   225  114  115 1    
   226  114  235 1    
   227  115  116 1    
   228  115  117 1    
   229  115  236 1    
   230  116  237 1    
   231  116  238 1    
   232  116  239 1    
   233  117  118 2    
   234  117  119 am   BACKBONE|DICT|INTERRES
   235  119  120 1    
   236  119  240 1    
   237  120  121 1    
   238  120  124 1    
   239  120  241 1    
   240  121  122 am   BACKBONE|DICT|INTERRES
   241  121  123 2    
   242  122  242 1    
   243  122  243 1    
   244  124  125 1    
   245  124  244 1    
   246  124  245 1    
   247  125  126 1    
   248  126  246 1    
   249  126  247 1    
@<TRIPOS>SUBSTRUCTURE
     1 UNK         1 GROUP             0       ****    0 ROOT    
