@<TRIPOS>MOLECULE
3R540
247   249    1
SMALL
USER_CHARGES


@<TRIPOS>ATOM
      1 CA         -0.4620   -9.4921  -43.0455 C.3       0 UNK        -0.1800 
      2 C          -0.8965   -9.5546  -44.5033 C.2       0 UNK         0.5000 
      3 O          -0.7238   -8.5807  -45.2370 O.2       0 UNK        -0.5000 
      4 N          -1.4649  -10.6919  -44.9203 N.am      1 UNK        -0.5000 
      5 CA         -1.8850  -10.9623  -46.2989 C.3       1 UNK         0.1400 
      6 C6         -2.8031  -12.2010  -46.3905 C.3       23 UNK        -0.0398 
      7 S7         -4.3827  -11.9695  -45.5098 S.3       23 UNK        -0.2404 
      8 C8         -4.2946  -13.3035  -44.2657 C.3       23 UNK        -0.0205 
      9 C9         -4.2628  -14.7346  -44.8112 C.ar      23 UNK        -0.0193 
     10 C10        -4.5728  -15.0574  -46.1408 C.ar      23 UNK        -0.1150 
     11 C11        -4.5401  -16.3824  -46.5864 C.ar      23 UNK        -0.0193 
     12 C12        -4.2135  -17.3986  -45.6835 C.ar      23 UNK        -0.1150 
     13 C13        -3.9089  -17.0951  -44.3536 C.ar      23 UNK        -0.0193 
     14 C14        -3.9302  -15.7654  -43.9280 C.ar      23 UNK        -0.1150 
     15 C15        -3.5766  -18.2067  -43.3740 C.3       23 UNK        -0.0205 
     16 S16        -1.8110  -18.6352  -43.4438 S.3       23 UNK        -0.2404 
     17 C17        -1.8732  -20.3778  -42.9066 C.3       23 UNK        -0.0398 
     18 CA         -2.2526  -21.3213  -44.0724 C.3       11 UNK         0.1400 
     19 N          -1.3563  -21.1859  -45.2182 N.am      11 UNK        -0.5000 
     20 C          -1.6667  -21.5153  -46.4768 C.2       10 UNK         0.5000 
     21 O          -2.7475  -21.9958  -46.8171 O.2       10 UNK        -0.5000 
     22 CA         -0.5578  -21.2997  -47.5196 C.3       10 UNK         0.1400 
     23 CB         -0.5158  -19.8196  -47.9360 C.3       10 UNK        -0.1800 
     24 N           0.7570  -21.7012  -47.0144 N.am      10 UNK        -0.5000 
     25 C           1.0846  -22.9545  -46.6584 C.2       9 UNK         0.5000 
     26 O           0.3301  -23.9162  -46.7937 O.2       9 UNK        -0.5000 
     27 CA          2.4567  -23.1723  -45.9871 C.3       9 UNK         0.1400 
     28 CB          3.5107  -23.5444  -47.0398 C.3       9 UNK        -0.1800 
     29 N           2.9292  -22.0145  -45.2288 N.am      9 UNK        -0.5000 
     30 C           2.2752  -21.4054  -44.2290 C.2       8 UNK         0.5000 
     31 O           1.2397  -21.8449  -43.7272 O.2       8 UNK        -0.5000 
     32 CA          2.8324  -20.0437  -43.7606 C.3       8 UNK         0.1400 
     33 CB          3.5694  -20.1948  -42.4223 C.3       8 UNK        -0.1800 
     34 N           3.7244  -19.3868  -44.7261 N.am      8 UNK        -0.5000 
     35 C           3.4047  -19.0438  -45.9817 C.2       7 UNK         0.5000 
     36 O           2.3010  -19.2579  -46.4849 O.2       7 UNK        -0.5000 
     37 CA          4.5185  -18.3803  -46.8097 C.3       7 UNK         0.1400 
     38 CB          4.1721  -18.3129  -48.3091 C.3       7 UNK        -0.1800 
     39 N           4.7884  -17.0317  -46.3246 N.am      7 UNK        -0.5000 
     40 C           5.5376  -16.7130  -45.2618 C.2       6 UNK         0.5000 
     41 O           6.1074  -17.5464  -44.5556 O.2       6 UNK        -0.5000 
     42 CA          5.6473  -15.2178  -44.9240 C.3       6 UNK         0.1400 
     43 CB          6.5644  -14.4989  -45.9265 C.3       6 UNK        -0.1800 
     44 N           4.3258  -14.5928  -44.9460 N.am      6 UNK        -0.5000 
     45 C           3.6152  -14.2651  -43.8584 C.2       5 UNK         0.5000 
     46 O           4.0361  -14.3754  -42.7061 O.2       5 UNK        -0.5000 
     47 CA          2.1860  -13.7285  -44.0870 C.3       5 UNK         0.1400 
     48 CB          2.1863  -12.1933  -44.1018 C.3       5 UNK        -0.1800 
     49 N           1.5629  -14.2252  -45.3169 N.am      5 UNK        -0.5000 
     50 C           1.2536  -15.5123  -45.5353 C.2       4 UNK         0.5000 
     51 O           1.3807  -16.3915  -44.6835 O.2       4 UNK        -0.5000 
     52 CA          0.7513  -15.8975  -46.9402 C.3       4 UNK         0.1400 
     53 CB         -0.7799  -15.9956  -46.9543 C.3       4 UNK        -0.1800 
     54 N           1.1824  -15.0133  -48.0286 N.am      4 UNK        -0.5000 
     55 C           2.4434  -14.7289  -48.3783 C.2       3 UNK         0.5000 
     56 O           3.4258  -15.0790  -47.7260 O.2       3 UNK        -0.5000 
     57 CA          2.6586  -13.8917  -49.6534 C.3       3 UNK         0.1400 
     58 CB          2.4046  -14.7213  -50.9251 C.3       3 UNK        -0.1800 
     59 N           1.9157  -12.6279  -49.6690 N.am      3 UNK        -0.5000 
     60 C           0.5920  -12.4366  -49.7125 C.2       2 UNK         0.5000 
     61 O          -0.2444  -13.3400  -49.8133 O.2       2 UNK        -0.5000 
     62 CA          0.1235  -10.9769  -49.5832 C.3       2 UNK         0.1400 
     63 CB         -0.4894  -10.4885  -50.9044 C.3       2 UNK        -0.1800 
     64 N          -0.8545  -10.8105  -48.5083 N.am      2 UNK        -0.5000 
     65 C          -0.6695  -11.1557  -47.2261 C.2       1 UNK         0.5000 
     66 O           0.3746  -11.6444  -46.7834 O.2       1 UNK        -0.5000 
     67 C          -2.3460  -22.7858  -43.6115 C.2       11 UNK         0.5000 
     68 O          -3.4337  -23.2280  -43.2428 O.2       11 UNK        -0.5000 
     69 N          -1.2358  -23.5340  -43.7028 N.am      12 UNK        -0.5000 
     70 CA         -1.1918  -24.9815  -43.4681 C.3       12 UNK         0.1400 
     71 CB          0.2658  -25.4632  -43.4799 C.3       12 UNK        -0.1800 
     72 C          -2.0370  -25.7706  -44.4895 C.2       12 UNK         0.5000 
     73 O          -2.6929  -26.7435  -44.1172 O.2       12 UNK        -0.5000 
     74 N          -2.0475  -25.3010  -45.7448 N.am      13 UNK        -0.5000 
     75 CA         -2.8998  -25.7908  -46.8300 C.3       13 UNK         0.1400 
     76 CB         -2.2541  -25.4122  -48.1731 C.3       13 UNK        -0.1800 
     77 C          -4.3495  -25.2637  -46.7643 C.2       13 UNK         0.5000 
     78 O          -5.1489  -25.6192  -47.6298 O.2       13 UNK        -0.5000 
     79 N          -4.6642  -24.4112  -45.7762 N.am      14 UNK        -0.5000 
     80 CA         -5.9613  -23.7709  -45.5282 C.3       14 UNK         0.1400 
     81 CB         -7.0018  -24.8185  -45.0806 C.3       14 UNK        -0.1800 
     82 C          -6.4528  -22.8991  -46.7045 C.2       14 UNK         0.5000 
     83 O          -7.6590  -22.8074  -46.9399 O.2       14 UNK        -0.5000 
     84 N          -5.5020  -22.2827  -47.4239 N.am      15 UNK        -0.5000 
     85 CA         -5.6828  -21.4344  -48.6058 C.3       15 UNK         0.1400 
     86 CB         -6.4065  -20.1280  -48.2249 C.3       15 UNK        -0.1800 
     87 C          -6.3448  -22.1545  -49.8024 C.2       15 UNK         0.5000 
     88 O          -6.9895  -21.5016  -50.6259 O.2       15 UNK        -0.5000 
     89 N          -6.1833  -23.4838  -49.8838 N.am      16 UNK        -0.5000 
     90 CA         -6.7239  -24.3239  -50.9518 C.3       16 UNK         0.1400 
     91 CB         -6.4890  -25.8001  -50.5990 C.3       16 UNK        -0.1800 
     92 C          -6.1004  -24.0086  -52.3222 C.2       16 UNK         0.5000 
     93 O          -4.9040  -23.7157  -52.4037 O.2       16 UNK        -0.5000 
     94 N          -6.9078  -24.1446  -53.3823 N.am      17 UNK        -0.5000 
     95 CA         -6.5184  -23.9255  -54.7805 C.3       17 UNK         0.1400 
     96 CB         -7.7781  -23.9585  -55.6591 C.3       17 UNK        -0.1800 
     97 C          -5.4660  -24.9236  -55.3060 C.2       17 UNK         0.5000 
     98 O          -4.8074  -24.6377  -56.3057 O.2       17 UNK        -0.5000 
     99 N          -5.3076  -26.0611  -54.6144 N.am      18 UNK        -0.5000 
    100 CA        -4.2403  -27.0362  -54.8388 C.3       18 UNK         0.1400 
    101 CB        -4.5438  -28.3038  -54.0254 C.3       18 UNK        -0.1800 
    102 C         -2.8437  -26.4868  -54.4817 C.2       18 UNK         0.5000 
    103 O         -1.8589  -26.9099  -55.0885 O.2       18 UNK        -0.5000 
    104 N         -2.7858  -25.5542  -53.5201 N.am      19 UNK        -0.5000 
    105 CA        -1.5791  -24.8222  -53.1470 C.3       19 UNK         0.1400 
    106 CB        -1.5378  -24.6337  -51.6206 C.3       19 UNK        -0.1800 
    107 C         -1.5389  -23.4704  -53.8746 C.2       19 UNK         0.5000 
    108 O         -0.5547  -23.1809  -54.5554 O.2       19 UNK        -0.5000 
    109 N         -2.6122  -22.6767  -53.7137 N.am      20 UNK        -0.5000 
    110 CA        -2.8199  -21.3304  -54.2681 C.3       20 UNK         0.1400 
    111 CB        -3.0625  -21.4084  -55.7891 C.3       20 UNK        -0.1800 
    112 C         -1.7035  -20.3281  -53.8911 C.2       20 UNK         0.5000 
    113 O         -1.3517  -19.4580  -54.6892 O.2       20 UNK        -0.5000 
    114 N         -1.1446  -20.4936  -52.6849 N.am      21 UNK        -0.5000 
    115 CA         0.0413  -19.7788  -52.2112 C.3       21 UNK         0.1400 
    116 CB         0.7731  -20.6685  -51.1943 C.3       21 UNK        -0.1800 
    117 C         -0.2483  -18.3733  -51.6464 C.2       21 UNK         0.5000 
    118 O          0.6932  -17.5985  -51.4807 O.2       21 UNK        -0.5000 
    119 N         -1.5214  -18.0563  -51.3740 N.am      22 UNK        -0.5000 
    120 CA        -1.9829  -16.6999  -51.0326 C.3       22 UNK         0.1400 
    121 C         -1.9033  -15.7479  -52.2596 C.2       22 UNK         0.5000 
    122 N         -1.4219  -14.5250  -52.0892 N.am      22 UNK        -0.7600 
    123 O         -2.3258  -16.0945  -53.3604 O.2       22 UNK        -0.5000 
    124 C124       -3.4269  -16.7043  -50.4659 C.3       23 UNK        -0.0398 
    125 S125       -3.5811  -17.6273  -48.8978 S.3       23 UNK        -0.2404 
    126 C126       -4.9022  -16.7109  -48.0302 C.3       23 UNK        -0.0205 
    127 H127       -0.6872  -10.4177  -42.5150 H         1 UNK         0.0600 
    128 H128       -0.9724   -8.6750  -42.5357 H         1 UNK         0.0600 
    129 H129        0.6122   -9.3178  -42.9823 H         1 UNK         0.0600 
    130 H130       -1.5678  -11.4597  -44.2744 H         1 UNK         0.3000 
    131 H131       -2.4440  -10.0935  -46.6540 H         1 UNK         0.0600 
    132 H132       -2.2866  -13.0804  -46.0036 H         1 UNK         0.0800 
    133 H133       -3.0474  -12.4279  -47.4302 H         1 UNK         0.0800 
    134 H134       -3.4152  -13.1342  -43.6425 H         1 UNK         0.0800 
    135 H135       -5.1593  -13.2094  -43.6076 H         1 UNK         0.0800 
    136 H136       -4.8516  -14.2830  -46.8393 H         1 UNK         0.1150 
    137 H137       -4.1944  -18.4267  -46.0172 H         1 UNK         0.1150 
    138 H138       -3.6952  -15.5331  -42.8985 H         1 UNK         0.1150 
    139 H139       -4.1920  -19.0771  -43.6030 H         1 UNK         0.0800 
    140 H140       -3.8345  -17.9121  -42.3557 H         1 UNK         0.0800 
    141 H141       -2.5836  -20.4708  -42.0831 H         1 UNK         0.0800 
    142 H142       -0.8959  -20.6420  -42.4992 H         1 UNK         0.0800 
    143 H143       -3.2536  -21.0434  -44.4086 H         1 UNK         0.0600 
    144 H144       -0.4298  -20.8358  -45.0199 H         1 UNK         0.3000 
    145 H145       -0.7862  -21.9114  -48.3942 H         1 UNK         0.0600 
    146 H146       -1.4065  -19.5551  -48.5046 H         1 UNK         0.0600 
    147 H147        0.3490  -19.5955  -48.5591 H         1 UNK         0.0600 
    148 H148       -0.4687  -19.1550  -47.0719 H         1 UNK         0.0600 
    149 H149        1.4194  -20.9481  -46.8490 H         1 UNK         0.3000 
    150 H150        2.3608  -24.0042  -45.2886 H         1 UNK         0.0600 
    151 H151        3.6727  -22.7332  -47.7510 H         1 UNK         0.0600 
    152 H152        3.2014  -24.4226  -47.6082 H         1 UNK         0.0600 
    153 H153        4.4679  -23.7810  -46.5747 H         1 UNK         0.0600 
    154 H154        3.7728  -21.5754  -45.5650 H         1 UNK         0.3000 
    155 H155        1.9757  -19.3835  -43.6090 H         1 UNK         0.0600 
    156 H156        4.4561  -20.8222  -42.5209 H         1 UNK         0.0600 
    157 H157        2.9248  -20.6512  -41.6698 H         1 UNK         0.0600 
    158 H158        3.8840  -19.2258  -42.0341 H         1 UNK         0.0600 
    159 H159        4.6440  -19.1250  -44.3901 H         1 UNK         0.3000 
    160 H160        5.4212  -18.9857  -46.7044 H         1 UNK         0.0600 
    161 H161        3.2636  -17.7380  -48.4919 H         1 UNK         0.0600 
    162 H162        4.0122  -19.3117  -48.7172 H         1 UNK         0.0600 
    163 H163        4.9783  -17.8528  -48.8804 H         1 UNK         0.0600 
    164 H164        4.3281  -16.2832  -46.8399 H         1 UNK         0.3000 
    165 H165        6.0989  -15.1303  -43.9337 H         1 UNK         0.0600 
    166 H166        6.6905  -13.4498  -45.6587 H         1 UNK         0.0600 
    167 H167        7.5563  -14.9522  -45.9427 H         1 UNK         0.0600 
    168 H168        6.1676  -14.5382  -46.9418 H         1 UNK         0.0600 
    169 H169        3.8832  -14.5132  -45.8551 H         1 UNK         0.3000 
    170 H170        1.5748  -14.0591  -43.2447 H         1 UNK         0.0600 
    171 H171        1.1702  -11.8046  -44.1455 H         1 UNK         0.0600 
    172 H172        2.7337  -11.7988  -44.9587 H         1 UNK         0.0600 
    173 H173        2.6481  -11.7902  -43.1996 H         1 UNK         0.0600 
    174 H174        1.3929  -13.5466  -46.0496 H         1 UNK         0.3000 
    175 H175        1.1522  -16.8888  -47.1581 H         1 UNK         0.0600 
    176 H176       -1.1446  -16.6394  -46.1521 H         1 UNK         0.0600 
    177 H177       -1.2490  -15.0199  -46.8337 H         1 UNK         0.0600 
    178 H178       -1.1302  -16.4229  -47.8915 H         1 UNK         0.0600 
    179 H179        0.4506  -14.6151  -48.6099 H         1 UNK         0.3000 
    180 H180        3.7130  -13.6104  -49.6618 H         1 UNK         0.0600 
    181 H181        1.3654  -15.0379  -51.0087 H         1 UNK         0.0600 
    182 H182        3.0164  -15.6242  -50.9292 H         1 UNK         0.0600 
    183 H183        2.6534  -14.1545  -51.8221 H         1 UNK         0.0600 
    184 H184        2.4949  -11.8080  -49.5527 H         1 UNK         0.3000 
    185 H185        0.9815  -10.3444  -49.3467 H         1 UNK         0.0600 
    186 H186        0.2235  -10.5848  -51.7244 H         1 UNK         0.0600 
    187 H187       -1.3772  -11.0628  -51.1730 H         1 UNK         0.0600 
    188 H188       -0.7739   -9.4378  -50.8444 H         1 UNK         0.0600 
    189 H189       -1.7523  -10.4432  -48.7874 H         1 UNK         0.3000 
    190 H190       -0.3664  -23.0797  -43.9624 H         1 UNK         0.3000 
    191 H191       -1.6043  -25.1686  -42.4745 H         1 UNK         0.0600 
    192 H192        0.8851  -24.8787  -42.7989 H         1 UNK         0.0600 
    193 H193        0.3303  -26.5060  -43.1671 H         1 UNK         0.0600 
    194 H194        0.7018  -25.3972  -44.4759 H         1 UNK         0.0600 
    195 H195       -1.4148  -24.5445  -45.9846 H         1 UNK         0.3000 
    196 H196       -2.9493  -26.8799  -46.7723 H         1 UNK         0.0600 
    197 H197       -1.2470  -25.8209  -48.2565 H         1 UNK         0.0600 
    198 H198       -2.1868  -24.3307  -48.2966 H         1 UNK         0.0600 
    199 H199       -2.8321  -25.8033  -49.0112 H         1 UNK         0.0600 
    200 H200       -3.9380  -24.1686  -45.1146 H         1 UNK         0.3000 
    201 H201       -5.8065  -23.0855  -44.6942 H         1 UNK         0.0600 
    202 H202       -7.9259  -24.3396  -44.7552 H         1 UNK         0.0600 
    203 H203       -6.6309  -25.4074  -44.2417 H         1 UNK         0.0600 
    204 H204       -7.2561  -25.5064  -45.8875 H         1 UNK         0.0600 
    205 H205       -4.5323  -22.3988  -47.1343 H         1 UNK         0.3000 
    206 H206       -4.6781  -21.1665  -48.9362 H         1 UNK         0.0600 
    207 H207       -5.9192  -19.6436  -47.3792 H         1 UNK         0.0600 
    208 H208       -6.3975  -19.4220  -49.0558 H         1 UNK         0.0600 
    209 H209       -7.4485  -20.3034  -47.9566 H         1 UNK         0.0600 
    210 H210       -5.6602  -23.9577  -49.1588 H         1 UNK         0.3000 
    211 H211       -7.7997  -24.1451  -51.0052 H         1 UNK         0.0600 
    212 H212       -5.4262  -26.0246  -50.4956 H         1 UNK         0.0600 
    213 H213       -6.8921  -26.4603  -51.3679 H         1 UNK         0.0600 
    214 H214       -6.9786  -26.0623  -49.6609 H         1 UNK         0.0600 
    215 H215       -7.8717  -24.4046  -53.2283 H         1 UNK         0.3000 
    216 H216       -6.0783  -22.9285  -54.8501 H         1 UNK         0.0600 
    217 H217       -8.2753  -24.9282  -55.6129 H         1 UNK         0.0600 
    218 H218       -7.5318  -23.7654  -56.7042 H         1 UNK         0.0600 
    219 H219       -8.4949  -23.1971  -55.3509 H         1 UNK         0.0600 
    220 H220       -5.9139  -26.2255  -53.8252 H         1 UNK         0.3000 
    221 H221       -4.2345  -27.2993  -55.8987 H         1 UNK         0.0600 
    222 H222       -4.5805  -28.0966  -52.9550 H         1 UNK         0.0600 
    223 H223       -5.4993  -28.7405  -54.3167 H         1 UNK         0.0600 
    224 H224       -3.7779  -29.0636  -54.1868 H         1 UNK         0.0600 
    225 H225       -3.6508  -25.2248  -53.1094 H         1 UNK         0.3000 
    226 H226       -0.6891  -25.3862  -53.4344 H         1 UNK         0.0600 
    227 H227       -1.4697  -25.5967  -51.1151 H         1 UNK         0.0600 
    228 H228       -0.6670  -24.0491  -51.3210 H         1 UNK         0.0600 
    229 H229       -2.4239  -24.1223  -51.2430 H         1 UNK         0.0600 
    230 H230       -3.3808  -23.0273  -53.1449 H         1 UNK         0.3000 
    231 H231       -3.7336  -20.9506  -53.8088 H         1 UNK         0.0600 
    232 H232       -2.1771  -21.7565  -56.3217 H         1 UNK         0.0600 
    233 H233       -3.3286  -20.4324  -56.1963 H         1 UNK         0.0600 
    234 H234       -3.8817  -22.0870  -56.0229 H         1 UNK         0.0600 
    235 H235       -1.4943  -21.2340  -52.0956 H         1 UNK         0.3000 
    236 H236        0.7178  -19.6324  -53.0563 H         1 UNK         0.0600 
    237 H237        0.1019  -21.0166  -50.4121 H         1 UNK         0.0600 
    238 H238        1.1922  -21.5494  -51.6810 H         1 UNK         0.0600 
    239 H239        1.5994  -20.1385  -50.7182 H         1 UNK         0.0600 
    240 H240       -2.2374  -18.7420  -51.5561 H         1 UNK         0.3000 
    241 H241       -1.3178  -16.3068  -50.2612 H         1 UNK         0.0600 
    242 H242       -1.3901  -13.9050  -52.8821 H         1 UNK         0.3800 
    243 H243       -1.0623  -14.1997  -51.1937 H         1 UNK         0.3800 
    244 H244       -4.1255  -17.1300  -51.1884 H         1 UNK         0.0800 
    245 H245       -3.7498  -15.6756  -50.2982 H         1 UNK         0.0800 
    246 H246       -5.1484  -15.7971  -48.5712 H         1 UNK         0.0800 
    247 H247       -5.8139  -17.3068  -48.0350 H         1 UNK         0.0800 
@<TRIPOS>BOND
     1    1    2 1    
     2    1  127 1    
     3    1  128 1    
     4    1  129 1    
     5    2    3 2    
     6    2    4 am   BACKBONE|DICT|INTERRES
     7    4    5 1    
     8    4  130 1    
     9    5    6 1    
    10    5   65 1    
    11    5  131 1    
    12    6    7 1    
    13    6  132 1    
    14    6  133 1    
    15    7    8 1    
    16    8    9 1    
    17    8  134 1    
    18    8  135 1    
    19    9   10 ar   
    20    9   14 ar   
    21   10   11 ar   
    22   10  136 1    
    23   11   12 ar   
    24   11  126 1    
    25   12   13 ar   
    26   12  137 1    
    27   13   14 ar   
    28   13   15 1    
    29   14  138 1    
    30   15   16 1    
    31   15  139 1    
    32   15  140 1    
    33   16   17 1    
    34   17   18 1    
    35   17  141 1    
    36   17  142 1    
    37   18   19 1    
    38   18   67 1    
    39   18  143 1    
    40   19   20 am   BACKBONE|DICT|INTERRES
    41   19  144 1    
    42   20   21 2    
    43   20   22 1    
    44   22   23 1    
    45   22   24 1    
    46   22  145 1    
    47   23  146 1    
    48   23  147 1    
    49   23  148 1    
    50   24   25 am   BACKBONE|DICT|INTERRES
    51   24  149 1    
    52   25   26 2    
    53   25   27 1    
    54   27   28 1    
    55   27   29 1    
    56   27  150 1    
    57   28  151 1    
    58   28  152 1    
    59   28  153 1    
    60   29   30 am   BACKBONE|DICT|INTERRES
    61   29  154 1    
    62   30   31 2    
    63   30   32 1    
    64   32   33 1    
    65   32   34 1    
    66   32  155 1    
    67   33  156 1    
    68   33  157 1    
    69   33  158 1    
    70   34   35 am   BACKBONE|DICT|INTERRES
    71   34  159 1    
    72   35   36 2    
    73   35   37 1    
    74   37   38 1    
    75   37   39 1    
    76   37  160 1    
    77   38  161 1    
    78   38  162 1    
    79   38  163 1    
    80   39   40 am   BACKBONE|DICT|INTERRES
    81   39  164 1    
    82   40   41 2    
    83   40   42 1    
    84   42   43 1    
    85   42   44 1    
    86   42  165 1    
    87   43  166 1    
    88   43  167 1    
    89   43  168 1    
    90   44   45 am   BACKBONE|DICT|INTERRES
    91   44  169 1    
    92   45   46 2    
    93   45   47 1    
    94   47   48 1    
    95   47   49 1    
    96   47  170 1    
    97   48  171 1    
    98   48  172 1    
    99   48  173 1    
   100   49   50 am   BACKBONE|DICT|INTERRES
   101   49  174 1    
   102   50   51 2    
   103   50   52 1    
   104   52   53 1    
   105   52   54 1    
   106   52  175 1    
   107   53  176 1    
   108   53  177 1    
   109   53  178 1    
   110   54   55 am   BACKBONE|DICT|INTERRES
   111   54  179 1    
   112   55   56 2    
   113   55   57 1    
   114   57   58 1    
   115   57   59 1    
   116   57  180 1    
   117   58  181 1    
   118   58  182 1    
   119   58  183 1    
   120   59   60 am   BACKBONE|DICT|INTERRES
   121   59  184 1    
   122   60   61 2    
   123   60   62 1    
   124   62   63 1    
   125   62   64 1    
   126   62  185 1    
   127   63  186 1    
   128   63  187 1    
   129   63  188 1    
   130   64   65 am   BACKBONE|DICT|INTERRES
   131   64  189 1    
   132   65   66 2    
   133   67   68 2    
   134   67   69 am   BACKBONE|DICT|INTERRES
   135   69   70 1    
   136   69  190 1    
   137   70   71 1    
   138   70   72 1    
   139   70  191 1    
   140   71  192 1    
   141   71  193 1    
   142   71  194 1    
   143   72   73 2    
   144   72   74 am   BACKBONE|DICT|INTERRES
   145   74   75 1    
   146   74  195 1    
   147   75   76 1    
   148   75   77 1    
   149   75  196 1    
   150   76  197 1    
   151   76  198 1    
   152   76  199 1    
   153   77   78 2    
   154   77   79 am   BACKBONE|DICT|INTERRES
   155   79   80 1    
   156   79  200 1    
   157   80   81 1    
   158   80   82 1    
   159   80  201 1    
   160   81  202 1    
   161   81  203 1    
   162   81  204 1    
   163   82   83 2    
   164   82   84 am   BACKBONE|DICT|INTERRES
   165   84   85 1    
   166   84  205 1    
   167   85   86 1    
   168   85   87 1    
   169   85  206 1    
   170   86  207 1    
   171   86  208 1    
   172   86  209 1    
   173   87   88 2    
   174   87   89 am   BACKBONE|DICT|INTERRES
   175   89   90 1    
   176   89  210 1    
   177   90   91 1    
   178   90   92 1    
   179   90  211 1    
   180   91  212 1    
   181   91  213 1    
   182   91  214 1    
   183   92   93 2    
   184   92   94 am   BACKBONE|DICT|INTERRES
   185   94   95 1    
   186   94  215 1    
   187   95   96 1    
   188   95   97 1    
   189   95  216 1    
   190   96  217 1    
   191   96  218 1    
   192   96  219 1    
   193   97   98 2    
   194   97   99 am   BACKBONE|DICT|INTERRES
   195   99  100 1    
   196   99  220 1    
   197  100  101 1    
   198  100  102 1    
   199  100  221 1    
   200  101  222 1    
   201  101  223 1    
   202  101  224 1    
   203  102  103 2    
   204  102  104 am   BACKBONE|DICT|INTERRES
   205  104  105 1    
   206  104  225 1    
   207  105  106 1    
   208  105  107 1    
   209  105  226 1    
   210  106  227 1    
   211  106  228 1    
   212  106  229 1    
   213  107  108 2    
   214  107  109 am   BACKBONE|DICT|INTERRES
   215  109  110 1    
   216  109  230 1    
   217  110  111 1    
   218  110  112 1    
   219  110  231 1    
   220  111  232 1    
   221  111  233 1    
   222  111  234 1    
   223  112  113 2    
   224  112  114 am   BACKBONE|DICT|INTERRES
   225  114  115 1    
   226  114  235 1    
   227  115  116 1    
   228  115  117 1    
   229  115  236 1    
   230  116  237 1    
   231  116  238 1    
   232  116  239 1    
   233  117  118 2    
   234  117  119 am   BACKBONE|DICT|INTERRES
   235  119  120 1    
   236  119  240 1    
   237  120  121 1    
   238  120  124 1    
   239  120  241 1    
   240  121  122 am   BACKBONE|DICT|INTERRES
   241  121  123 2    
   242  122  242 1    
   243  122  243 1    
   244  124  125 1    
   245  124  244 1    
   246  124  245 1    
   247  125  126 1    
   248  126  246 1    
   249  126  247 1    
@<TRIPOS>SUBSTRUCTURE
     1 UNK         1 GROUP             0       ****    0 ROOT    
