@<TRIPOS>MOLECULE
3R540
247   249    1
SMALL
USER_CHARGES


@<TRIPOS>ATOM
      1 CA          6.7748   -9.7140  -48.5957 C.3       0 UNK        -0.1800 
      2 C           6.7315  -10.9604  -47.7232 C.2       0 UNK         0.5000 
      3 O           7.4052  -11.0126  -46.6945 O.2       0 UNK        -0.5000 
      4 N           5.9350  -11.9589  -48.1240 N.am      1 UNK        -0.5000 
      5 CA          5.7626  -13.2417  -47.4271 C.3       1 UNK         0.1400 
      6 C6          5.5006  -14.4000  -48.4246 C.3       23 UNK        -0.0398 
      7 S7          4.0040  -14.1979  -49.4566 S.3       23 UNK        -0.2404 
      8 C8          2.9778  -15.5537  -48.8115 C.3       23 UNK        -0.0205 
      9 C9          1.6479  -15.6548  -49.5433 C.ar      23 UNK        -0.0193 
     10 C10         1.5915  -16.2073  -50.8261 C.ar      23 UNK        -0.1150 
     11 C11         0.3760  -16.2869  -51.5126 C.ar      23 UNK        -0.0193 
     12 C12        -0.7933  -15.8313  -50.8964 C.ar      23 UNK        -0.1150 
     13 C13        -0.7539  -15.2976  -49.6048 C.ar      23 UNK        -0.0193 
     14 C14         0.4717  -15.2019  -48.9398 C.ar      23 UNK        -0.1150 
     15 C15        -2.0279  -14.7999  -48.9348 C.3       23 UNK        -0.0205 
     16 S16        -3.2253  -16.1362  -48.6095 S.3       23 UNK        -0.2404 
     17 C17        -2.3036  -17.2182  -47.4663 C.3       23 UNK        -0.0398 
     18 CA         -2.1848  -18.6713  -48.0063 C.3       11 UNK         0.1400 
     19 N          -0.8038  -19.1663  -48.0158 N.am      11 UNK        -0.5000 
     20 C          -0.4076  -20.2611  -48.6832 C.2       10 UNK         0.5000 
     21 O          -1.1632  -20.9698  -49.3450 O.2       10 UNK        -0.5000 
     22 CA          1.0695  -20.6640  -48.5419 C.3       10 UNK         0.1400 
     23 CB          1.9489  -19.8130  -49.4710 C.3       10 UNK        -0.1800 
     24 N           1.5615  -20.5466  -47.1696 N.am      10 UNK        -0.5000 
     25 C           1.0751  -21.1849  -46.0972 C.2       9 UNK         0.5000 
     26 O           0.1466  -21.9903  -46.1527 O.2       9 UNK        -0.5000 
     27 CA          1.6826  -20.8244  -44.7262 C.3       9 UNK         0.1400 
     28 CB          2.9924  -21.5907  -44.4663 C.3       9 UNK        -0.1800 
     29 N           1.8395  -19.3784  -44.5205 N.am      9 UNK        -0.5000 
     30 C           2.6570  -18.5221  -45.1515 C.2       8 UNK         0.5000 
     31 O           3.4999  -18.8540  -45.9857 O.2       8 UNK        -0.5000 
     32 CA          2.4312  -17.0321  -44.8646 C.3       8 UNK         0.1400 
     33 CB          1.2174  -16.5442  -45.6673 C.3       8 UNK        -0.1800 
     34 N           2.2093  -16.7333  -43.4544 N.am      8 UNK        -0.5000 
     35 C           3.1052  -16.8909  -42.4719 C.2       7 UNK         0.5000 
     36 O           4.2461  -17.3241  -42.6359 O.2       7 UNK        -0.5000 
     37 CA          2.6305  -16.5057  -41.0611 C.3       7 UNK         0.1400 
     38 CB          2.7176  -14.9851  -40.8529 C.3       7 UNK        -0.1800 
     39 N           1.2571  -16.9532  -40.8281 N.am      7 UNK        -0.5000 
     40 C           0.9236  -18.2012  -40.4707 C.2       6 UNK         0.5000 
     41 O           1.7453  -19.0838  -40.2215 O.2       6 UNK        -0.5000 
     42 CA         -0.5803  -18.5255  -40.3805 C.3       6 UNK         0.1400 
     43 CB         -1.0990  -18.2793  -38.9556 C.3       6 UNK        -0.1800 
     44 N          -1.3971  -17.7614  -41.3249 N.am      6 UNK        -0.5000 
     45 C          -1.3798  -17.9309  -42.6533 C.2       5 UNK         0.5000 
     46 O          -0.6699  -18.7513  -43.2356 O.2       5 UNK        -0.5000 
     47 CA         -2.2754  -16.9906  -43.4784 C.3       5 UNK         0.1400 
     48 CB         -3.6999  -17.5516  -43.5985 C.3       5 UNK        -0.1800 
     49 N          -2.3360  -15.6146  -42.9795 N.am      5 UNK        -0.5000 
     50 C          -1.2788  -14.8063  -42.8325 C.2       4 UNK         0.5000 
     51 O          -0.1100  -15.1711  -42.9682 O.2       4 UNK        -0.5000 
     52 CA         -1.5691  -13.3420  -42.4721 C.3       4 UNK         0.1400 
     53 CB         -0.9799  -12.9907  -41.0971 C.3       4 UNK        -0.1800 
     54 N          -1.0053  -12.4488  -43.4822 N.am      4 UNK        -0.5000 
     55 C          -1.4652  -12.3219  -44.7357 C.2       3 UNK         0.5000 
     56 O          -2.4596  -12.9108  -45.1610 O.2       3 UNK        -0.5000 
     57 CA         -0.7010  -11.3647  -45.6692 C.3       3 UNK         0.1400 
     58 CB         -1.3889   -9.9910  -45.7036 C.3       3 UNK        -0.1800 
     59 N           0.6976  -11.1854  -45.2718 N.am      3 UNK        -0.5000 
     60 C           1.6920  -12.0054  -45.6336 C.2       2 UNK         0.5000 
     61 O           1.5346  -12.9854  -46.3616 O.2       2 UNK        -0.5000 
     62 CA          3.0847  -11.6479  -45.0845 C.3       2 UNK         0.1400 
     63 CB          3.3017  -12.2412  -43.6765 C.3       2 UNK        -0.1800 
     64 N           4.1616  -11.9943  -46.0210 N.am      2 UNK        -0.5000 
     65 C           4.7177  -13.1880  -46.2844 C.2       1 UNK         0.5000 
     66 O           4.4631  -14.2220  -45.6681 O.2       1 UNK        -0.5000 
     67 C          -3.1321  -19.6346  -47.2579 C.2       11 UNK         0.5000 
     68 O          -4.2605  -19.8431  -47.7027 O.2       11 UNK        -0.5000 
     69 N          -2.6471  -20.2347  -46.1586 N.am      12 UNK        -0.5000 
     70 CA         -3.3726  -21.2529  -45.3964 C.3       12 UNK         0.1400 
     71 CB         -2.6669  -21.5226  -44.0582 C.3       12 UNK        -0.1800 
     72 C          -3.5457  -22.5526  -46.1983 C.2       12 UNK         0.5000 
     73 O          -4.6471  -23.0993  -46.2325 O.2       12 UNK        -0.5000 
     74 N          -2.4723  -22.9956  -46.8679 N.am      13 UNK        -0.5000 
     75 CA         -2.4776  -24.1533  -47.7613 C.3       13 UNK         0.1400 
     76 CB         -1.0438  -24.4760  -48.2031 C.3       13 UNK        -0.1800 
     77 C          -3.3997  -23.9584  -48.9777 C.2       13 UNK         0.5000 
     78 O          -4.1072  -24.8940  -49.3494 O.2       13 UNK        -0.5000 
     79 N          -3.4048  -22.7477  -49.5520 N.am      14 UNK        -0.5000 
     80 CA         -4.3053  -22.3393  -50.6296 C.3       14 UNK         0.1400 
     81 CB         -3.9005  -20.9515  -51.1480 C.3       14 UNK        -0.1800 
     82 C          -5.7817  -22.3507  -50.1954 C.2       14 UNK         0.5000 
     83 O          -6.6192  -22.8941  -50.9151 O.2       14 UNK        -0.5000 
     84 N          -6.0698  -21.7899  -49.0112 N.am      15 UNK        -0.5000 
     85 CA         -7.4034  -21.7626  -48.4036 C.3       15 UNK         0.1400 
     86 CB         -7.3841  -20.8569  -47.1629 C.3       15 UNK        -0.1800 
     87 C          -7.9348  -23.1644  -48.0474 C.2       15 UNK         0.5000 
     88 O          -9.1222  -23.4312  -48.2353 O.2       15 UNK        -0.5000 
     89 N          -7.0415  -24.0420  -47.5719 N.am      16 UNK        -0.5000 
     90 CA         -7.3198  -25.4485  -47.2735 C.3       16 UNK         0.1400 
     91 CB         -6.2041  -25.9860  -46.3626 C.3       16 UNK        -0.1800 
     92 C          -7.4496  -26.3355  -48.5293 C.2       16 UNK         0.5000 
     93 O          -7.8962  -27.4768  -48.4088 O.2       16 UNK        -0.5000 
     94 N          -7.0302  -25.8156  -49.6932 N.am      17 UNK        -0.5000 
     95 CA         -6.9142  -26.4917  -50.9906 C.3       17 UNK         0.1400 
     96 CB         -8.2933  -26.9432  -51.5144 C.3       17 UNK        -0.1800 
     97 C          -5.8623  -27.6237  -50.9936 C.2       17 UNK         0.5000 
     98 O          -5.9510  -28.5510  -51.8005 O.2       17 UNK        -0.5000 
     99 N          -4.8694  -27.5143  -50.1014 N.am      18 UNK        -0.5000 
    100 CA        -3.6787  -28.3611  -50.0518 C.3       18 UNK         0.1400 
    101 CB        -3.1019  -28.3253  -48.6281 C.3       18 UNK        -0.1800 
    102 C         -2.6267  -27.8974  -51.0765 C.2       18 UNK         0.5000 
    103 O         -1.8669  -28.7208  -51.5876 O.2       18 UNK        -0.5000 
    104 N         -2.6277  -26.5927  -51.3701 N.am      19 UNK        -0.5000 
    105 CA        -1.8895  -25.9503  -52.4500 C.3       19 UNK         0.1400 
    106 CB        -0.9278  -24.9120  -51.8470 C.3       19 UNK        -0.1800 
    107 C         -2.8917  -25.2749  -53.4002 C.2       19 UNK         0.5000 
    108 O         -4.0789  -25.1637  -53.0792 O.2       19 UNK        -0.5000 
    109 N         -2.3900  -24.8237  -54.5547 N.am      20 UNK        -0.5000 
    110 CA        -3.1377  -24.0230  -55.5235 C.3       20 UNK         0.1400 
    111 CB        -2.3329  -23.9574  -56.8315 C.3       20 UNK        -0.1800 
    112 C         -3.4210  -22.6026  -54.9966 C.2       20 UNK         0.5000 
    113 O         -2.7046  -22.1117  -54.1203 O.2       20 UNK        -0.5000 
    114 N         -4.4416  -21.9547  -55.5703 N.am      21 UNK        -0.5000 
    115 CA        -4.8218  -20.5697  -55.2938 C.3       21 UNK         0.1400 
    116 CB        -6.2651  -20.3450  -55.7784 C.3       21 UNK        -0.1800 
    117 C         -3.8237  -19.5858  -55.9360 C.2       21 UNK         0.5000 
    118 O         -4.0789  -19.0682  -57.0256 O.2       21 UNK        -0.5000 
    119 N         -2.6801  -19.3952  -55.2698 N.am      22 UNK        -0.5000 
    120 CA        -1.5924  -18.4977  -55.6789 C.3       22 UNK         0.1400 
    121 C         -1.9850  -16.9907  -55.7211 C.2       22 UNK         0.5000 
    122 N         -1.2626  -16.1818  -56.4853 N.am      22 UNK        -0.7600 
    123 O         -2.9117  -16.5388  -55.0514 O.2       22 UNK        -0.5000 
    124 C124       -0.3053  -18.7549  -54.8492 C.3       23 UNK        -0.0398 
    125 S125       -0.4607  -18.4498  -53.0506 S.3       23 UNK        -0.2404 
    126 C126        0.3333  -16.8152  -52.9375 C.3       23 UNK        -0.0205 
    127 H127        6.1252   -9.8058  -49.4666 H         1 UNK         0.0600 
    128 H128        6.4551   -8.8433  -48.0232 H         1 UNK         0.0600 
    129 H129        7.7913   -9.5377  -48.9473 H         1 UNK         0.0600 
    130 H130        5.3968  -11.8590  -48.9740 H         1 UNK         0.3000 
    131 H131        6.7073  -13.4794  -46.9333 H         1 UNK         0.0600 
    132 H132        5.4643  -15.3545  -47.8965 H         1 UNK         0.0800 
    133 H133        6.3518  -14.4847  -49.1013 H         1 UNK         0.0800 
    134 H134        3.5141  -16.4996  -48.9015 H         1 UNK         0.0800 
    135 H135        2.8190  -15.3828  -47.7464 H         1 UNK         0.0800 
    136 H136        2.5012  -16.5530  -51.2968 H         1 UNK         0.1150 
    137 H137       -1.7353  -15.8922  -51.4237 H         1 UNK         0.1150 
    138 H138        0.5111  -14.7705  -47.9499 H         1 UNK         0.1150 
    139 H139       -1.8019  -14.2907  -47.9960 H         1 UNK         0.0800 
    140 H140       -2.4982  -14.0559  -49.5791 H         1 UNK         0.0800 
    141 H141       -2.8165  -17.1762  -46.5055 H         1 UNK         0.0800 
    142 H142       -1.3205  -16.7858  -47.2836 H         1 UNK         0.0800 
    143 H143       -2.5055  -18.6799  -49.0506 H         1 UNK         0.0600 
    144 H144       -0.1175  -18.6445  -47.4942 H         1 UNK         0.3000 
    145 H145        1.1603  -21.7101  -48.8409 H         1 UNK         0.0600 
    146 H146        2.9837  -20.1552  -49.4574 H         1 UNK         0.0600 
    147 H147        1.5998  -19.8709  -50.5032 H         1 UNK         0.0600 
    148 H148        1.9405  -18.7615  -49.1817 H         1 UNK         0.0600 
    149 H149        2.3421  -19.9149  -47.0113 H         1 UNK         0.3000 
    150 H150        0.9623  -21.1463  -43.9723 H         1 UNK         0.0600 
    151 H151        2.8227  -22.6675  -44.5010 H         1 UNK         0.0600 
    152 H152        3.3956  -21.3560  -43.4812 H         1 UNK         0.0600 
    153 H153        3.7588  -21.3603  -45.2065 H         1 UNK         0.0600 
    154 H154        1.1358  -18.9777  -43.9056 H         1 UNK         0.3000 
    155 H155        3.3168  -16.4899  -45.1968 H         1 UNK         0.0600 
    156 H156        1.1128  -15.4620  -45.6025 H         1 UNK         0.0600 
    157 H157        0.2935  -16.9894  -45.3028 H         1 UNK         0.0600 
    158 H158        1.3087  -16.8106  -46.7193 H         1 UNK         0.0600 
    159 H159        1.3176  -16.3002  -43.2265 H         1 UNK         0.3000 
    160 H160        3.2930  -16.9834  -40.3360 H         1 UNK         0.0600 
    161 H161        2.0953  -14.4419  -41.5642 H         1 UNK         0.0600 
    162 H162        3.7419  -14.6335  -40.9827 H         1 UNK         0.0600 
    163 H163        2.4015  -14.7050  -39.8480 H         1 UNK         0.0600 
    164 H164        0.5224  -16.3040  -41.0726 H         1 UNK         0.3000 
    165 H165       -0.7022  -19.5865  -40.6095 H         1 UNK         0.0600 
    166 H166       -1.0239  -17.2278  -38.6755 H         1 UNK         0.0600 
    167 H167       -2.1424  -18.5800  -38.8581 H         1 UNK         0.0600 
    168 H168       -0.5268  -18.8550  -38.2269 H         1 UNK         0.0600 
    169 H169       -2.0048  -17.0548  -40.9370 H         1 UNK         0.3000 
    170 H170       -1.8459  -16.9434  -44.4778 H         1 UNK         0.0600 
    171 H171       -3.6933  -18.5572  -44.0172 H         1 UNK         0.0600 
    172 H172       -4.1960  -17.6027  -42.6286 H         1 UNK         0.0600 
    173 H173       -4.3126  -16.9356  -44.2571 H         1 UNK         0.0600 
    174 H174       -3.2603  -15.2306  -42.8452 H         1 UNK         0.3000 
    175 H175       -2.6492  -13.1856  -42.4335 H         1 UNK         0.0600 
    176 H176       -1.2294  -11.9685  -40.8121 H         1 UNK         0.0600 
    177 H177       -1.3751  -13.6491  -40.3225 H         1 UNK         0.0600 
    178 H178        0.1064  -13.0847  -41.0851 H         1 UNK         0.0600 
    179 H179       -0.1608  -11.9595  -43.2300 H         1 UNK         0.3000 
    180 H180       -0.7400  -11.7854  -46.6767 H         1 UNK         0.0600 
    181 H181       -1.3860   -9.5128  -44.7232 H         1 UNK         0.0600 
    182 H182       -2.4286  -10.0828  -46.0208 H         1 UNK         0.0600 
    183 H183       -0.8945   -9.3202  -46.4066 H         1 UNK         0.0600 
    184 H184        0.9017  -10.3870  -44.6878 H         1 UNK         0.3000 
    185 H185        3.1314  -10.5617  -44.9919 H         1 UNK         0.0600 
    186 H186        4.3118  -12.0490  -43.3149 H         1 UNK         0.0600 
    187 H187        2.6098  -11.7999  -42.9586 H         1 UNK         0.0600 
    188 H188        3.1346  -13.3188  -43.6567 H         1 UNK         0.0600 
    189 H189        4.4601  -11.2346  -46.6152 H         1 UNK         0.3000 
    190 H190       -1.6952  -20.0531  -45.8778 H         1 UNK         0.3000 
    191 H191       -4.3700  -20.8655  -45.1773 H         1 UNK         0.0600 
    192 H192       -2.6481  -20.6325  -43.4317 H         1 UNK         0.0600 
    193 H193       -3.1865  -22.2986  -43.4949 H         1 UNK         0.0600 
    194 H194       -1.6385  -21.8546  -44.1971 H         1 UNK         0.0600 
    195 H195       -1.5847  -22.5142  -46.7485 H         1 UNK         0.3000 
    196 H196       -2.8556  -25.0054  -47.1931 H         1 UNK         0.0600 
    197 H197       -1.0205  -25.3784  -48.8149 H         1 UNK         0.0600 
    198 H198       -0.3963  -24.6500  -47.3436 H         1 UNK         0.0600 
    199 H199       -0.6096  -23.6658  -48.7895 H         1 UNK         0.0600 
    200 H200       -2.7280  -22.0553  -49.2426 H         1 UNK         0.3000 
    201 H201       -4.1923  -23.0507  -51.4490 H         1 UNK         0.0600 
    202 H202       -2.8926  -20.9647  -51.5637 H         1 UNK         0.0600 
    203 H203       -3.9270  -20.2000  -50.3600 H         1 UNK         0.0600 
    204 H204       -4.5746  -20.6191  -51.9363 H         1 UNK         0.0600 
    205 H205       -5.3290  -21.3242  -48.4953 H         1 UNK         0.3000 
    206 H206       -8.0901  -21.3252  -49.1312 H         1 UNK         0.0600 
    207 H207       -7.0936  -19.8389  -47.4231 H         1 UNK         0.0600 
    208 H208       -8.3705  -20.8055  -46.7003 H         1 UNK         0.0600 
    209 H209       -6.6855  -21.2210  -46.4092 H         1 UNK         0.0600 
    210 H210       -6.1003  -23.7155  -47.3697 H         1 UNK         0.3000 
    211 H211       -8.2649  -25.5077  -46.7300 H         1 UNK         0.0600 
    212 H212       -5.2318  -25.9477  -46.8552 H         1 UNK         0.0600 
    213 H213       -6.3895  -27.0236  -46.0823 H         1 UNK         0.0600 
    214 H214       -6.1351  -25.4086  -45.4405 H         1 UNK         0.0600 
    215 H215       -6.6724  -24.8690  -49.6758 H         1 UNK         0.3000 
    216 H216       -6.5355  -25.7366  -51.6810 H         1 UNK         0.0600 
    217 H217       -9.0100  -26.1222  -51.4937 H         1 UNK         0.0600 
    218 H218       -8.7039  -27.7641  -50.9263 H         1 UNK         0.0600 
    219 H219       -8.2244  -27.2860  -52.5473 H         1 UNK         0.0600 
    220 H220       -4.8415  -26.6701  -49.5377 H         1 UNK         0.3000 
    221 H221       -3.9569  -29.3904  -50.2876 H         1 UNK         0.0600 
    222 H222       -2.8002  -27.3178  -48.3402 H         1 UNK         0.0600 
    223 H223       -3.8319  -28.6769  -47.8988 H         1 UNK         0.0600 
    224 H224       -2.2240  -28.9674  -48.5468 H         1 UNK         0.0600 
    225 H225       -3.3306  -26.0093  -50.9292 H         1 UNK         0.3000 
    226 H226       -1.3179  -26.6853  -53.0201 H         1 UNK         0.0600 
    227 H227       -0.2373  -25.3769  -51.1438 H         1 UNK         0.0600 
    228 H228       -0.3253  -24.4355  -52.6210 H         1 UNK         0.0600 
    229 H229       -1.4642  -24.1210  -51.3221 H         1 UNK         0.0600 
    230 H230       -1.4009  -24.9229  -54.7293 H         1 UNK         0.3000 
    231 H231       -4.0909  -24.5185  -55.7203 H         1 UNK         0.0600 
    232 H232       -2.8720  -23.3994  -57.5981 H         1 UNK         0.0600 
    233 H233       -2.1456  -24.9546  -57.2304 H         1 UNK         0.0600 
    234 H234       -1.3694  -23.4667  -56.6865 H         1 UNK         0.0600 
    235 H235       -4.9580  -22.4152  -56.3056 H         1 UNK         0.3000 
    236 H236       -4.8081  -20.4054  -54.2157 H         1 UNK         0.0600 
    237 H237       -6.5809  -19.3169  -55.5966 H         1 UNK         0.0600 
    238 H238       -6.3698  -20.5373  -56.8469 H         1 UNK         0.0600 
    239 H239       -6.9625  -20.9962  -55.2511 H         1 UNK         0.0600 
    240 H240       -2.5296  -19.9144  -54.4138 H         1 UNK         0.3000 
    241 H241       -1.3601  -18.7733  -56.7096 H         1 UNK         0.0600 
    242 H242       -0.4992  -16.5220  -57.0495 H         1 UNK         0.3800 
    243 H243       -1.4991  -15.2021  -56.5176 H         1 UNK         0.3800 
    244 H244       -0.0055  -19.7963  -54.9744 H         1 UNK         0.0800 
    245 H245        0.5258  -18.1726  -55.2498 H         1 UNK         0.0800 
    246 H246        1.3424  -16.8779  -53.3478 H         1 UNK         0.0800 
    247 H247       -0.2077  -16.1021  -53.5603 H         1 UNK         0.0800 
@<TRIPOS>BOND
     1    1    2 1    
     2    1  127 1    
     3    1  128 1    
     4    1  129 1    
     5    2    3 2    
     6    2    4 am   BACKBONE|DICT|INTERRES
     7    4    5 1    
     8    4  130 1    
     9    5    6 1    
    10    5   65 1    
    11    5  131 1    
    12    6    7 1    
    13    6  132 1    
    14    6  133 1    
    15    7    8 1    
    16    8    9 1    
    17    8  134 1    
    18    8  135 1    
    19    9   10 ar   
    20    9   14 ar   
    21   10   11 ar   
    22   10  136 1    
    23   11   12 ar   
    24   11  126 1    
    25   12   13 ar   
    26   12  137 1    
    27   13   14 ar   
    28   13   15 1    
    29   14  138 1    
    30   15   16 1    
    31   15  139 1    
    32   15  140 1    
    33   16   17 1    
    34   17   18 1    
    35   17  141 1    
    36   17  142 1    
    37   18   19 1    
    38   18   67 1    
    39   18  143 1    
    40   19   20 am   BACKBONE|DICT|INTERRES
    41   19  144 1    
    42   20   21 2    
    43   20   22 1    
    44   22   23 1    
    45   22   24 1    
    46   22  145 1    
    47   23  146 1    
    48   23  147 1    
    49   23  148 1    
    50   24   25 am   BACKBONE|DICT|INTERRES
    51   24  149 1    
    52   25   26 2    
    53   25   27 1    
    54   27   28 1    
    55   27   29 1    
    56   27  150 1    
    57   28  151 1    
    58   28  152 1    
    59   28  153 1    
    60   29   30 am   BACKBONE|DICT|INTERRES
    61   29  154 1    
    62   30   31 2    
    63   30   32 1    
    64   32   33 1    
    65   32   34 1    
    66   32  155 1    
    67   33  156 1    
    68   33  157 1    
    69   33  158 1    
    70   34   35 am   BACKBONE|DICT|INTERRES
    71   34  159 1    
    72   35   36 2    
    73   35   37 1    
    74   37   38 1    
    75   37   39 1    
    76   37  160 1    
    77   38  161 1    
    78   38  162 1    
    79   38  163 1    
    80   39   40 am   BACKBONE|DICT|INTERRES
    81   39  164 1    
    82   40   41 2    
    83   40   42 1    
    84   42   43 1    
    85   42   44 1    
    86   42  165 1    
    87   43  166 1    
    88   43  167 1    
    89   43  168 1    
    90   44   45 am   BACKBONE|DICT|INTERRES
    91   44  169 1    
    92   45   46 2    
    93   45   47 1    
    94   47   48 1    
    95   47   49 1    
    96   47  170 1    
    97   48  171 1    
    98   48  172 1    
    99   48  173 1    
   100   49   50 am   BACKBONE|DICT|INTERRES
   101   49  174 1    
   102   50   51 2    
   103   50   52 1    
   104   52   53 1    
   105   52   54 1    
   106   52  175 1    
   107   53  176 1    
   108   53  177 1    
   109   53  178 1    
   110   54   55 am   BACKBONE|DICT|INTERRES
   111   54  179 1    
   112   55   56 2    
   113   55   57 1    
   114   57   58 1    
   115   57   59 1    
   116   57  180 1    
   117   58  181 1    
   118   58  182 1    
   119   58  183 1    
   120   59   60 am   BACKBONE|DICT|INTERRES
   121   59  184 1    
   122   60   61 2    
   123   60   62 1    
   124   62   63 1    
   125   62   64 1    
   126   62  185 1    
   127   63  186 1    
   128   63  187 1    
   129   63  188 1    
   130   64   65 am   BACKBONE|DICT|INTERRES
   131   64  189 1    
   132   65   66 2    
   133   67   68 2    
   134   67   69 am   BACKBONE|DICT|INTERRES
   135   69   70 1    
   136   69  190 1    
   137   70   71 1    
   138   70   72 1    
   139   70  191 1    
   140   71  192 1    
   141   71  193 1    
   142   71  194 1    
   143   72   73 2    
   144   72   74 am   BACKBONE|DICT|INTERRES
   145   74   75 1    
   146   74  195 1    
   147   75   76 1    
   148   75   77 1    
   149   75  196 1    
   150   76  197 1    
   151   76  198 1    
   152   76  199 1    
   153   77   78 2    
   154   77   79 am   BACKBONE|DICT|INTERRES
   155   79   80 1    
   156   79  200 1    
   157   80   81 1    
   158   80   82 1    
   159   80  201 1    
   160   81  202 1    
   161   81  203 1    
   162   81  204 1    
   163   82   83 2    
   164   82   84 am   BACKBONE|DICT|INTERRES
   165   84   85 1    
   166   84  205 1    
   167   85   86 1    
   168   85   87 1    
   169   85  206 1    
   170   86  207 1    
   171   86  208 1    
   172   86  209 1    
   173   87   88 2    
   174   87   89 am   BACKBONE|DICT|INTERRES
   175   89   90 1    
   176   89  210 1    
   177   90   91 1    
   178   90   92 1    
   179   90  211 1    
   180   91  212 1    
   181   91  213 1    
   182   91  214 1    
   183   92   93 2    
   184   92   94 am   BACKBONE|DICT|INTERRES
   185   94   95 1    
   186   94  215 1    
   187   95   96 1    
   188   95   97 1    
   189   95  216 1    
   190   96  217 1    
   191   96  218 1    
   192   96  219 1    
   193   97   98 2    
   194   97   99 am   BACKBONE|DICT|INTERRES
   195   99  100 1    
   196   99  220 1    
   197  100  101 1    
   198  100  102 1    
   199  100  221 1    
   200  101  222 1    
   201  101  223 1    
   202  101  224 1    
   203  102  103 2    
   204  102  104 am   BACKBONE|DICT|INTERRES
   205  104  105 1    
   206  104  225 1    
   207  105  106 1    
   208  105  107 1    
   209  105  226 1    
   210  106  227 1    
   211  106  228 1    
   212  106  229 1    
   213  107  108 2    
   214  107  109 am   BACKBONE|DICT|INTERRES
   215  109  110 1    
   216  109  230 1    
   217  110  111 1    
   218  110  112 1    
   219  110  231 1    
   220  111  232 1    
   221  111  233 1    
   222  111  234 1    
   223  112  113 2    
   224  112  114 am   BACKBONE|DICT|INTERRES
   225  114  115 1    
   226  114  235 1    
   227  115  116 1    
   228  115  117 1    
   229  115  236 1    
   230  116  237 1    
   231  116  238 1    
   232  116  239 1    
   233  117  118 2    
   234  117  119 am   BACKBONE|DICT|INTERRES
   235  119  120 1    
   236  119  240 1    
   237  120  121 1    
   238  120  124 1    
   239  120  241 1    
   240  121  122 am   BACKBONE|DICT|INTERRES
   241  121  123 2    
   242  122  242 1    
   243  122  243 1    
   244  124  125 1    
   245  124  244 1    
   246  124  245 1    
   247  125  126 1    
   248  126  246 1    
   249  126  247 1    
@<TRIPOS>SUBSTRUCTURE
     1 UNK         1 GROUP             0       ****    0 ROOT    
