@<TRIPOS>MOLECULE
3R540
247   249    1
SMALL
USER_CHARGES


@<TRIPOS>ATOM
      1 CA          4.7499  -18.3366  -47.5202 C.3       0 UNK        -0.1800 
      2 C           3.7548  -17.1919  -47.6416 C.2       0 UNK         0.5000 
      3 O           3.2385  -16.7230  -46.6289 O.2       0 UNK        -0.5000 
      4 N           3.4994  -16.7257  -48.8729 N.am      1 UNK        -0.5000 
      5 CA          2.5835  -15.6195  -49.1974 C.3       1 UNK         0.1400 
      6 C6          2.4645  -15.4225  -50.7305 C.3       23 UNK        -0.0398 
      7 S7          0.9052  -14.6073  -51.2201 S.3       23 UNK        -0.2404 
      8 C8          0.0172  -15.9543  -52.0634 C.3       23 UNK        -0.0205 
      9 C9         -0.3643  -17.0763  -51.1104 C.ar      23 UNK        -0.0193 
     10 C10        -1.4622  -16.9273  -50.2565 C.ar      23 UNK        -0.1150 
     11 C11        -1.8381  -17.9659  -49.4011 C.ar      23 UNK        -0.0193 
     12 C12        -1.1056  -19.1532  -49.4072 C.ar      23 UNK        -0.1150 
     13 C13        -0.0003  -19.3141  -50.2442 C.ar      23 UNK        -0.0193 
     14 C14         0.3658  -18.2701  -51.0969 C.ar      23 UNK        -0.1150 
     15 C15         0.7624  -20.6329  -50.2551 C.3       23 UNK        -0.0205 
     16 S16         2.2667  -20.5930  -49.2309 S.3       23 UNK        -0.2404 
     17 C17         1.5724  -20.3965  -47.5576 C.3       23 UNK        -0.0398 
     18 CA          1.8645  -21.5770  -46.5940 C.3       11 UNK         0.1400 
     19 N           2.0492  -21.0717  -45.2329 N.am      11 UNK        -0.5000 
     20 C           3.1965  -21.0346  -44.5489 C.2       10 UNK         0.5000 
     21 O           4.2583  -21.4968  -44.9662 O.2       10 UNK        -0.5000 
     22 CA          3.1581  -20.3584  -43.1643 C.3       10 UNK         0.1400 
     23 CB          3.6737  -18.9150  -43.2655 C.3       10 UNK        -0.1800 
     24 N           1.8318  -20.3495  -42.5370 N.am      10 UNK        -0.5000 
     25 C           1.2241  -21.4367  -42.0397 C.2       9 UNK         0.5000 
     26 O           1.6835  -22.5742  -42.1394 O.2       9 UNK        -0.5000 
     27 CA         -0.1185  -21.2234  -41.3209 C.3       9 UNK         0.1400 
     28 CB          0.1036  -20.6024  -39.9325 C.3       9 UNK        -0.1800 
     29 N          -0.9968  -20.3552  -42.1012 N.am      9 UNK        -0.5000 
     30 C          -2.0416  -20.7722  -42.8314 C.2       8 UNK         0.5000 
     31 O          -2.4251  -21.9408  -42.8746 O.2       8 UNK        -0.5000 
     32 CA         -2.7876  -19.7097  -43.6689 C.3       8 UNK         0.1400 
     33 CB         -4.0307  -19.2080  -42.9198 C.3       8 UNK        -0.1800 
     34 N          -1.9612  -18.5587  -44.0368 N.am      8 UNK        -0.5000 
     35 C          -0.8477  -18.6258  -44.7792 C.2       7 UNK         0.5000 
     36 O          -0.4597  -19.6597  -45.3154 O.2       7 UNK        -0.5000 
     37 CA          0.0237  -17.3585  -44.8662 C.3       7 UNK         0.1400 
     38 CB         -0.1912  -16.6424  -46.2064 C.3       7 UNK        -0.1800 
     39 N          -0.1833  -16.4325  -43.7419 N.am      7 UNK        -0.5000 
     40 C           0.0880  -16.7354  -42.4591 C.2       6 UNK         0.5000 
     41 O           0.5681  -17.8195  -42.1231 O.2       6 UNK        -0.5000 
     42 CA         -0.2686  -15.7143  -41.3598 C.3       6 UNK         0.1400 
     43 CB          0.9412  -15.3725  -40.4752 C.3       6 UNK        -0.1800 
     44 N          -0.8447  -14.4786  -41.8863 N.am      6 UNK        -0.5000 
     45 C          -2.1536  -14.2747  -42.0904 C.2       5 UNK         0.5000 
     46 O          -3.0220  -15.1067  -41.8261 O.2       5 UNK        -0.5000 
     47 CA         -2.5626  -12.9291  -42.7252 C.3       5 UNK         0.1400 
     48 CB         -2.9472  -11.9158  -41.6368 C.3       5 UNK        -0.1800 
     49 N          -1.5258  -12.3425  -43.5789 N.am      5 UNK        -0.5000 
     50 C          -1.0399  -12.9116  -44.6900 C.2       4 UNK         0.5000 
     51 O          -1.4465  -13.9868  -45.1275 O.2       4 UNK        -0.5000 
     52 CA          0.1183  -12.1987  -45.4130 C.3       4 UNK         0.1400 
     53 CB          0.2843  -10.7128  -45.0239 C.3       4 UNK        -0.1800 
     54 N           1.3862  -12.9136  -45.2431 N.am      4 UNK        -0.5000 
     55 C           2.0063  -13.2198  -44.0905 C.2       3 UNK         0.5000 
     56 O           1.5295  -12.9843  -42.9792 O.2       3 UNK        -0.5000 
     57 CA          3.3954  -13.8917  -44.1772 C.3       3 UNK         0.1400 
     58 CB          3.3431  -15.3419  -43.6780 C.3       3 UNK        -0.1800 
     59 N           3.9557  -13.8848  -45.5284 N.am      3 UNK        -0.5000 
     60 C           4.4819  -12.8076  -46.1300 C.2       2 UNK         0.5000 
     61 O           4.6348  -11.7235  -45.5662 O.2       2 UNK        -0.5000 
     62 CA          4.8853  -12.9446  -47.6135 C.3       2 UNK         0.1400 
     63 CB          6.4131  -13.0371  -47.7477 C.3       2 UNK        -0.1800 
     64 N           4.2844  -14.0893  -48.3031 N.am      2 UNK        -0.5000 
     65 C           2.9728  -14.2943  -48.4995 C.2       1 UNK         0.5000 
     66 O           2.0982  -13.5186  -48.1110 O.2       1 UNK        -0.5000 
     67 C           0.7534  -22.6542  -46.6059 C.2       11 UNK         0.5000 
     68 O           0.1325  -22.8909  -47.6442 O.2       11 UNK        -0.5000 
     69 N           0.5109  -23.2905  -45.4466 N.am      12 UNK        -0.5000 
     70 CA         -0.5971  -24.2111  -45.1529 C.3       12 UNK         0.1400 
     71 CB         -0.4491  -24.7223  -43.7120 C.3       12 UNK        -0.1800 
     72 C          -0.7622  -25.4059  -46.1132 C.2       12 UNK         0.5000 
     73 O          -1.8602  -25.9541  -46.2089 O.2       12 UNK        -0.5000 
     74 N           0.3169  -25.7827  -46.8107 N.am      13 UNK        -0.5000 
     75 CA          0.3331  -26.8273  -47.8335 C.3       13 UNK         0.1400 
     76 CB          1.7921  -27.1251  -48.2121 C.3       13 UNK        -0.1800 
     77 C          -0.4879  -26.4820  -49.0938 C.2       13 UNK         0.5000 
     78 O          -0.9275  -27.4040  -49.7825 O.2       13 UNK        -0.5000 
     79 N          -0.6714  -25.1848  -49.3818 N.am      14 UNK        -0.5000 
     80 CA         -1.3813  -24.6978  -50.5679 C.3       14 UNK         0.1400 
     81 CB         -0.3481  -24.2161  -51.5990 C.3       14 UNK        -0.1800 
     82 C          -2.4239  -23.6077  -50.2577 C.2       14 UNK         0.5000 
     83 O          -3.2316  -23.2975  -51.1375 O.2       14 UNK        -0.5000 
     84 N          -2.4072  -23.0441  -49.0400 N.am      15 UNK        -0.5000 
     85 CA         -3.3539  -22.0321  -48.5678 C.3       15 UNK         0.1400 
     86 CB         -3.0043  -21.6221  -47.1290 C.3       15 UNK        -0.1800 
     87 C          -4.8165  -22.5027  -48.6329 C.2       15 UNK         0.5000 
     88 O          -5.1147  -23.6331  -48.2418 O.2       15 UNK        -0.5000 
     89 N          -5.6881  -21.6150  -49.1325 N.am      16 UNK        -0.5000 
     90 CA         -7.1259  -21.8105  -49.3572 C.3       16 UNK         0.1400 
     91 CB         -7.8691  -21.9759  -48.0156 C.3       16 UNK        -0.1800 
     92 C          -7.4592  -22.9381  -50.3624 C.2       16 UNK         0.5000 
     93 O          -8.5940  -23.4175  -50.3838 O.2       16 UNK        -0.5000 
     94 N          -6.4798  -23.3299  -51.1872 N.am      17 UNK        -0.5000 
     95 CA         -6.5784  -24.4124  -52.1555 C.3       17 UNK         0.1400 
     96 CB         -6.2527  -25.7537  -51.4624 C.3       17 UNK        -0.1800 
     97 C          -5.6823  -24.0800  -53.3590 C.2       17 UNK         0.5000 
     98 O          -5.9861  -23.1328  -54.0876 O.2       17 UNK        -0.5000 
     99 N          -4.6047  -24.8560  -53.5432 N.am      18 UNK        -0.5000 
    100 CA        -3.6839  -24.8359  -54.6831 C.3       18 UNK         0.1400 
    101 CB        -2.6113  -25.9156  -54.4732 C.3       18 UNK        -0.1800 
    102 C         -3.0266  -23.4769  -54.9906 C.2       18 UNK         0.5000 
    103 O         -2.7086  -23.2193  -56.1519 O.2       18 UNK        -0.5000 
    104 N         -2.8766  -22.6086  -53.9816 N.am      19 UNK        -0.5000 
    105 CA        -2.3672  -21.2392  -54.1099 C.3       19 UNK         0.1400 
    106 CB        -1.8259  -20.7841  -52.7449 C.3       19 UNK        -0.1800 
    107 C         -3.4178  -20.2503  -54.6659 C.2       19 UNK         0.5000 
    108 O         -3.4922  -19.1149  -54.1952 O.2       19 UNK        -0.5000 
    109 N         -4.2429  -20.7028  -55.6225 N.am      20 UNK        -0.5000 
    110 CA        -5.3693  -19.9947  -56.2448 C.3       20 UNK         0.1400 
    111 CB        -4.8486  -18.8940  -57.1914 C.3       20 UNK        -0.1800 
    112 C         -6.3808  -19.4626  -55.2064 C.2       20 UNK         0.5000 
    113 O         -6.8443  -18.3253  -55.3143 O.2       20 UNK        -0.5000 
    114 N         -6.6446  -20.2783  -54.1739 N.am      21 UNK        -0.5000 
    115 CA        -7.4431  -19.9676  -52.9829 C.3       21 UNK         0.1400 
    116 CB        -8.9394  -19.8818  -53.3447 C.3       21 UNK        -0.1800 
    117 C         -6.9415  -18.7338  -52.1936 C.2       21 UNK         0.5000 
    118 O         -7.7447  -18.0486  -51.5597 O.2       21 UNK        -0.5000 
    119 N         -5.6277  -18.4731  -52.2599 N.am      22 UNK        -0.5000 
    120 CA        -4.9306  -17.2772  -51.7523 C.3       22 UNK         0.1400 
    121 C         -5.1958  -15.9824  -52.5825 C.2       22 UNK         0.5000 
    122 N         -5.8147  -16.0449  -53.7564 N.am      22 UNK        -0.7600 
    123 O         -4.8073  -14.8923  -52.1713 O.2       22 UNK        -0.5000 
    124 C124       -5.0950  -17.0376  -50.2233 C.3       23 UNK        -0.0398 
    125 S125       -4.5610  -18.4506  -49.1975 S.3       23 UNK        -0.2404 
    126 C126       -3.0216  -17.8169  -48.4579 C.3       23 UNK        -0.0205 
    127 H127        5.6922  -17.9703  -47.1135 H         1 UNK         0.0600 
    128 H128        4.9487  -18.8025  -48.4856 H         1 UNK         0.0600 
    129 H129        4.3664  -19.1034  -46.8476 H         1 UNK         0.0600 
    130 H130        3.9563  -17.1620  -49.6607 H         1 UNK         0.3000 
    131 H131        1.6056  -15.9150  -48.8102 H         1 UNK         0.0600 
    132 H132        3.3029  -14.8435  -51.1224 H         1 UNK         0.0800 
    133 H133        2.5220  -16.3849  -51.2387 H         1 UNK         0.0800 
    134 H134       -0.8872  -15.5480  -52.5189 H         1 UNK         0.0800 
    135 H135        0.6253  -16.3338  -52.8860 H         1 UNK         0.0800 
    136 H136       -2.0236  -16.0037  -50.2626 H         1 UNK         0.1150 
    137 H137       -1.3949  -19.9575  -48.7522 H         1 UNK         0.1150 
    138 H138        1.2110  -18.3956  -51.7585 H         1 UNK         0.1150 
    139 H139        0.1167  -21.4424  -49.9134 H         1 UNK         0.0800 
    140 H140        1.0466  -20.8797  -51.2786 H         1 UNK         0.0800 
    141 H141        0.5056  -20.1991  -47.6056 H         1 UNK         0.0800 
    142 H142        1.9970  -19.4739  -47.1635 H         1 UNK         0.0800 
    143 H143        2.7760  -22.0813  -46.9198 H         1 UNK         0.0600 
    144 H144        1.2188  -20.6506  -44.8285 H         1 UNK         0.3000 
    145 H145        3.8345  -20.9131  -42.5106 H         1 UNK         0.0600 
    146 H146        3.6666  -18.4196  -42.2943 H         1 UNK         0.0600 
    147 H147        3.0694  -18.3211  -43.9495 H         1 UNK         0.0600 
    148 H148        4.6991  -18.8912  -43.6364 H         1 UNK         0.0600 
    149 H149        1.4037  -19.4375  -42.3959 H         1 UNK         0.3000 
    150 H150       -0.5803  -22.2022  -41.1763 H         1 UNK         0.0600 
    151 H151        0.7576  -21.2291  -39.3250 H         1 UNK         0.0600 
    152 H152       -0.8389  -20.4992  -39.3946 H         1 UNK         0.0600 
    153 H153        0.5610  -19.6143  -39.9957 H         1 UNK         0.0600 
    154 H154       -0.7281  -19.3795  -42.1470 H         1 UNK         0.3000 
    155 H155       -3.1150  -20.1936  -44.5894 H         1 UNK         0.0600 
    156 H156       -4.6847  -20.0375  -42.6473 H         1 UNK         0.0600 
    157 H157       -4.6145  -18.5250  -43.5371 H         1 UNK         0.0600 
    158 H158       -3.7623  -18.6849  -42.0009 H         1 UNK         0.0600 
    159 H159       -2.2124  -17.6699  -43.6293 H         1 UNK         0.3000 
    160 H160        1.0628  -17.6870  -44.8374 H         1 UNK         0.0600 
    161 H161       -1.2268  -16.3276  -46.3352 H         1 UNK         0.0600 
    162 H162        0.0576  -17.2991  -47.0413 H         1 UNK         0.0600 
    163 H163        0.4459  -15.7616  -46.2907 H         1 UNK         0.0600 
    164 H164       -0.6030  -15.5376  -43.9678 H         1 UNK         0.3000 
    165 H165       -1.0005  -16.2093  -40.7182 H         1 UNK         0.0600 
    166 H166        0.6290  -14.8111  -39.5946 H         1 UNK         0.0600 
    167 H167        1.4451  -16.2725  -40.1201 H         1 UNK         0.0600 
    168 H168        1.6759  -14.7674  -41.0026 H         1 UNK         0.0600 
    169 H169       -0.1831  -13.7618  -42.1697 H         1 UNK         0.3000 
    170 H170       -3.4408  -13.1146  -43.3471 H         1 UNK         0.0600 
    171 H171       -2.0981  -11.6715  -40.9971 H         1 UNK         0.0600 
    172 H172       -3.3178  -10.9883  -42.0736 H         1 UNK         0.0600 
    173 H173       -3.7376  -12.3107  -40.9969 H         1 UNK         0.0600 
    174 H174       -1.1154  -11.4753  -43.2644 H         1 UNK         0.3000 
    175 H175       -0.1167  -12.2370  -46.4778 H         1 UNK         0.0600 
    176 H176        0.5806  -10.5851  -43.9823 H         1 UNK         0.0600 
    177 H177        1.0470  -10.2364  -45.6401 H         1 UNK         0.0600 
    178 H178       -0.6430  -10.1596  -45.1784 H         1 UNK         0.0600 
    179 H179        1.8324  -13.1892  -46.1117 H         1 UNK         0.3000 
    180 H180        4.0689  -13.3349  -43.5226 H         1 UNK         0.0600 
    181 H181        4.3024  -15.8428  -43.8088 H         1 UNK         0.0600 
    182 H182        2.5901  -15.9179  -44.2130 H         1 UNK         0.0600 
    183 H183        3.1017  -15.3877  -42.6180 H         1 UNK         0.0600 
    184 H184        3.8477  -14.7427  -46.0581 H         1 UNK         0.3000 
    185 H185        4.5495  -12.0392  -48.1229 H         1 UNK         0.0600 
    186 H186        6.7185  -13.0446  -48.7942 H         1 UNK         0.0600 
    187 H187        6.9006  -12.1829  -47.2758 H         1 UNK         0.0600 
    188 H188        6.8036  -13.9396  -47.2759 H         1 UNK         0.0600 
    189 H189        4.9250  -14.7969  -48.6319 H         1 UNK         0.3000 
    190 H190        1.0916  -23.0438  -44.6569 H         1 UNK         0.3000 
    191 H191       -1.5178  -23.6290  -45.2095 H         1 UNK         0.0600 
    192 H192       -0.5099  -23.9044  -42.9964 H         1 UNK         0.0600 
    193 H193        0.5030  -25.2323  -43.5612 H         1 UNK         0.0600 
    194 H194       -1.2441  -25.4247  -43.4577 H         1 UNK         0.0600 
    195 H195        1.1759  -25.2728  -46.6677 H         1 UNK         0.3000 
    196 H196       -0.0988  -27.7310  -47.3984 H         1 UNK         0.0600 
    197 H197        2.3676  -27.4484  -47.3445 H         1 UNK         0.0600 
    198 H198        2.2842  -26.2485  -48.6356 H         1 UNK         0.0600 
    199 H199        1.8487  -27.9233  -48.9535 H         1 UNK         0.0600 
    200 H200       -0.2691  -24.4835  -48.7677 H         1 UNK         0.3000 
    201 H201       -1.9507  -25.5105  -51.0228 H         1 UNK         0.0600 
    202 H202        0.3057  -25.0326  -51.9057 H         1 UNK         0.0600 
    203 H203        0.2808  -23.4218  -51.1990 H         1 UNK         0.0600 
    204 H204       -0.8300  -23.8385  -52.4999 H         1 UNK         0.0600 
    205 H205       -1.6750  -23.3010  -48.3907 H         1 UNK         0.3000 
    206 H206       -3.2407  -21.1663  -49.2211 H         1 UNK         0.0600 
    207 H207       -3.1573  -22.4450  -46.4305 H         1 UNK         0.0600 
    208 H208       -1.9710  -21.2928  -47.0337 H         1 UNK         0.0600 
    209 H209       -3.6379  -20.7960  -46.8053 H         1 UNK         0.0600 
    210 H210       -5.3356  -20.7021  -49.3931 H         1 UNK         0.3000 
    211 H211       -7.4850  -20.8870  -49.8128 H         1 UNK         0.0600 
    212 H212       -7.6210  -22.9190  -47.5279 H         1 UNK         0.0600 
    213 H213       -8.9499  -21.9590  -48.1609 H         1 UNK         0.0600 
    214 H214       -7.6242  -21.1671  -47.3272 H         1 UNK         0.0600 
    215 H215       -5.5670  -22.8991  -51.1090 H         1 UNK         0.3000 
    216 H216       -7.5977  -24.4646  -52.5436 H         1 UNK         0.0600 
    217 H217       -6.2874  -26.5854  -52.1673 H         1 UNK         0.0600 
    218 H218       -6.9794  -25.9715  -50.6795 H         1 UNK         0.0600 
    219 H219       -5.2667  -25.7416  -50.9955 H         1 UNK         0.0600 
    220 H220       -4.4357  -25.5788  -52.8598 H         1 UNK         0.3000 
    221 H221       -4.2676  -25.1082  -55.5646 H         1 UNK         0.0600 
    222 H222       -3.0586  -26.9067  -54.3952 H         1 UNK         0.0600 
    223 H223       -1.9118  -25.9428  -55.3099 H         1 UNK         0.0600 
    224 H224       -2.0321  -25.7373  -53.5674 H         1 UNK         0.0600 
    225 H225       -3.1736  -22.8909  -53.0518 H         1 UNK         0.3000 
    226 H226       -1.5318  -21.2420  -54.8127 H         1 UNK         0.0600 
    227 H227       -1.0669  -21.4693  -52.3739 H         1 UNK         0.0600 
    228 H228       -1.3621  -19.8003  -52.8180 H         1 UNK         0.0600 
    229 H229       -2.6160  -20.7187  -51.9956 H         1 UNK         0.0600 
    230 H230       -4.0880  -21.6514  -55.9425 H         1 UNK         0.3000 
    231 H231       -5.9053  -20.7293  -56.8473 H         1 UNK         0.0600 
    232 H232       -5.6677  -18.4324  -57.7439 H         1 UNK         0.0600 
    233 H233       -4.1530  -19.3018  -57.9247 H         1 UNK         0.0600 
    234 H234       -4.3341  -18.1022  -56.6454 H         1 UNK         0.0600 
    235 H235       -6.2352  -21.2097  -54.1903 H         1 UNK         0.3000 
    236 H236       -7.3174  -20.8186  -52.3170 H         1 UNK         0.0600 
    237 H237       -9.1536  -19.0173  -53.9739 H         1 UNK         0.0600 
    238 H238       -9.2669  -20.7746  -53.8775 H         1 UNK         0.0600 
    239 H239       -9.5562  -19.7969  -52.4493 H         1 UNK         0.0600 
    240 H240       -5.0542  -19.0488  -52.8654 H         1 UNK         0.3000 
    241 H241       -3.8738  -17.4852  -51.9226 H         1 UNK         0.0600 
    242 H242       -6.1351  -16.9266  -54.1444 H         1 UNK         0.3800 
    243 H243       -5.9632  -15.1954  -54.2766 H         1 UNK         0.3800 
    244 H244       -6.1329  -16.8117  -49.9786 H         1 UNK         0.0800 
    245 H245       -4.5311  -16.1562  -49.9162 H         1 UNK         0.0800 
    246 H246       -3.1437  -16.7764  -48.1538 H         1 UNK         0.0800 
    247 H247       -2.8240  -18.3721  -47.5395 H         1 UNK         0.0800 
@<TRIPOS>BOND
     1    1    2 1    
     2    1  127 1    
     3    1  128 1    
     4    1  129 1    
     5    2    3 2    
     6    2    4 am   BACKBONE|DICT|INTERRES
     7    4    5 1    
     8    4  130 1    
     9    5    6 1    
    10    5   65 1    
    11    5  131 1    
    12    6    7 1    
    13    6  132 1    
    14    6  133 1    
    15    7    8 1    
    16    8    9 1    
    17    8  134 1    
    18    8  135 1    
    19    9   10 ar   
    20    9   14 ar   
    21   10   11 ar   
    22   10  136 1    
    23   11   12 ar   
    24   11  126 1    
    25   12   13 ar   
    26   12  137 1    
    27   13   14 ar   
    28   13   15 1    
    29   14  138 1    
    30   15   16 1    
    31   15  139 1    
    32   15  140 1    
    33   16   17 1    
    34   17   18 1    
    35   17  141 1    
    36   17  142 1    
    37   18   19 1    
    38   18   67 1    
    39   18  143 1    
    40   19   20 am   BACKBONE|DICT|INTERRES
    41   19  144 1    
    42   20   21 2    
    43   20   22 1    
    44   22   23 1    
    45   22   24 1    
    46   22  145 1    
    47   23  146 1    
    48   23  147 1    
    49   23  148 1    
    50   24   25 am   BACKBONE|DICT|INTERRES
    51   24  149 1    
    52   25   26 2    
    53   25   27 1    
    54   27   28 1    
    55   27   29 1    
    56   27  150 1    
    57   28  151 1    
    58   28  152 1    
    59   28  153 1    
    60   29   30 am   BACKBONE|DICT|INTERRES
    61   29  154 1    
    62   30   31 2    
    63   30   32 1    
    64   32   33 1    
    65   32   34 1    
    66   32  155 1    
    67   33  156 1    
    68   33  157 1    
    69   33  158 1    
    70   34   35 am   BACKBONE|DICT|INTERRES
    71   34  159 1    
    72   35   36 2    
    73   35   37 1    
    74   37   38 1    
    75   37   39 1    
    76   37  160 1    
    77   38  161 1    
    78   38  162 1    
    79   38  163 1    
    80   39   40 am   BACKBONE|DICT|INTERRES
    81   39  164 1    
    82   40   41 2    
    83   40   42 1    
    84   42   43 1    
    85   42   44 1    
    86   42  165 1    
    87   43  166 1    
    88   43  167 1    
    89   43  168 1    
    90   44   45 am   BACKBONE|DICT|INTERRES
    91   44  169 1    
    92   45   46 2    
    93   45   47 1    
    94   47   48 1    
    95   47   49 1    
    96   47  170 1    
    97   48  171 1    
    98   48  172 1    
    99   48  173 1    
   100   49   50 am   BACKBONE|DICT|INTERRES
   101   49  174 1    
   102   50   51 2    
   103   50   52 1    
   104   52   53 1    
   105   52   54 1    
   106   52  175 1    
   107   53  176 1    
   108   53  177 1    
   109   53  178 1    
   110   54   55 am   BACKBONE|DICT|INTERRES
   111   54  179 1    
   112   55   56 2    
   113   55   57 1    
   114   57   58 1    
   115   57   59 1    
   116   57  180 1    
   117   58  181 1    
   118   58  182 1    
   119   58  183 1    
   120   59   60 am   BACKBONE|DICT|INTERRES
   121   59  184 1    
   122   60   61 2    
   123   60   62 1    
   124   62   63 1    
   125   62   64 1    
   126   62  185 1    
   127   63  186 1    
   128   63  187 1    
   129   63  188 1    
   130   64   65 am   BACKBONE|DICT|INTERRES
   131   64  189 1    
   132   65   66 2    
   133   67   68 2    
   134   67   69 am   BACKBONE|DICT|INTERRES
   135   69   70 1    
   136   69  190 1    
   137   70   71 1    
   138   70   72 1    
   139   70  191 1    
   140   71  192 1    
   141   71  193 1    
   142   71  194 1    
   143   72   73 2    
   144   72   74 am   BACKBONE|DICT|INTERRES
   145   74   75 1    
   146   74  195 1    
   147   75   76 1    
   148   75   77 1    
   149   75  196 1    
   150   76  197 1    
   151   76  198 1    
   152   76  199 1    
   153   77   78 2    
   154   77   79 am   BACKBONE|DICT|INTERRES
   155   79   80 1    
   156   79  200 1    
   157   80   81 1    
   158   80   82 1    
   159   80  201 1    
   160   81  202 1    
   161   81  203 1    
   162   81  204 1    
   163   82   83 2    
   164   82   84 am   BACKBONE|DICT|INTERRES
   165   84   85 1    
   166   84  205 1    
   167   85   86 1    
   168   85   87 1    
   169   85  206 1    
   170   86  207 1    
   171   86  208 1    
   172   86  209 1    
   173   87   88 2    
   174   87   89 am   BACKBONE|DICT|INTERRES
   175   89   90 1    
   176   89  210 1    
   177   90   91 1    
   178   90   92 1    
   179   90  211 1    
   180   91  212 1    
   181   91  213 1    
   182   91  214 1    
   183   92   93 2    
   184   92   94 am   BACKBONE|DICT|INTERRES
   185   94   95 1    
   186   94  215 1    
   187   95   96 1    
   188   95   97 1    
   189   95  216 1    
   190   96  217 1    
   191   96  218 1    
   192   96  219 1    
   193   97   98 2    
   194   97   99 am   BACKBONE|DICT|INTERRES
   195   99  100 1    
   196   99  220 1    
   197  100  101 1    
   198  100  102 1    
   199  100  221 1    
   200  101  222 1    
   201  101  223 1    
   202  101  224 1    
   203  102  103 2    
   204  102  104 am   BACKBONE|DICT|INTERRES
   205  104  105 1    
   206  104  225 1    
   207  105  106 1    
   208  105  107 1    
   209  105  226 1    
   210  106  227 1    
   211  106  228 1    
   212  106  229 1    
   213  107  108 2    
   214  107  109 am   BACKBONE|DICT|INTERRES
   215  109  110 1    
   216  109  230 1    
   217  110  111 1    
   218  110  112 1    
   219  110  231 1    
   220  111  232 1    
   221  111  233 1    
   222  111  234 1    
   223  112  113 2    
   224  112  114 am   BACKBONE|DICT|INTERRES
   225  114  115 1    
   226  114  235 1    
   227  115  116 1    
   228  115  117 1    
   229  115  236 1    
   230  116  237 1    
   231  116  238 1    
   232  116  239 1    
   233  117  118 2    
   234  117  119 am   BACKBONE|DICT|INTERRES
   235  119  120 1    
   236  119  240 1    
   237  120  121 1    
   238  120  124 1    
   239  120  241 1    
   240  121  122 am   BACKBONE|DICT|INTERRES
   241  121  123 2    
   242  122  242 1    
   243  122  243 1    
   244  124  125 1    
   245  124  244 1    
   246  124  245 1    
   247  125  126 1    
   248  126  246 1    
   249  126  247 1    
@<TRIPOS>SUBSTRUCTURE
     1 UNK         1 GROUP             0       ****    0 ROOT    
