@<TRIPOS>MOLECULE
3R540
247   249    1
SMALL
USER_CHARGES


@<TRIPOS>ATOM
      1 CA         -0.5476   -9.0421  -48.1793 C.3       0 UNK        -0.1800 
      2 C           0.1033  -10.3830  -47.8690 C.2       0 UNK         0.5000 
      3 O           0.7175  -10.5312  -46.8125 O.2       0 UNK        -0.5000 
      4 N          -0.0241  -11.3465  -48.7898 N.am      1 UNK        -0.5000 
      5 CA          0.4446  -12.7256  -48.6418 C.3       1 UNK         0.1400 
      6 C6          1.0791  -13.2476  -49.9602 C.3       23 UNK        -0.0398 
      7 S7          2.2481  -14.6234  -49.6918 S.3       23 UNK        -0.2404 
      8 C8          1.3544  -16.0466  -50.3904 C.3       23 UNK        -0.0205 
      9 C9          2.3166  -17.1820  -50.6997 C.ar      23 UNK        -0.0193 
     10 C10         2.8183  -17.3473  -51.9925 C.ar      23 UNK        -0.1150 
     11 C11         3.6933  -18.3961  -52.2847 C.ar      23 UNK        -0.0193 
     12 C12         4.1168  -19.2462  -51.2591 C.ar      23 UNK        -0.1150 
     13 C13         3.6190  -19.0965  -49.9611 C.ar      23 UNK        -0.0193 
     14 C14         2.7045  -18.0718  -49.6961 C.ar      23 UNK        -0.1150 
     15 C15         4.0673  -20.0377  -48.8471 C.3       23 UNK        -0.0205 
     16 S16         3.7267  -21.7892  -49.2205 S.3       23 UNK        -0.2404 
     17 C17         1.9084  -21.7769  -49.3384 C.3       23 UNK        -0.0398 
     18 CA          1.2212  -22.7158  -48.3180 C.3       11 UNK         0.1400 
     19 N           1.5265  -22.3903  -46.9249 N.am      11 UNK        -0.5000 
     20 C           1.5744  -23.2985  -45.9397 C.2       10 UNK         0.5000 
     21 O           1.5180  -24.5145  -46.1269 O.2       10 UNK        -0.5000 
     22 CA          1.6693  -22.7715  -44.4922 C.3       10 UNK         0.1400 
     23 CB          3.1375  -22.6819  -44.0498 C.3       10 UNK        -0.1800 
     24 N           1.0304  -21.4712  -44.2851 N.am      10 UNK        -0.5000 
     25 C          -0.2468  -21.1725  -44.5626 C.2       9 UNK         0.5000 
     26 O          -1.0699  -21.9878  -44.9740 O.2       9 UNK        -0.5000 
     27 CA         -0.6619  -19.6997  -44.4144 C.3       9 UNK         0.1400 
     28 CB         -1.2187  -19.4451  -43.0065 C.3       9 UNK        -0.1800 
     29 N           0.4208  -18.7531  -44.6907 N.am      9 UNK        -0.5000 
     30 C           1.1230  -18.6667  -45.8321 C.2       8 UNK         0.5000 
     31 O           0.9601  -19.4124  -46.8016 O.2       8 UNK        -0.5000 
     32 CA          2.2459  -17.6138  -45.8495 C.3       8 UNK         0.1400 
     33 CB          1.6939  -16.1968  -46.0751 C.3       8 UNK        -0.1800 
     34 N           3.0118  -17.6550  -44.6063 N.am      8 UNK        -0.5000 
     35 C           4.0054  -18.5233  -44.3686 C.2       7 UNK         0.5000 
     36 O           4.4279  -19.3237  -45.2027 O.2       7 UNK        -0.5000 
     37 CA          4.6270  -18.5073  -42.9589 C.3       7 UNK         0.1400 
     38 CB          5.8567  -17.5873  -42.9244 C.3       7 UNK        -0.1800 
     39 N           3.6866  -18.0863  -41.9197 N.am      7 UNK        -0.5000 
     40 C           2.6148  -18.7908  -41.5312 C.2       6 UNK         0.5000 
     41 O           2.3167  -19.8937  -41.9894 O.2       6 UNK        -0.5000 
     42 CA          1.6961  -18.1197  -40.4922 C.3       6 UNK         0.1400 
     43 CB          2.1830  -18.4234  -39.0676 C.3       6 UNK        -0.1800 
     44 N           1.5734  -16.6672  -40.6648 N.am      6 UNK        -0.5000 
     45 C           1.0948  -16.0663  -41.7618 C.2       5 UNK         0.5000 
     46 O           0.7549  -16.6717  -42.7823 O.2       5 UNK        -0.5000 
     47 CA          1.0260  -14.5353  -41.7384 C.3       5 UNK         0.1400 
     48 CB          2.3533  -13.9292  -42.2210 C.3       5 UNK        -0.1800 
     49 N          -0.0430  -14.1242  -42.6388 N.am      5 UNK        -0.5000 
     50 C          -0.9936  -13.2226  -42.3742 C.2       4 UNK         0.5000 
     51 O          -1.0133  -12.5271  -41.3576 O.2       4 UNK        -0.5000 
     52 CA         -2.1239  -13.0769  -43.4137 C.3       4 UNK         0.1400 
     53 CB         -1.9190  -11.8059  -44.2526 C.3       4 UNK        -0.1800 
     54 N          -2.2532  -14.2348  -44.3078 N.am      4 UNK        -0.5000 
     55 C          -2.7397  -15.4303  -43.9334 C.2       3 UNK         0.5000 
     56 O          -3.1298  -15.6675  -42.7895 O.2       3 UNK        -0.5000 
     57 CA         -2.8126  -16.5336  -45.0077 C.3       3 UNK         0.1400 
     58 CB         -3.9304  -17.5584  -44.7399 C.3       3 UNK        -0.1800 
     59 N          -3.0115  -15.9499  -46.3311 N.am      3 UNK        -0.5000 
     60 C          -2.2120  -16.1411  -47.3849 C.2       2 UNK         0.5000 
     61 O          -1.2540  -16.9105  -47.3891 O.2       2 UNK        -0.5000 
     62 CA         -2.4819  -15.2862  -48.6406 C.3       2 UNK         0.1400 
     63 CB         -3.7883  -14.4635  -48.5793 C.3       2 UNK        -0.1800 
     64 N          -1.3490  -14.4029  -48.9426 N.am      2 UNK        -0.5000 
     65 C          -0.7290  -13.5654  -48.0942 C.2       1 UNK         0.5000 
     66 O          -1.0663  -13.4182  -46.9178 O.2       1 UNK        -0.5000 
     67 C          -0.3028  -22.6826  -48.5178 C.2       11 UNK         0.5000 
     68 O          -0.8912  -23.6898  -48.9121 O.2       11 UNK        -0.5000 
     69 N          -0.9080  -21.5186  -48.2374 N.am      12 UNK        -0.5000 
     70 CA         -2.2798  -21.1697  -48.6113 C.3       12 UNK         0.1400 
     71 CB         -2.5242  -19.6986  -48.2662 C.3       12 UNK        -0.1800 
     72 C          -3.3792  -22.0695  -48.0217 C.2       12 UNK         0.5000 
     73 O          -4.4412  -22.1957  -48.6334 O.2       12 UNK        -0.5000 
     74 N          -3.1099  -22.7252  -46.8838 N.am      13 UNK        -0.5000 
     75 CA         -3.9832  -23.7264  -46.2647 C.3       13 UNK         0.1400 
     76 CB         -3.3575  -24.2136  -44.9501 C.3       13 UNK        -0.1800 
     77 C          -4.3112  -24.9251  -47.1786 C.2       13 UNK         0.5000 
     78 O          -5.3872  -25.5062  -47.0354 O.2       13 UNK        -0.5000 
     79 N          -3.4285  -25.2368  -48.1410 N.am      14 UNK        -0.5000 
     80 CA         -3.6537  -26.2525  -49.1743 C.3       14 UNK         0.1400 
     81 CB         -2.3351  -26.5268  -49.9118 C.3       14 UNK        -0.1800 
     82 C          -4.7728  -25.8819  -50.1723 C.2       14 UNK         0.5000 
     83 O          -5.3357  -26.7789  -50.8005 O.2       14 UNK        -0.5000 
     84 N          -5.0958  -24.5856  -50.2774 N.am      15 UNK        -0.5000 
     85 CA         -6.2229  -24.0453  -51.0385 C.3       15 UNK         0.1400 
     86 CB         -5.6961  -23.0003  -52.0378 C.3       15 UNK        -0.1800 
     87 C          -7.2858  -23.4412  -50.0983 C.2       15 UNK         0.5000 
     88 O          -8.0827  -22.6140  -50.5405 O.2       15 UNK        -0.5000 
     89 N          -7.2670  -23.8260  -48.8108 N.am      16 UNK        -0.5000 
     90 CA         -8.1572  -23.3680  -47.7349 C.3       16 UNK         0.1400 
     91 CB         -9.5791  -23.9278  -47.9461 C.3       16 UNK        -0.1800 
     92 C          -8.1455  -21.8357  -47.5259 C.2       16 UNK         0.5000 
     93 O          -9.1633  -21.2588  -47.1403 O.2       16 UNK        -0.5000 
     94 N          -6.9947  -21.2078  -47.8106 N.am      17 UNK        -0.5000 
     95 CA         -6.7241  -19.7674  -47.8007 C.3       17 UNK         0.1400 
     96 CB         -6.9051  -19.1686  -46.3909 C.3       17 UNK        -0.1800 
     97 C          -7.4664  -18.9652  -48.8925 C.2       17 UNK         0.5000 
     98 O          -7.4520  -17.7344  -48.8437 O.2       17 UNK        -0.5000 
     99 N          -8.0699  -19.6474  -49.8783 N.am      18 UNK        -0.5000 
    100 CA        -8.7374  -19.0190  -51.0229 C.3       18 UNK         0.1400 
    101 CB        -9.7803  -19.9898  -51.5980 C.3       18 UNK        -0.1800 
    102 C         -7.7479  -18.5785  -52.1203 C.2       18 UNK         0.5000 
    103 O         -8.1126  -17.7680  -52.9731 O.2       18 UNK        -0.5000 
    104 N         -6.5223  -19.1118  -52.0829 N.am      19 UNK        -0.5000 
    105 CA        -5.4177  -18.8032  -52.9812 C.3       19 UNK         0.1400 
    106 CB        -5.5278  -19.6644  -54.2529 C.3       19 UNK        -0.1800 
    107 C         -4.0994  -19.0696  -52.2409 C.2       19 UNK         0.5000 
    108 O         -4.1091  -19.6942  -51.1780 O.2       19 UNK        -0.5000 
    109 N         -2.9873  -18.6076  -52.8267 N.am      20 UNK        -0.5000 
    110 CA        -1.6266  -18.7998  -52.3136 C.3       20 UNK         0.1400 
    111 CB        -0.6671  -17.9173  -53.1236 C.3       20 UNK        -0.1800 
    112 C         -1.1503  -20.2656  -52.3463 C.2       20 UNK         0.5000 
    113 O         -0.3075  -20.6439  -51.5358 O.2       20 UNK        -0.5000 
    114 N         -1.6972  -21.0509  -53.2865 N.am      21 UNK        -0.5000 
    115 CA        -1.5287  -22.4977  -53.4836 C.3       21 UNK         0.1400 
    116 CB        -1.9411  -23.2686  -52.2149 C.3       21 UNK        -0.1800 
    117 C         -0.1377  -22.9571  -53.9747 C.2       21 UNK         0.5000 
    118 O          0.0130  -24.1376  -54.2945 O.2       21 UNK        -0.5000 
    119 N          0.8479  -22.0540  -54.0365 N.am      22 UNK        -0.5000 
    120 CA         2.2057  -22.3269  -54.5288 C.3       22 UNK         0.1400 
    121 C          2.2844  -22.5671  -56.0658 C.2       22 UNK         0.5000 
    122 N          3.3431  -23.2095  -56.5421 N.am      22 UNK        -0.7600 
    123 O          1.4131  -22.1644  -56.8345 O.2       22 UNK        -0.5000 
    124 C124        3.2147  -21.2579  -54.0361 C.3       23 UNK        -0.0398 
    125 S125        2.9126  -19.5661  -54.6597 S.3       23 UNK        -0.2404 
    126 C126        4.1522  -18.6209  -53.7158 C.3       23 UNK        -0.0205 
    127 H127       -1.0492   -9.0476  -49.1474 H         1 UNK         0.0600 
    128 H128        0.2046   -8.2532  -48.1908 H         1 UNK         0.0600 
    129 H129       -1.2862   -8.7993  -47.4154 H         1 UNK         0.0600 
    130 H130       -0.5629  -11.1557  -49.6230 H         1 UNK         0.3000 
    131 H131        1.2234  -12.7519  -47.8762 H         1 UNK         0.0600 
    132 H132        1.6754  -12.4479  -50.4023 H         1 UNK         0.0800 
    133 H133        0.3391  -13.4918  -50.7228 H         1 UNK         0.0800 
    134 H134        0.5940  -16.3864  -49.6850 H         1 UNK         0.0800 
    135 H135        0.8309  -15.7494  -51.3000 H         1 UNK         0.0800 
    136 H136        2.5054  -16.6767  -52.7805 H         1 UNK         0.1150 
    137 H137        4.8095  -20.0473  -51.4754 H         1 UNK         0.1150 
    138 H138        2.2888  -17.9551  -48.7095 H         1 UNK         0.1150 
    139 H139        5.1388  -19.9115  -48.6879 H         1 UNK         0.0800 
    140 H140        3.5853  -19.7846  -47.9022 H         1 UNK         0.0800 
    141 H141        1.6512  -22.0767  -50.3560 H         1 UNK         0.0800 
    142 H142        1.5415  -20.7551  -49.2298 H         1 UNK         0.0800 
    143 H143        1.5599  -23.7310  -48.5363 H         1 UNK         0.0600 
    144 H144        1.5456  -21.4050  -46.6878 H         1 UNK         0.3000 
    145 H145        1.1586  -23.4899  -43.8481 H         1 UNK         0.0600 
    146 H146        3.6385  -23.6447  -44.1579 H         1 UNK         0.0600 
    147 H147        3.6910  -21.9547  -44.6451 H         1 UNK         0.0600 
    148 H148        3.2184  -22.3894  -43.0027 H         1 UNK         0.0600 
    149 H149        1.6098  -20.7434  -43.8845 H         1 UNK         0.3000 
    150 H150       -1.4542  -19.5044  -45.1370 H         1 UNK         0.0600 
    151 H151       -1.4861  -18.3987  -42.8604 H         1 UNK         0.0600 
    152 H152       -0.4953  -19.7152  -42.2380 H         1 UNK         0.0600 
    153 H153       -2.1164  -20.0393  -42.8319 H         1 UNK         0.0600 
    154 H154        0.6222  -18.0809  -43.9546 H         1 UNK         0.3000 
    155 H155        2.9262  -17.8398  -46.6693 H         1 UNK         0.0600 
    156 H156        1.2413  -16.1152  -47.0633 H         1 UNK         0.0600 
    157 H157        2.4853  -15.4492  -46.0233 H         1 UNK         0.0600 
    158 H158        0.9297  -15.9298  -45.3452 H         1 UNK         0.0600 
    159 H159        2.6809  -17.0718  -43.8506 H         1 UNK         0.3000 
    160 H160        4.9525  -19.5246  -42.7308 H         1 UNK         0.0600 
    161 H161        6.5906  -17.8886  -43.6731 H         1 UNK         0.0600 
    162 H162        6.3508  -17.6251  -41.9534 H         1 UNK         0.0600 
    163 H163        5.5890  -16.5493  -43.1260 H         1 UNK         0.0600 
    164 H164        3.8534  -17.1888  -41.4892 H         1 UNK         0.3000 
    165 H165        0.6996  -18.5490  -40.6059 H         1 UNK         0.0600 
    166 H166        1.4892  -18.0347  -38.3220 H         1 UNK         0.0600 
    167 H167        2.2640  -19.4989  -38.9038 H         1 UNK         0.0600 
    168 H168        3.1638  -17.9870  -38.8745 H         1 UNK         0.0600 
    169 H169        1.8455  -16.0990  -39.8753 H         1 UNK         0.3000 
    170 H170        0.8190  -14.2085  -40.7172 H         1 UNK         0.0600 
    171 H171        2.3082  -12.8400  -42.2234 H         1 UNK         0.0600 
    172 H172        3.1782  -14.2188  -41.5691 H         1 UNK         0.0600 
    173 H173        2.6012  -14.2546  -43.2324 H         1 UNK         0.0600 
    174 H174       -0.1434  -14.7004  -43.4631 H         1 UNK         0.3000 
    175 H175       -3.0611  -12.9687  -42.8638 H         1 UNK         0.0600 
    176 H176       -0.9638  -11.8219  -44.7789 H         1 UNK         0.0600 
    177 H177       -2.7089  -11.6870  -44.9944 H         1 UNK         0.0600 
    178 H178       -1.9275  -10.9164  -43.6216 H         1 UNK         0.0600 
    179 H179       -1.9242  -14.1014  -45.2609 H         1 UNK         0.3000 
    180 H180       -1.8541  -17.0517  -44.9631 H         1 UNK         0.0600 
    181 H181       -3.9419  -18.3358  -45.5037 H         1 UNK         0.0600 
    182 H182       -4.9121  -17.0840  -44.7288 H         1 UNK         0.0600 
    183 H183       -3.7948  -18.0537  -43.7783 H         1 UNK         0.0600 
    184 H184       -3.7512  -15.2658  -46.4058 H         1 UNK         0.3000 
    185 H185       -2.5676  -15.9874  -49.4722 H         1 UNK         0.0600 
    186 H186       -4.6539  -15.1059  -48.4107 H         1 UNK         0.0600 
    187 H187       -3.7656  -13.7113  -47.7896 H         1 UNK         0.0600 
    188 H188       -3.9602  -13.9416  -49.5207 H         1 UNK         0.0600 
    189 H189       -1.0015  -14.4644  -49.8869 H         1 UNK         0.3000 
    190 H190       -0.3454  -20.7606  -47.8678 H         1 UNK         0.3000 
    191 H191       -2.3476  -21.2728  -49.6956 H         1 UNK         0.0600 
    192 H192       -2.4600  -19.5168  -47.1946 H         1 UNK         0.0600 
    193 H193       -3.5058  -19.3684  -48.6008 H         1 UNK         0.0600 
    194 H194       -1.7908  -19.0642  -48.7632 H         1 UNK         0.0600 
    195 H195       -2.2306  -22.5400  -46.4074 H         1 UNK         0.3000 
    196 H196       -4.9284  -23.2333  -46.0293 H         1 UNK         0.0600 
    197 H197       -3.9728  -24.9829  -44.4815 H         1 UNK         0.0600 
    198 H198       -3.2629  -23.3973  -44.2340 H         1 UNK         0.0600 
    199 H199       -2.3649  -24.6363  -45.1113 H         1 UNK         0.0600 
    200 H200       -2.5745  -24.6930  -48.2222 H         1 UNK         0.3000 
    201 H201       -3.9581  -27.1747  -48.6751 H         1 UNK         0.0600 
    202 H202       -1.5569  -26.8521  -49.2213 H         1 UNK         0.0600 
    203 H203       -1.9722  -25.6390  -50.4285 H         1 UNK         0.0600 
    204 H204       -2.4589  -27.3131  -50.6575 H         1 UNK         0.0600 
    205 H205       -4.6018  -23.9093  -49.7041 H         1 UNK         0.3000 
    206 H206       -6.7207  -24.8345  -51.6047 H         1 UNK         0.0600 
    207 H207       -6.5043  -22.5847  -52.6407 H         1 UNK         0.0600 
    208 H208       -5.2067  -22.1710  -51.5264 H         1 UNK         0.0600 
    209 H209       -4.9795  -23.4440  -52.7284 H         1 UNK         0.0600 
    210 H210       -6.5689  -24.5033  -48.5280 H         1 UNK         0.3000 
    211 H211       -7.7660  -23.7995  -46.8126 H         1 UNK         0.0600 
    212 H212      -10.0574  -23.4938  -48.8248 H         1 UNK         0.0600 
    213 H213      -10.2170  -23.7155  -47.0874 H         1 UNK         0.0600 
    214 H214       -9.5611  -25.0101  -48.0742 H         1 UNK         0.0600 
    215 H215       -6.2161  -21.7718  -48.1436 H         1 UNK         0.3000 
    216 H216       -5.6688  -19.6750  -48.0507 H         1 UNK         0.0600 
    217 H217       -6.5507  -18.1380  -46.3563 H         1 UNK         0.0600 
    218 H218       -6.3378  -19.7297  -45.6484 H         1 UNK         0.0600 
    219 H219       -7.9504  -19.1607  -46.0822 H         1 UNK         0.0600 
    220 H220       -8.0455  -20.6622  -49.8738 H         1 UNK         0.3000 
    221 H221       -9.2657  -18.1282  -50.6765 H         1 UNK         0.0600 
    222 H222       -9.3115  -20.8607  -52.0566 H         1 UNK         0.0600 
    223 H223      -10.4636  -20.3425  -50.8252 H         1 UNK         0.0600 
    224 H224      -10.3809  -19.5027  -52.3670 H         1 UNK         0.0600 
    225 H225       -6.2719  -19.7252  -51.3178 H         1 UNK         0.3000 
    226 H226       -5.4507  -17.7445  -53.2468 H         1 UNK         0.0600 
    227 H227       -6.4749  -19.4942  -54.7651 H         1 UNK         0.0600 
    228 H228       -4.7332  -19.4282  -54.9611 H         1 UNK         0.0600 
    229 H229       -5.4593  -20.7284  -54.0243 H         1 UNK         0.0600 
    230 H230       -3.0691  -18.0967  -53.6940 H         1 UNK         0.3000 
    231 H231       -1.6022  -18.4722  -51.2720 H         1 UNK         0.0600 
    232 H232       -0.7166  -18.1385  -54.1905 H         1 UNK         0.0600 
    233 H233       -0.8890  -16.8590  -52.9864 H         1 UNK         0.0600 
    234 H234        0.3624  -18.0798  -52.8099 H         1 UNK         0.0600 
    235 H235       -2.3481  -20.6112  -53.9206 H         1 UNK         0.3000 
    236 H236       -2.2334  -22.7649  -54.2723 H         1 UNK         0.0600 
    237 H237       -1.1593  -23.2272  -51.4579 H         1 UNK         0.0600 
    238 H238       -2.8502  -22.8658  -51.7713 H         1 UNK         0.0600 
    239 H239       -2.1214  -24.3196  -52.4414 H         1 UNK         0.0600 
    240 H240        0.6552  -21.1047  -53.7541 H         1 UNK         0.3000 
    241 H241        2.5083  -23.2690  -54.0667 H         1 UNK         0.0600 
    242 H242        3.4126  -23.3654  -57.5360 H         1 UNK         0.3800 
    243 H243        4.0736  -23.5537  -55.9382 H         1 UNK         0.3800 
    244 H244        3.1900  -21.2356  -52.9465 H         1 UNK         0.0800 
    245 H245        4.2327  -21.5468  -54.3020 H         1 UNK         0.0800 
    246 H246        4.3106  -17.6585  -54.2044 H         1 UNK         0.0800 
    247 H247        5.1130  -19.1375  -53.7396 H         1 UNK         0.0800 
@<TRIPOS>BOND
     1    1    2 1    
     2    1  127 1    
     3    1  128 1    
     4    1  129 1    
     5    2    3 2    
     6    2    4 am   BACKBONE|DICT|INTERRES
     7    4    5 1    
     8    4  130 1    
     9    5    6 1    
    10    5   65 1    
    11    5  131 1    
    12    6    7 1    
    13    6  132 1    
    14    6  133 1    
    15    7    8 1    
    16    8    9 1    
    17    8  134 1    
    18    8  135 1    
    19    9   10 ar   
    20    9   14 ar   
    21   10   11 ar   
    22   10  136 1    
    23   11   12 ar   
    24   11  126 1    
    25   12   13 ar   
    26   12  137 1    
    27   13   14 ar   
    28   13   15 1    
    29   14  138 1    
    30   15   16 1    
    31   15  139 1    
    32   15  140 1    
    33   16   17 1    
    34   17   18 1    
    35   17  141 1    
    36   17  142 1    
    37   18   19 1    
    38   18   67 1    
    39   18  143 1    
    40   19   20 am   BACKBONE|DICT|INTERRES
    41   19  144 1    
    42   20   21 2    
    43   20   22 1    
    44   22   23 1    
    45   22   24 1    
    46   22  145 1    
    47   23  146 1    
    48   23  147 1    
    49   23  148 1    
    50   24   25 am   BACKBONE|DICT|INTERRES
    51   24  149 1    
    52   25   26 2    
    53   25   27 1    
    54   27   28 1    
    55   27   29 1    
    56   27  150 1    
    57   28  151 1    
    58   28  152 1    
    59   28  153 1    
    60   29   30 am   BACKBONE|DICT|INTERRES
    61   29  154 1    
    62   30   31 2    
    63   30   32 1    
    64   32   33 1    
    65   32   34 1    
    66   32  155 1    
    67   33  156 1    
    68   33  157 1    
    69   33  158 1    
    70   34   35 am   BACKBONE|DICT|INTERRES
    71   34  159 1    
    72   35   36 2    
    73   35   37 1    
    74   37   38 1    
    75   37   39 1    
    76   37  160 1    
    77   38  161 1    
    78   38  162 1    
    79   38  163 1    
    80   39   40 am   BACKBONE|DICT|INTERRES
    81   39  164 1    
    82   40   41 2    
    83   40   42 1    
    84   42   43 1    
    85   42   44 1    
    86   42  165 1    
    87   43  166 1    
    88   43  167 1    
    89   43  168 1    
    90   44   45 am   BACKBONE|DICT|INTERRES
    91   44  169 1    
    92   45   46 2    
    93   45   47 1    
    94   47   48 1    
    95   47   49 1    
    96   47  170 1    
    97   48  171 1    
    98   48  172 1    
    99   48  173 1    
   100   49   50 am   BACKBONE|DICT|INTERRES
   101   49  174 1    
   102   50   51 2    
   103   50   52 1    
   104   52   53 1    
   105   52   54 1    
   106   52  175 1    
   107   53  176 1    
   108   53  177 1    
   109   53  178 1    
   110   54   55 am   BACKBONE|DICT|INTERRES
   111   54  179 1    
   112   55   56 2    
   113   55   57 1    
   114   57   58 1    
   115   57   59 1    
   116   57  180 1    
   117   58  181 1    
   118   58  182 1    
   119   58  183 1    
   120   59   60 am   BACKBONE|DICT|INTERRES
   121   59  184 1    
   122   60   61 2    
   123   60   62 1    
   124   62   63 1    
   125   62   64 1    
   126   62  185 1    
   127   63  186 1    
   128   63  187 1    
   129   63  188 1    
   130   64   65 am   BACKBONE|DICT|INTERRES
   131   64  189 1    
   132   65   66 2    
   133   67   68 2    
   134   67   69 am   BACKBONE|DICT|INTERRES
   135   69   70 1    
   136   69  190 1    
   137   70   71 1    
   138   70   72 1    
   139   70  191 1    
   140   71  192 1    
   141   71  193 1    
   142   71  194 1    
   143   72   73 2    
   144   72   74 am   BACKBONE|DICT|INTERRES
   145   74   75 1    
   146   74  195 1    
   147   75   76 1    
   148   75   77 1    
   149   75  196 1    
   150   76  197 1    
   151   76  198 1    
   152   76  199 1    
   153   77   78 2    
   154   77   79 am   BACKBONE|DICT|INTERRES
   155   79   80 1    
   156   79  200 1    
   157   80   81 1    
   158   80   82 1    
   159   80  201 1    
   160   81  202 1    
   161   81  203 1    
   162   81  204 1    
   163   82   83 2    
   164   82   84 am   BACKBONE|DICT|INTERRES
   165   84   85 1    
   166   84  205 1    
   167   85   86 1    
   168   85   87 1    
   169   85  206 1    
   170   86  207 1    
   171   86  208 1    
   172   86  209 1    
   173   87   88 2    
   174   87   89 am   BACKBONE|DICT|INTERRES
   175   89   90 1    
   176   89  210 1    
   177   90   91 1    
   178   90   92 1    
   179   90  211 1    
   180   91  212 1    
   181   91  213 1    
   182   91  214 1    
   183   92   93 2    
   184   92   94 am   BACKBONE|DICT|INTERRES
   185   94   95 1    
   186   94  215 1    
   187   95   96 1    
   188   95   97 1    
   189   95  216 1    
   190   96  217 1    
   191   96  218 1    
   192   96  219 1    
   193   97   98 2    
   194   97   99 am   BACKBONE|DICT|INTERRES
   195   99  100 1    
   196   99  220 1    
   197  100  101 1    
   198  100  102 1    
   199  100  221 1    
   200  101  222 1    
   201  101  223 1    
   202  101  224 1    
   203  102  103 2    
   204  102  104 am   BACKBONE|DICT|INTERRES
   205  104  105 1    
   206  104  225 1    
   207  105  106 1    
   208  105  107 1    
   209  105  226 1    
   210  106  227 1    
   211  106  228 1    
   212  106  229 1    
   213  107  108 2    
   214  107  109 am   BACKBONE|DICT|INTERRES
   215  109  110 1    
   216  109  230 1    
   217  110  111 1    
   218  110  112 1    
   219  110  231 1    
   220  111  232 1    
   221  111  233 1    
   222  111  234 1    
   223  112  113 2    
   224  112  114 am   BACKBONE|DICT|INTERRES
   225  114  115 1    
   226  114  235 1    
   227  115  116 1    
   228  115  117 1    
   229  115  236 1    
   230  116  237 1    
   231  116  238 1    
   232  116  239 1    
   233  117  118 2    
   234  117  119 am   BACKBONE|DICT|INTERRES
   235  119  120 1    
   236  119  240 1    
   237  120  121 1    
   238  120  124 1    
   239  120  241 1    
   240  121  122 am   BACKBONE|DICT|INTERRES
   241  121  123 2    
   242  122  242 1    
   243  122  243 1    
   244  124  125 1    
   245  124  244 1    
   246  124  245 1    
   247  125  126 1    
   248  126  246 1    
   249  126  247 1    
@<TRIPOS>SUBSTRUCTURE
     1 UNK         1 GROUP             0       ****    0 ROOT    
