@<TRIPOS>MOLECULE
3R540
247   249    1
SMALL
USER_CHARGES


@<TRIPOS>ATOM
      1 CA          2.3677  -11.1304  -51.3217 C.3       0 UNK        -0.1800 
      2 C           3.4379  -11.3853  -50.2695 C.2       0 UNK         0.5000 
      3 O           4.5054  -10.7731  -50.3198 O.2       0 UNK        -0.5000 
      4 N           3.1599  -12.2921  -49.3253 N.am      1 UNK        -0.5000 
      5 CA          4.0413  -12.6410  -48.2060 C.3       1 UNK         0.1400 
      6 C6          3.5626  -13.9139  -47.4674 C.3       23 UNK        -0.0398 
      7 S7          3.4506  -15.3722  -48.5551 S.3       23 UNK        -0.2404 
      8 C8          1.7558  -15.9379  -48.1960 C.3       23 UNK        -0.0205 
      9 C9          1.4526  -17.2926  -48.8187 C.ar      23 UNK        -0.0193 
     10 C10         0.3239  -17.4567  -49.6259 C.ar      23 UNK        -0.1150 
     11 C11         0.0234  -18.7026  -50.1827 C.ar      23 UNK        -0.0193 
     12 C12         0.8667  -19.7898  -49.9339 C.ar      23 UNK        -0.1150 
     13 C13         2.0040  -19.6384  -49.1353 C.ar      23 UNK        -0.0193 
     14 C14         2.2826  -18.3911  -48.5704 C.ar      23 UNK        -0.1150 
     15 C15         2.9594  -20.8046  -48.9202 C.3       23 UNK        -0.0205 
     16 S16         2.9536  -21.4107  -47.2047 S.3       23 UNK        -0.2404 
     17 C17         1.3149  -22.2002  -47.1157 C.3       23 UNK        -0.0398 
     18 CA          1.1551  -23.0737  -45.8454 C.3       11 UNK         0.1400 
     19 N           1.2016  -22.2678  -44.6188 N.am      11 UNK        -0.5000 
     20 C           1.4801  -22.7346  -43.3944 C.2       10 UNK         0.5000 
     21 O           1.8271  -23.8940  -43.1685 O.2       10 UNK        -0.5000 
     22 CA          1.2764  -21.7592  -42.2168 C.3       10 UNK         0.1400 
     23 CB          2.5588  -20.9636  -41.9313 C.3       10 UNK        -0.1800 
     24 N           0.1527  -20.8393  -42.4269 N.am      10 UNK        -0.5000 
     25 C          -1.1303  -21.2230  -42.5108 C.2       9 UNK         0.5000 
     26 O          -1.5005  -22.3871  -42.3639 O.2       9 UNK        -0.5000 
     27 CA         -2.1729  -20.1506  -42.8733 C.3       9 UNK         0.1400 
     28 CB         -2.6286  -19.3919  -41.6186 C.3       9 UNK        -0.1800 
     29 N          -1.6926  -19.2030  -43.8784 N.am      9 UNK        -0.5000 
     30 C          -1.3670  -19.5192  -45.1404 C.2       8 UNK         0.5000 
     31 O          -1.4826  -20.6499  -45.6133 O.2       8 UNK        -0.5000 
     32 CA         -0.7481  -18.3976  -45.9960 C.3       8 UNK         0.1400 
     33 CB         -1.8341  -17.4710  -46.5591 C.3       8 UNK        -0.1800 
     34 N           0.2412  -17.6128  -45.2520 N.am      8 UNK        -0.5000 
     35 C           1.3740  -18.1279  -44.7512 C.2       7 UNK         0.5000 
     36 O           1.7107  -19.3009  -44.8984 O.2       7 UNK        -0.5000 
     37 CA          2.2427  -17.2024  -43.8836 C.3       7 UNK         0.1400 
     38 CB          3.1783  -16.3339  -44.7372 C.3       7 UNK        -0.1800 
     39 N           1.4300  -16.3612  -43.0053 N.am      7 UNK        -0.5000 
     40 C           0.7694  -16.8266  -41.9354 C.2       6 UNK         0.5000 
     41 O           0.8402  -17.9915  -41.5438 O.2       6 UNK        -0.5000 
     42 CA         -0.1686  -15.8416  -41.2152 C.3       6 UNK         0.1400 
     43 CB          0.5911  -15.0284  -40.1585 C.3       6 UNK        -0.1800 
     44 N          -0.8490  -14.9390  -42.1466 N.am      6 UNK        -0.5000 
     45 C          -1.7981  -15.3444  -43.0036 C.2       5 UNK         0.5000 
     46 O          -2.1918  -16.5070  -43.0747 O.2       5 UNK        -0.5000 
     47 CA         -2.3947  -14.3019  -43.9657 C.3       5 UNK         0.1400 
     48 CB         -3.6754  -13.6978  -43.3713 C.3       5 UNK        -0.1800 
     49 N          -1.4791  -13.2215  -44.3250 N.am      5 UNK        -0.5000 
     50 C          -0.3038  -13.3640  -44.9510 C.2       4 UNK         0.5000 
     51 O           0.1753  -14.4551  -45.2707 O.2       4 UNK        -0.5000 
     52 CA          0.4806  -12.0699  -45.2556 C.3       4 UNK         0.1400 
     53 CB         -0.3025  -10.7696  -44.9677 C.3       4 UNK        -0.1800 
     54 N           1.7768  -12.0205  -44.5763 N.am      4 UNK        -0.5000 
     55 C           2.0316  -12.1998  -43.2701 C.2       3 UNK         0.5000 
     56 O           1.1688  -12.4913  -42.4403 O.2       3 UNK        -0.5000 
     57 CA          3.4955  -12.0349  -42.8061 C.3       3 UNK         0.1400 
     58 CB          4.0077  -13.3164  -42.1307 C.3       3 UNK        -0.1800 
     59 N           4.4021  -11.6896  -43.9057 N.am      3 UNK        -0.5000 
     60 C           4.7120  -10.4406  -44.2806 C.2       2 UNK         0.5000 
     61 O           4.3182   -9.4306  -43.6970 O.2       2 UNK        -0.5000 
     62 CA          5.5811  -10.2987  -45.5471 C.3       2 UNK         0.1400 
     63 CB          7.0733  -10.3230  -45.1826 C.3       2 UNK        -0.1800 
     64 N           5.3138  -11.3265  -46.5616 N.am      2 UNK        -0.5000 
     65 C           4.1455  -11.4754  -47.2015 C.2       1 UNK         0.5000 
     66 O           3.1540  -10.7780  -46.9757 O.2       1 UNK        -0.5000 
     67 C          -0.1267  -23.9347  -45.9478 C.2       11 UNK         0.5000 
     68 O          -0.2165  -24.7512  -46.8628 O.2       11 UNK        -0.5000 
     69 N          -1.0978  -23.7341  -45.0427 N.am      12 UNK        -0.5000 
     70 CA         -2.4315  -24.3473  -45.0067 C.3       12 UNK         0.1400 
     71 CB         -2.3408  -25.8761  -44.8188 C.3       12 UNK        -0.1800 
     72 C          -3.3260  -23.9333  -46.1961 C.2       12 UNK         0.5000 
     73 O          -4.2253  -24.6865  -46.5708 O.2       12 UNK        -0.5000 
     74 N          -3.0568  -22.7366  -46.7421 N.am      13 UNK        -0.5000 
     75 CA         -3.7302  -22.0222  -47.8312 C.3       13 UNK         0.1400 
     76 CB         -4.8148  -21.1085  -47.2284 C.3       13 UNK        -0.1800 
     77 C          -4.2746  -22.9065  -48.9793 C.2       13 UNK         0.5000 
     78 O          -5.4899  -23.0027  -49.1355 O.2       13 UNK        -0.5000 
     79 N          -3.4320  -23.5657  -49.7835 N.am      14 UNK        -0.5000 
     80 CA         -1.9705  -23.6446  -49.7329 C.3       14 UNK         0.1400 
     81 CB         -1.3956  -22.7978  -50.8780 C.3       14 UNK        -0.1800 
     82 C          -1.5024  -25.1098  -49.8266 C.2       14 UNK         0.5000 
     83 O          -0.3566  -25.3557  -50.2075 O.2       14 UNK        -0.5000 
     84 N          -2.4061  -26.0567  -49.5266 N.am      15 UNK        -0.5000 
     85 CA         -2.2786  -27.5200  -49.5918 C.3       15 UNK         0.1400 
     86 CB         -1.1692  -28.0366  -48.6558 C.3       15 UNK        -0.1800 
     87 C          -2.1107  -28.0682  -51.0235 C.2       15 UNK         0.5000 
     88 O          -2.8844  -28.9306  -51.4401 O.2       15 UNK        -0.5000 
     89 N          -1.1265  -27.5398  -51.7593 N.am      16 UNK        -0.5000 
     90 CA         -0.8665  -27.8214  -53.1719 C.3       16 UNK         0.1400 
     91 CB          0.5919  -27.4514  -53.4835 C.3       16 UNK        -0.1800 
     92 C          -1.8266  -27.0709  -54.1178 C.2       16 UNK         0.5000 
     93 O          -1.9231  -27.4306  -55.2919 O.2       16 UNK        -0.5000 
     94 N          -2.5151  -26.0497  -53.5968 N.am      17 UNK        -0.5000 
     95 CA         -3.5361  -25.2622  -54.2750 C.3       17 UNK         0.1400 
     96 CB         -2.8984  -23.9972  -54.8735 C.3       17 UNK        -0.1800 
     97 C          -4.6299  -24.9100  -53.2570 C.2       17 UNK         0.5000 
     98 O          -4.3807  -24.9539  -52.0482 O.2       17 UNK        -0.5000 
     99 N          -5.8198  -24.5759  -53.7658 N.am      18 UNK        -0.5000 
    100 CA        -6.9901  -24.1965  -52.9755 C.3       18 UNK         0.1400 
    101 CB        -8.2315  -24.2873  -53.8785 C.3       18 UNK        -0.1800 
    102 C         -6.8706  -22.7792  -52.3877 C.2       18 UNK         0.5000 
    103 O         -6.0971  -21.9584  -52.8887 O.2       18 UNK        -0.5000 
    104 N         -7.7053  -22.4887  -51.3816 N.am      19 UNK        -0.5000 
    105 CA        -7.7932  -21.1828  -50.7209 C.3       19 UNK         0.1400 
    106 CB        -8.7529  -21.2780  -49.5262 C.3       19 UNK        -0.1800 
    107 C         -8.2175  -20.0477  -51.6715 C.2       19 UNK         0.5000 
    108 O         -7.7478  -18.9206  -51.5189 O.2       19 UNK        -0.5000 
    109 N         -9.0546  -20.3787  -52.6646 N.am      20 UNK        -0.5000 
    110 CA        -9.4875  -19.4745  -53.7312 C.3       20 UNK         0.1400 
    111 CB       -10.6479  -20.1275  -54.4975 C.3       20 UNK        -0.1800 
    112 C         -8.3529  -19.0861  -54.7005 C.2       20 UNK         0.5000 
    113 O         -8.3936  -17.9928  -55.2658 O.2       20 UNK        -0.5000 
    114 N         -7.3653  -19.9765  -54.8722 N.am      21 UNK        -0.5000 
    115 CA        -6.1603  -19.7258  -55.6621 C.3       21 UNK         0.1400 
    116 CB        -5.6084  -21.0579  -56.1939 C.3       21 UNK        -0.1800 
    117 C         -5.0998  -18.9792  -54.8344 C.2       21 UNK         0.5000 
    118 O         -4.4430  -18.0803  -55.3610 O.2       21 UNK        -0.5000 
    119 N         -4.9616  -19.3595  -53.5569 N.am      22 UNK        -0.5000 
    120 CA        -4.0779  -18.7163  -52.5748 C.3       22 UNK         0.1400 
    121 C         -4.4883  -17.2522  -52.2411 C.2       22 UNK         0.5000 
    122 N         -5.7626  -16.9727  -51.9983 N.am      22 UNK        -0.7600 
    123 O         -3.6469  -16.3581  -52.2243 O.2       22 UNK        -0.5000 
    124 C124       -3.9471  -19.5994  -51.3057 C.3       23 UNK        -0.0398 
    125 S125       -2.7074  -19.0743  -50.0684 S.3       23 UNK        -0.2404 
    126 C126       -1.2017  -18.8631  -51.0675 C.3       23 UNK        -0.0205 
    127 H127        2.0572  -10.0859  -51.2952 H         1 UNK         0.0600 
    128 H128        1.4859  -11.7514  -51.1621 H         1 UNK         0.0600 
    129 H129        2.7596  -11.3459  -52.3157 H         1 UNK         0.0600 
    130 H130        2.2655  -12.7589  -49.3377 H         1 UNK         0.3000 
    131 H131        5.0365  -12.8325  -48.6134 H         1 UNK         0.0600 
    132 H132        4.2524  -14.1671  -46.6605 H         1 UNK         0.0800 
    133 H133        2.5939  -13.7391  -46.9955 H         1 UNK         0.0800 
    134 H134        1.6115  -16.0165  -47.1205 H         1 UNK         0.0800 
    135 H135        1.0501  -15.1831  -48.5459 H         1 UNK         0.0800 
    136 H136       -0.3301  -16.6174  -49.8176 H         1 UNK         0.1150 
    137 H137        0.6481  -20.7497  -50.3766 H         1 UNK         0.1150 
    138 H138        3.1559  -18.2734  -47.9443 H         1 UNK         0.1150 
    139 H139        2.7304  -21.6285  -49.5980 H         1 UNK         0.0800 
    140 H140        3.9703  -20.4799  -49.1703 H         1 UNK         0.0800 
    141 H141        0.5488  -21.4246  -47.1558 H         1 UNK         0.0800 
    142 H142        1.1910  -22.8029  -48.0177 H         1 UNK         0.0800 
    143 H143        1.9900  -23.7771  -45.8184 H         1 UNK         0.0600 
    144 H144        1.0062  -21.2778  -44.7260 H         1 UNK         0.3000 
    145 H145        1.0508  -22.3574  -41.3315 H         1 UNK         0.0600 
    146 H146        2.4320  -20.3046  -41.0723 H         1 UNK         0.0600 
    147 H147        2.8551  -20.3518  -42.7825 H         1 UNK         0.0600 
    148 H148        3.3895  -21.6338  -41.7074 H         1 UNK         0.0600 
    149 H149        0.3786  -19.8553  -42.5148 H         1 UNK         0.3000 
    150 H150       -3.0409  -20.6635  -43.2928 H         1 UNK         0.0600 
    151 H151       -3.0029  -20.0798  -40.8594 H         1 UNK         0.0600 
    152 H152       -3.4343  -18.6953  -41.8507 H         1 UNK         0.0600 
    153 H153       -1.8121  -18.8229  -41.1735 H         1 UNK         0.0600 
    154 H154       -1.6302  -18.2313  -43.5858 H         1 UNK         0.3000 
    155 H155       -0.2351  -18.8681  -46.8375 H         1 UNK         0.0600 
    156 H156       -2.5317  -18.0298  -47.1837 H         1 UNK         0.0600 
    157 H157       -1.4021  -16.6835  -47.1768 H         1 UNK         0.0600 
    158 H158       -2.4140  -16.9999  -45.7668 H         1 UNK         0.0600 
    159 H159        0.0412  -16.6311  -45.1033 H         1 UNK         0.3000 
    160 H160        2.8705  -17.8457  -43.2632 H         1 UNK         0.0600 
    161 H161        2.6691  -15.4548  -45.1284 H         1 UNK         0.0600 
    162 H162        3.5798  -16.8927  -45.5840 H         1 UNK         0.0600 
    163 H163        4.0316  -15.9934  -44.1529 H         1 UNK         0.0600 
    164 H164        1.2649  -15.4094  -43.3017 H         1 UNK         0.3000 
    165 H165       -0.9293  -16.4300  -40.6976 H         1 UNK         0.0600 
    166 H166       -0.0806  -14.3669  -39.6113 H         1 UNK         0.0600 
    167 H167        1.0671  -15.6854  -39.4295 H         1 UNK         0.0600 
    168 H168        1.3724  -14.4164  -40.6061 H         1 UNK         0.0600 
    169 H169       -0.5316  -13.9772  -42.1733 H         1 UNK         0.3000 
    170 H170       -2.6614  -14.8213  -44.8874 H         1 UNK         0.0600 
    171 H171       -4.3940  -14.4782  -43.1168 H         1 UNK         0.0600 
    172 H172       -3.4687  -13.1325  -42.4616 H         1 UNK         0.0600 
    173 H173       -4.1630  -13.0286  -44.0804 H         1 UNK         0.0600 
    174 H174       -1.7718  -12.2878  -44.0769 H         1 UNK         0.3000 
    175 H175        0.6922  -12.0945  -46.3254 H         1 UNK         0.0600 
    176 H176       -0.5224  -10.6474  -43.9064 H         1 UNK         0.0600 
    177 H177        0.2713   -9.8981  -45.2839 H         1 UNK         0.0600 
    178 H178       -1.2455  -10.7426  -45.5153 H         1 UNK         0.0600 
    179 H179        2.5467  -11.7358  -45.1671 H         1 UNK         0.3000 
    180 H180        3.5076  -11.2383  -42.0595 H         1 UNK         0.0600 
    181 H181        3.4379  -13.5379  -41.2287 H         1 UNK         0.0600 
    182 H182        5.0513  -13.2160  -41.8319 H         1 UNK         0.0600 
    183 H183        3.9281  -14.1787  -42.7899 H         1 UNK         0.0600 
    184 H184        4.7883  -12.4589  -44.4326 H         1 UNK         0.3000 
    185 H185        5.3556   -9.3268  -45.9913 H         1 UNK         0.0600 
    186 H186        7.3078   -9.5536  -44.4456 H         1 UNK         0.0600 
    187 H187        7.3700  -11.2836  -44.7596 H         1 UNK         0.0600 
    188 H188        7.6964  -10.1332  -46.0568 H         1 UNK         0.0600 
    189 H189        6.0853  -11.9360  -46.7936 H         1 UNK         0.3000 
    190 H190       -0.9294  -23.0490  -44.3163 H         1 UNK         0.3000 
    191 H191       -2.9197  -23.9428  -44.1194 H         1 UNK         0.0600 
    192 H192       -3.3231  -26.3035  -44.6148 H         1 UNK         0.0600 
    193 H193       -1.6959  -26.1324  -43.9783 H         1 UNK         0.0600 
    194 H194       -1.9499  -26.3722  -45.7066 H         1 UNK         0.0600 
    195 H195       -2.3141  -22.1961  -46.3046 H         1 UNK         0.3000 
    196 H196       -2.9767  -21.3713  -48.2740 H         1 UNK         0.0600 
    197 H197       -5.5848  -21.6851  -46.7147 H         1 UNK         0.0600 
    198 H198       -4.3845  -20.4092  -46.5111 H         1 UNK         0.0600 
    199 H199       -5.3042  -20.5164  -48.0029 H         1 UNK         0.0600 
    200 H200       -3.8455  -24.1023  -50.5447 H         1 UNK         0.3000 
    201 H201       -1.5748  -23.2590  -48.7955 H         1 UNK         0.0600 
    202 H202       -0.3057  -22.8268  -50.8868 H         1 UNK         0.0600 
    203 H203       -1.6913  -21.7575  -50.7730 H         1 UNK         0.0600 
    204 H204       -1.7426  -23.1500  -51.8491 H         1 UNK         0.0600 
    205 H205       -3.3185  -25.7268  -49.2411 H         1 UNK         0.3000 
    206 H206       -3.2253  -27.9116  -49.2165 H         1 UNK         0.0600 
    207 H207       -1.3298  -27.6986  -47.6326 H         1 UNK         0.0600 
    208 H208       -1.1516  -29.1269  -48.6396 H         1 UNK         0.0600 
    209 H209       -0.1792  -27.7005  -48.9646 H         1 UNK         0.0600 
    210 H210       -0.5669  -26.8094  -51.3238 H         1 UNK         0.3000 
    211 H211       -0.9963  -28.8911  -53.3482 H         1 UNK         0.0600 
    212 H212        0.7813  -26.3903  -53.3153 H         1 UNK         0.0600 
    213 H213        0.8385  -27.6694  -54.5234 H         1 UNK         0.0600 
    214 H214        1.2839  -28.0185  -52.8605 H         1 UNK         0.0600 
    215 H215       -2.4375  -25.8672  -52.6056 H         1 UNK         0.3000 
    216 H216       -3.9900  -25.8549  -55.0722 H         1 UNK         0.0600 
    217 H217       -2.0870  -24.2496  -55.5562 H         1 UNK         0.0600 
    218 H218       -2.4945  -23.3427  -54.1010 H         1 UNK         0.0600 
    219 H219       -3.6296  -23.4223  -55.4413 H         1 UNK         0.0600 
    220 H220       -5.9274  -24.5318  -54.7681 H         1 UNK         0.3000 
    221 H221       -7.0983  -24.9045  -52.1509 H         1 UNK         0.0600 
    222 H222       -9.1433  -24.0629  -53.3237 H         1 UNK         0.0600 
    223 H223       -8.1747  -23.5874  -54.7135 H         1 UNK         0.0600 
    224 H224       -8.3465  -25.2904  -54.2900 H         1 UNK         0.0600 
    225 H225       -8.3073  -23.2137  -51.0194 H         1 UNK         0.3000 
    226 H226       -6.8021  -20.9373  -50.3378 H         1 UNK         0.0600 
    227 H227       -8.4046  -22.0153  -48.8023 H         1 UNK         0.0600 
    228 H228       -8.8234  -20.3223  -49.0052 H         1 UNK         0.0600 
    229 H229       -9.7597  -21.5591  -49.8376 H         1 UNK         0.0600 
    230 H230       -9.3933  -21.3282  -52.7083 H         1 UNK         0.3000 
    231 H231       -9.8554  -18.5561  -53.2687 H         1 UNK         0.0600 
    232 H232      -11.0138  -19.4697  -55.2870 H         1 UNK         0.0600 
    233 H233      -11.4889  -20.3379  -53.8364 H         1 UNK         0.0600 
    234 H234      -10.3447  -21.0650  -54.9655 H         1 UNK         0.0600 
    235 H235       -7.3778  -20.8296  -54.3308 H         1 UNK         0.3000 
    236 H236       -6.4156  -19.1037  -56.5228 H         1 UNK         0.0600 
    237 H237       -6.3431  -21.5675  -56.8173 H         1 UNK         0.0600 
    238 H238       -4.7196  -20.8950  -56.8047 H         1 UNK         0.0600 
    239 H239       -5.3301  -21.7330  -55.3856 H         1 UNK         0.0600 
    240 H240       -5.5010  -20.1551  -53.2301 H         1 UNK         0.3000 
    241 H241       -3.0974  -18.6689  -53.0497 H         1 UNK         0.0600 
    242 H242       -6.4673  -17.7063  -51.9519 H         1 UNK         0.3800 
    243 H243       -6.0268  -16.0226  -51.7945 H         1 UNK         0.3800 
    244 H244       -3.7064  -20.6232  -51.5962 H         1 UNK         0.0800 
    245 H245       -4.9095  -19.6577  -50.7973 H         1 UNK         0.0800 
    246 H246       -1.3049  -17.9792  -51.6985 H         1 UNK         0.0800 
    247 H247       -1.0761  -19.7114  -51.7413 H         1 UNK         0.0800 
@<TRIPOS>BOND
     1    1    2 1    
     2    1  127 1    
     3    1  128 1    
     4    1  129 1    
     5    2    3 2    
     6    2    4 am   BACKBONE|DICT|INTERRES
     7    4    5 1    
     8    4  130 1    
     9    5    6 1    
    10    5   65 1    
    11    5  131 1    
    12    6    7 1    
    13    6  132 1    
    14    6  133 1    
    15    7    8 1    
    16    8    9 1    
    17    8  134 1    
    18    8  135 1    
    19    9   10 ar   
    20    9   14 ar   
    21   10   11 ar   
    22   10  136 1    
    23   11   12 ar   
    24   11  126 1    
    25   12   13 ar   
    26   12  137 1    
    27   13   14 ar   
    28   13   15 1    
    29   14  138 1    
    30   15   16 1    
    31   15  139 1    
    32   15  140 1    
    33   16   17 1    
    34   17   18 1    
    35   17  141 1    
    36   17  142 1    
    37   18   19 1    
    38   18   67 1    
    39   18  143 1    
    40   19   20 am   BACKBONE|DICT|INTERRES
    41   19  144 1    
    42   20   21 2    
    43   20   22 1    
    44   22   23 1    
    45   22   24 1    
    46   22  145 1    
    47   23  146 1    
    48   23  147 1    
    49   23  148 1    
    50   24   25 am   BACKBONE|DICT|INTERRES
    51   24  149 1    
    52   25   26 2    
    53   25   27 1    
    54   27   28 1    
    55   27   29 1    
    56   27  150 1    
    57   28  151 1    
    58   28  152 1    
    59   28  153 1    
    60   29   30 am   BACKBONE|DICT|INTERRES
    61   29  154 1    
    62   30   31 2    
    63   30   32 1    
    64   32   33 1    
    65   32   34 1    
    66   32  155 1    
    67   33  156 1    
    68   33  157 1    
    69   33  158 1    
    70   34   35 am   BACKBONE|DICT|INTERRES
    71   34  159 1    
    72   35   36 2    
    73   35   37 1    
    74   37   38 1    
    75   37   39 1    
    76   37  160 1    
    77   38  161 1    
    78   38  162 1    
    79   38  163 1    
    80   39   40 am   BACKBONE|DICT|INTERRES
    81   39  164 1    
    82   40   41 2    
    83   40   42 1    
    84   42   43 1    
    85   42   44 1    
    86   42  165 1    
    87   43  166 1    
    88   43  167 1    
    89   43  168 1    
    90   44   45 am   BACKBONE|DICT|INTERRES
    91   44  169 1    
    92   45   46 2    
    93   45   47 1    
    94   47   48 1    
    95   47   49 1    
    96   47  170 1    
    97   48  171 1    
    98   48  172 1    
    99   48  173 1    
   100   49   50 am   BACKBONE|DICT|INTERRES
   101   49  174 1    
   102   50   51 2    
   103   50   52 1    
   104   52   53 1    
   105   52   54 1    
   106   52  175 1    
   107   53  176 1    
   108   53  177 1    
   109   53  178 1    
   110   54   55 am   BACKBONE|DICT|INTERRES
   111   54  179 1    
   112   55   56 2    
   113   55   57 1    
   114   57   58 1    
   115   57   59 1    
   116   57  180 1    
   117   58  181 1    
   118   58  182 1    
   119   58  183 1    
   120   59   60 am   BACKBONE|DICT|INTERRES
   121   59  184 1    
   122   60   61 2    
   123   60   62 1    
   124   62   63 1    
   125   62   64 1    
   126   62  185 1    
   127   63  186 1    
   128   63  187 1    
   129   63  188 1    
   130   64   65 am   BACKBONE|DICT|INTERRES
   131   64  189 1    
   132   65   66 2    
   133   67   68 2    
   134   67   69 am   BACKBONE|DICT|INTERRES
   135   69   70 1    
   136   69  190 1    
   137   70   71 1    
   138   70   72 1    
   139   70  191 1    
   140   71  192 1    
   141   71  193 1    
   142   71  194 1    
   143   72   73 2    
   144   72   74 am   BACKBONE|DICT|INTERRES
   145   74   75 1    
   146   74  195 1    
   147   75   76 1    
   148   75   77 1    
   149   75  196 1    
   150   76  197 1    
   151   76  198 1    
   152   76  199 1    
   153   77   78 2    
   154   77   79 am   BACKBONE|DICT|INTERRES
   155   79   80 1    
   156   79  200 1    
   157   80   81 1    
   158   80   82 1    
   159   80  201 1    
   160   81  202 1    
   161   81  203 1    
   162   81  204 1    
   163   82   83 2    
   164   82   84 am   BACKBONE|DICT|INTERRES
   165   84   85 1    
   166   84  205 1    
   167   85   86 1    
   168   85   87 1    
   169   85  206 1    
   170   86  207 1    
   171   86  208 1    
   172   86  209 1    
   173   87   88 2    
   174   87   89 am   BACKBONE|DICT|INTERRES
   175   89   90 1    
   176   89  210 1    
   177   90   91 1    
   178   90   92 1    
   179   90  211 1    
   180   91  212 1    
   181   91  213 1    
   182   91  214 1    
   183   92   93 2    
   184   92   94 am   BACKBONE|DICT|INTERRES
   185   94   95 1    
   186   94  215 1    
   187   95   96 1    
   188   95   97 1    
   189   95  216 1    
   190   96  217 1    
   191   96  218 1    
   192   96  219 1    
   193   97   98 2    
   194   97   99 am   BACKBONE|DICT|INTERRES
   195   99  100 1    
   196   99  220 1    
   197  100  101 1    
   198  100  102 1    
   199  100  221 1    
   200  101  222 1    
   201  101  223 1    
   202  101  224 1    
   203  102  103 2    
   204  102  104 am   BACKBONE|DICT|INTERRES
   205  104  105 1    
   206  104  225 1    
   207  105  106 1    
   208  105  107 1    
   209  105  226 1    
   210  106  227 1    
   211  106  228 1    
   212  106  229 1    
   213  107  108 2    
   214  107  109 am   BACKBONE|DICT|INTERRES
   215  109  110 1    
   216  109  230 1    
   217  110  111 1    
   218  110  112 1    
   219  110  231 1    
   220  111  232 1    
   221  111  233 1    
   222  111  234 1    
   223  112  113 2    
   224  112  114 am   BACKBONE|DICT|INTERRES
   225  114  115 1    
   226  114  235 1    
   227  115  116 1    
   228  115  117 1    
   229  115  236 1    
   230  116  237 1    
   231  116  238 1    
   232  116  239 1    
   233  117  118 2    
   234  117  119 am   BACKBONE|DICT|INTERRES
   235  119  120 1    
   236  119  240 1    
   237  120  121 1    
   238  120  124 1    
   239  120  241 1    
   240  121  122 am   BACKBONE|DICT|INTERRES
   241  121  123 2    
   242  122  242 1    
   243  122  243 1    
   244  124  125 1    
   245  124  244 1    
   246  124  245 1    
   247  125  126 1    
   248  126  246 1    
   249  126  247 1    
@<TRIPOS>SUBSTRUCTURE
     1 UNK         1 GROUP             0       ****    0 ROOT    
