@<TRIPOS>MOLECULE
3R540
247   249    1
SMALL
USER_CHARGES


@<TRIPOS>ATOM
      1 CA          2.1046  -14.1668  -44.5517 C.3       0 UNK        -0.1800 
      2 C           2.1115  -14.1296  -46.0713 C.2       0 UNK         0.5000 
      3 O           3.1782  -14.2060  -46.6784 O.2       0 UNK        -0.5000 
      4 N           0.9273  -14.0151  -46.6883 N.am      1 UNK        -0.5000 
      5 CA          0.7328  -13.8608  -48.1377 C.3       1 UNK         0.1400 
      6 C6         -0.7438  -13.5202  -48.4647 C.3       23 UNK        -0.0398 
      7 S7         -0.9418  -12.6731  -50.0729 S.3       23 UNK        -0.2404 
      8 C8         -2.3754  -13.5294  -50.8065 C.3       23 UNK        -0.0205 
      9 C9         -2.1369  -15.0224  -50.9686 C.ar      23 UNK        -0.0193 
     10 C10        -1.1942  -15.4913  -51.8851 C.ar      23 UNK        -0.1150 
     11 C11        -0.9382  -16.8597  -52.0055 C.ar      23 UNK        -0.0193 
     12 C12        -1.6379  -17.7622  -51.1984 C.ar      23 UNK        -0.1150 
     13 C13        -2.5772  -17.3038  -50.2681 C.ar      23 UNK        -0.0193 
     14 C14        -2.8366  -15.9343  -50.1763 C.ar      23 UNK        -0.1150 
     15 C15        -3.2880  -18.2782  -49.3389 C.3       23 UNK        -0.0205 
     16 S16        -2.9917  -17.8627  -47.5886 S.3       23 UNK        -0.2404 
     17 C17        -3.5988  -19.3616  -46.7455 C.3       23 UNK        -0.0398 
     18 CA         -2.4451  -20.3558  -46.4903 C.3       11 UNK         0.1400 
     19 N          -1.4172  -19.8233  -45.5958 N.am      11 UNK        -0.5000 
     20 C          -0.1806  -20.3280  -45.5058 C.2       10 UNK         0.5000 
     21 O           0.1991  -21.3193  -46.1273 O.2       10 UNK        -0.5000 
     22 CA          0.7825  -19.6244  -44.5398 C.3       10 UNK         0.1400 
     23 CB          1.1754  -18.2328  -45.0729 C.3       10 UNK        -0.1800 
     24 N           0.2218  -19.5041  -43.1963 N.am      10 UNK        -0.5000 
     25 C          -0.1616  -20.5297  -42.4219 C.2       9 UNK         0.5000 
     26 O          -0.0888  -21.7128  -42.7549 O.2       9 UNK        -0.5000 
     27 CA         -0.7680  -20.1638  -41.0574 C.3       9 UNK         0.1400 
     28 CB          0.3332  -19.8286  -40.0389 C.3       9 UNK        -0.1800 
     29 N          -1.7007  -19.0423  -41.1604 N.am      9 UNK        -0.5000 
     30 C          -2.8914  -19.1023  -41.7739 C.2       8 UNK         0.5000 
     31 O          -3.3502  -20.1216  -42.2872 O.2       8 UNK        -0.5000 
     32 CA         -3.6781  -17.7836  -41.8732 C.3       8 UNK         0.1400 
     33 CB         -4.4024  -17.4779  -40.5535 C.3       8 UNK        -0.1800 
     34 N          -2.8235  -16.6525  -42.2351 N.am      8 UNK        -0.5000 
     35 C          -2.1636  -16.5495  -43.3969 C.2       7 UNK         0.5000 
     36 O          -2.2256  -17.3838  -44.2984 O.2       7 UNK        -0.5000 
     37 CA         -1.2316  -15.3374  -43.5543 C.3       7 UNK         0.1400 
     38 CB         -2.0050  -14.1185  -44.0784 C.3       7 UNK        -0.1800 
     39 N          -0.5207  -14.9803  -42.3216 N.am      7 UNK        -0.5000 
     40 C           0.3587  -15.7785  -41.7024 C.2       6 UNK         0.5000 
     41 O           0.6079  -16.9312  -42.0613 O.2       6 UNK        -0.5000 
     42 CA          1.0714  -15.2135  -40.4717 C.3       6 UNK         0.1400 
     43 CB          0.3010  -15.5587  -39.1867 C.3       6 UNK        -0.1800 
     44 N           2.4036  -15.8039  -40.4253 N.am      6 UNK        -0.5000 
     45 C           3.5003  -15.2182  -39.9348 C.2       5 UNK         0.5000 
     46 O           3.4968  -14.1142  -39.3883 O.2       5 UNK        -0.5000 
     47 CA          4.8310  -15.9871  -40.0735 C.3       5 UNK         0.1400 
     48 CB          5.1518  -16.7334  -38.7690 C.3       5 UNK        -0.1800 
     49 N           4.8755  -16.9424  -41.1871 N.am      5 UNK        -0.5000 
     50 C           4.8471  -16.6142  -42.4858 C.2       4 UNK         0.5000 
     51 O           4.7279  -15.4565  -42.8946 O.2       4 UNK        -0.5000 
     52 CA          4.9888  -17.7690  -43.4938 C.3       4 UNK         0.1400 
     53 CB          4.0515  -18.9513  -43.1758 C.3       4 UNK        -0.1800 
     54 N           4.7627  -17.2464  -44.8426 N.am      4 UNK        -0.5000 
     55 C           5.2657  -17.7637  -45.9696 C.2       3 UNK         0.5000 
     56 O           5.8166  -18.8646  -46.0294 O.2       3 UNK        -0.5000 
     57 CA          5.1691  -16.8686  -47.2215 C.3       3 UNK         0.1400 
     58 CB          6.2393  -17.1963  -48.2851 C.3       3 UNK        -0.1800 
     59 N           3.8239  -16.8379  -47.8034 N.am      3 UNK        -0.5000 
     60 C           3.1694  -17.8179  -48.4472 C.2       2 UNK         0.5000 
     61 O           3.6309  -18.9450  -48.6252 O.2       2 UNK        -0.5000 
     62 CA          1.7579  -17.4937  -48.9922 C.3       2 UNK         0.1400 
     63 CB          0.7838  -18.6649  -48.7759 C.3       2 UNK        -0.1800 
     64 N           1.1916  -16.2722  -48.4065 N.am      2 UNK        -0.5000 
     65 C           1.2710  -15.0547  -48.9652 C.2       1 UNK         0.5000 
     66 O           1.8050  -14.8426  -50.0545 O.2       1 UNK        -0.5000 
     67 C          -2.9611  -21.7333  -46.0361 C.2       11 UNK         0.5000 
     68 O          -3.3222  -22.5330  -46.8981 O.2       11 UNK        -0.5000 
     69 N          -2.9434  -22.0236  -44.7261 N.am      12 UNK        -0.5000 
     70 CA         -3.2277  -23.3586  -44.1942 C.3       12 UNK         0.1400 
     71 CB         -3.3826  -23.3064  -42.6672 C.3       12 UNK        -0.1800 
     72 C          -2.1538  -24.3831  -44.6028 C.2       12 UNK         0.5000 
     73 O          -2.5015  -25.4702  -45.0644 O.2       12 UNK        -0.5000 
     74 N          -0.8742  -24.0044  -44.4681 N.am      13 UNK        -0.5000 
     75 CA          0.2781  -24.8165  -44.8649 C.3       13 UNK         0.1400 
     76 CB          1.5674  -24.1684  -44.3375 C.3       13 UNK        -0.1800 
     77 C           0.3604  -25.0380  -46.3872 C.2       13 UNK         0.5000 
     78 O           0.6646  -26.1479  -46.8254 O.2       13 UNK        -0.5000 
     79 N           0.0641  -23.9872  -47.1632 N.am      14 UNK        -0.5000 
     80 CA          0.0467  -24.0053  -48.6270 C.3       14 UNK         0.1400 
     81 CB          0.1668  -22.5604  -49.1413 C.3       14 UNK        -0.1800 
     82 C          -1.2030  -24.6776  -49.2302 C.2       14 UNK         0.5000 
     83 O          -1.2341  -24.8766  -50.4445 O.2       14 UNK        -0.5000 
     84 N          -2.2225  -24.9631  -48.4041 N.am      15 UNK        -0.5000 
     85 CA         -3.5512  -25.4712  -48.7739 C.3       15 UNK         0.1400 
     86 CB         -3.4585  -26.9185  -49.2990 C.3       15 UNK        -0.1800 
     87 C          -4.2767  -24.5181  -49.7483 C.2       15 UNK         0.5000 
     88 O          -4.7740  -24.9410  -50.7940 O.2       15 UNK        -0.5000 
     89 N          -4.2452  -23.2206  -49.4092 N.am      16 UNK        -0.5000 
     90 CA         -4.7170  -22.0714  -50.1903 C.3       16 UNK         0.1400 
     91 CB         -6.2552  -22.0556  -50.2519 C.3       16 UNK        -0.1800 
     92 C          -4.0589  -21.9795  -51.5847 C.2       16 UNK         0.5000 
     93 O          -4.7050  -21.5632  -52.5499 O.2       16 UNK        -0.5000 
     94 N          -2.7998  -22.4373  -51.6681 N.am      17 UNK        -0.5000 
     95 CA         -1.9746  -22.6110  -52.8702 C.3       17 UNK         0.1400 
     96 CB         -1.6451  -21.2410  -53.4955 C.3       17 UNK        -0.1800 
     97 C          -2.5658  -23.5981  -53.9029 C.2       17 UNK         0.5000 
     98 O          -2.1326  -23.5963  -55.0558 O.2       17 UNK        -0.5000 
     99 N          -3.5683  -24.3922  -53.4879 N.am      18 UNK        -0.5000 
    100 CA        -4.4448  -25.2356  -54.3091 C.3       18 UNK         0.1400 
    101 CB        -3.6573  -26.4145  -54.9166 C.3       18 UNK        -0.1800 
    102 C         -5.2464  -24.4407  -55.3686 C.2       18 UNK         0.5000 
    103 O         -5.7019  -25.0253  -56.3532 O.2       18 UNK        -0.5000 
    104 N         -5.3954  -23.1254  -55.1557 N.am      19 UNK        -0.5000 
    105 CA        -5.9494  -22.1698  -56.1164 C.3       19 UNK         0.1400 
    106 CB        -4.7931  -21.2987  -56.6399 C.3       19 UNK        -0.1800 
    107 C         -7.0542  -21.2875  -55.5085 C.2       19 UNK         0.5000 
    108 O         -7.6199  -20.4673  -56.2319 O.2       19 UNK        -0.5000 
    109 N         -7.3316  -21.4563  -54.2053 N.am      20 UNK        -0.5000 
    110 CA        -8.1680  -20.5913  -53.3640 C.3       20 UNK         0.1400 
    111 CB        -9.6376  -20.5770  -53.8378 C.3       20 UNK        -0.1800 
    112 C         -7.5438  -19.1856  -53.2205 C.2       20 UNK         0.5000 
    113 O         -8.2260  -18.1797  -53.4245 O.2       20 UNK        -0.5000 
    114 N         -6.2453  -19.1792  -52.8789 N.am      21 UNK        -0.5000 
    115 CA        -5.2973  -18.0615  -52.8192 C.3       21 UNK         0.1400 
    116 CB        -5.8419  -16.8563  -52.0264 C.3       21 UNK        -0.1800 
    117 C         -4.7899  -17.6515  -54.2138 C.2       21 UNK         0.5000 
    118 O         -5.4851  -17.8274  -55.2164 O.2       21 UNK        -0.5000 
    119 N         -3.5586  -17.1321  -54.2515 N.am      22 UNK        -0.5000 
    120 CA        -2.8690  -16.7122  -55.4803 C.3       22 UNK         0.1400 
    121 C         -3.4864  -15.4317  -56.1079 C.2       22 UNK         0.5000 
    122 N         -3.5096  -15.3311  -57.4301 N.am      22 UNK        -0.7600 
    123 O         -3.9018  -14.5096  -55.4092 O.2       22 UNK        -0.5000 
    124 C124       -1.3464  -16.5252  -55.2581 C.3       23 UNK        -0.0398 
    125 S125       -0.5519  -17.9995  -54.5266 S.3       23 UNK        -0.2404 
    126 C126        0.1338  -17.3521  -52.9676 C.3       23 UNK        -0.0205 
    127 H127        2.1217  -15.1968  -44.1973 H         1 UNK         0.0600 
    128 H128        1.2255  -13.6684  -44.1457 H         1 UNK         0.0600 
    129 H129        2.9842  -13.6574  -44.1580 H         1 UNK         0.0600 
    130 H130        0.0895  -13.9531  -46.1301 H         1 UNK         0.3000 
    131 H131        1.3378  -12.9962  -48.4205 H         1 UNK         0.0600 
    132 H132       -1.1411  -12.8359  -47.7138 H         1 UNK         0.0800 
    133 H133       -1.3678  -14.4119  -48.4040 H         1 UNK         0.0800 
    134 H134       -2.5866  -13.0939  -51.7842 H         1 UNK         0.0800 
    135 H135       -3.2563  -13.3408  -50.1907 H         1 UNK         0.0800 
    136 H136       -0.6377  -14.7823  -52.4818 H         1 UNK         0.1150 
    137 H137       -1.4239  -18.8185  -51.2716 H         1 UNK         0.1150 
    138 H138       -3.5596  -15.5773  -49.4561 H         1 UNK         0.1150 
    139 H139       -4.3593  -18.2639  -49.5426 H         1 UNK         0.0800 
    140 H140       -2.9393  -19.2942  -49.5255 H         1 UNK         0.0800 
    141 H141       -4.3869  -19.8137  -47.3505 H         1 UNK         0.0800 
    142 H142       -4.0638  -19.0666  -45.8032 H         1 UNK         0.0800 
    143 H143       -1.9635  -20.5278  -47.4549 H         1 UNK         0.0600 
    144 H144       -1.6628  -18.9883  -45.0670 H         1 UNK         0.3000 
    145 H145        1.6838  -20.2342  -44.4604 H         1 UNK         0.0600 
    146 H146        1.6647  -17.6225  -44.3180 H         1 UNK         0.0600 
    147 H147        1.8826  -18.3288  -45.8938 H         1 UNK         0.0600 
    148 H148        0.3152  -17.6698  -45.4353 H         1 UNK         0.0600 
    149 H149        0.1616  -18.5629  -42.8161 H         1 UNK         0.3000 
    150 H150       -1.3179  -21.0330  -40.6906 H         1 UNK         0.0600 
    151 H151        1.0219  -20.6663  -39.9226 H         1 UNK         0.0600 
    152 H152       -0.0895  -19.6171  -39.0567 H         1 UNK         0.0600 
    153 H153        0.9216  -18.9629  -40.3436 H         1 UNK         0.0600 
    154 H154       -1.3773  -18.1502  -40.8185 H         1 UNK         0.3000 
    155 H155       -4.4296  -17.9028  -42.6568 H         1 UNK         0.0600 
    156 H156       -3.7006  -17.3154  -39.7345 H         1 UNK         0.0600 
    157 H157       -5.0557  -18.3033  -40.2675 H         1 UNK         0.0600 
    158 H158       -5.0257  -16.5880  -40.6433 H         1 UNK         0.0600 
    159 H159       -2.7078  -15.9237  -41.5469 H         1 UNK         0.3000 
    160 H160       -0.4830  -15.6079  -44.3007 H         1 UNK         0.0600 
    161 H161       -2.7638  -13.7882  -43.3680 H         1 UNK         0.0600 
    162 H162       -2.5131  -14.3524  -45.0153 H         1 UNK         0.0600 
    163 H163       -1.3394  -13.2772  -44.2710 H         1 UNK         0.0600 
    164 H164       -0.6889  -14.0543  -41.9551 H         1 UNK         0.3000 
    165 H165        1.1485  -14.1295  -40.5788 H         1 UNK         0.0600 
    166 H166        0.8024  -15.1547  -38.3071 H         1 UNK         0.0600 
    167 H167       -0.7056  -15.1397  -39.2076 H         1 UNK         0.0600 
    168 H168        0.2076  -16.6371  -39.0511 H         1 UNK         0.0600 
    169 H169        2.4845  -16.6902  -40.9061 H         1 UNK         0.3000 
    170 H170        5.6148  -15.2455  -40.2414 H         1 UNK         0.0600 
    171 H171        5.1595  -16.0501  -37.9187 H         1 UNK         0.0600 
    172 H172        4.4152  -17.5100  -38.5589 H         1 UNK         0.0600 
    173 H173        6.1343  -17.2037  -38.8137 H         1 UNK         0.0600 
    174 H174        4.9741  -17.9147  -40.9338 H         1 UNK         0.3000 
    175 H175        6.0222  -18.1171  -43.4350 H         1 UNK         0.0600 
    176 H176        3.0532  -18.6177  -42.8973 H         1 UNK         0.0600 
    177 H177        3.9630  -19.6346  -44.0199 H         1 UNK         0.0600 
    178 H178        4.4350  -19.5336  -42.3378 H         1 UNK         0.0600 
    179 H179        4.3792  -16.3089  -44.8532 H         1 UNK         0.3000 
    180 H180        5.3710  -15.8495  -46.8881 H         1 UNK         0.0600 
    181 H181        6.1440  -18.2115  -48.6704 H         1 UNK         0.0600 
    182 H182        7.2412  -17.1046  -47.8645 H         1 UNK         0.0600 
    183 H183        6.1778  -16.5100  -49.1297 H         1 UNK         0.0600 
    184 H184        3.3476  -15.9498  -47.6863 H         1 UNK         0.3000 
    185 H185        1.8585  -17.3604  -50.0712 H         1 UNK         0.0600 
    186 H186        0.9993  -19.4798  -49.4676 H         1 UNK         0.0600 
    187 H187        0.8542  -19.0729  -47.7726 H         1 UNK         0.0600 
    188 H188       -0.2497  -18.3665  -48.9342 H         1 UNK         0.0600 
    189 H189        0.7576  -16.3618  -47.5003 H         1 UNK         0.3000 
    190 H190       -2.6675  -21.3136  -44.0587 H         1 UNK         0.3000 
    191 H191       -4.1792  -23.6929  -44.6132 H         1 UNK         0.0600 
    192 H192       -2.4900  -22.9118  -42.1817 H         1 UNK         0.0600 
    193 H193       -3.5667  -24.3007  -42.2585 H         1 UNK         0.0600 
    194 H194       -4.2262  -22.6790  -42.3801 H         1 UNK         0.0600 
    195 H195       -0.6677  -23.1000  -44.0535 H         1 UNK         0.3000 
    196 H196        0.1748  -25.7959  -44.3932 H         1 UNK         0.0600 
    197 H197        2.4423  -24.7619  -44.6057 H         1 UNK         0.0600 
    198 H198        1.5500  -24.0864  -43.2506 H         1 UNK         0.0600 
    199 H199        1.7113  -23.1668  -44.7443 H         1 UNK         0.0600 
    200 H200       -0.0942  -23.0853  -46.7191 H         1 UNK         0.3000 
    201 H201        0.9175  -24.5634  -48.9770 H         1 UNK         0.0600 
    202 H202        1.0617  -22.0755  -48.7503 H         1 UNK         0.0600 
    203 H203       -0.6932  -21.9575  -48.8503 H         1 UNK         0.0600 
    204 H204        0.2350  -22.5321  -50.2294 H         1 UNK         0.0600 
    205 H205       -2.1070  -24.7303  -47.4267 H         1 UNK         0.3000 
    206 H206       -4.1425  -25.4862  -47.8572 H         1 UNK         0.0600 
    207 H207       -4.4520  -27.3348  -49.4698 H         1 UNK         0.0600 
    208 H208       -2.9542  -27.5652  -48.5810 H         1 UNK         0.0600 
    209 H209       -2.9146  -26.9763  -50.2423 H         1 UNK         0.0600 
    210 H210       -3.8304  -22.9907  -48.5053 H         1 UNK         0.3000 
    211 H211       -4.4013  -21.1844  -49.6419 H         1 UNK         0.0600 
    212 H212       -6.6144  -21.1003  -50.6326 H         1 UNK         0.0600 
    213 H213       -6.6907  -22.1882  -49.2615 H         1 UNK         0.0600 
    214 H214       -6.6444  -22.8438  -50.8974 H         1 UNK         0.0600 
    215 H215       -2.3998  -22.8335  -50.8294 H         1 UNK         0.3000 
    216 H216       -1.0362  -23.0556  -52.5367 H         1 UNK         0.0600 
    217 H217       -0.9461  -21.3428  -54.3262 H         1 UNK         0.0600 
    218 H218       -1.1759  -20.5824  -52.7663 H         1 UNK         0.0600 
    219 H219       -2.5340  -20.7396  -53.8792 H         1 UNK         0.0600 
    220 H220       -3.8308  -24.3505  -52.5082 H         1 UNK         0.3000 
    221 H221       -5.1847  -25.6522  -53.6244 H         1 UNK         0.0600 
    222 H222       -2.9462  -26.0810  -55.6727 H         1 UNK         0.0600 
    223 H223       -3.1030  -26.9544  -54.1488 H         1 UNK         0.0600 
    224 H224       -4.3284  -27.1299  -55.3932 H         1 UNK         0.0600 
    225 H225       -4.9827  -22.7255  -54.3205 H         1 UNK         0.3000 
    226 H226       -6.3995  -22.6923  -56.9626 H         1 UNK         0.0600 
    227 H227       -4.0175  -21.9091  -57.1029 H         1 UNK         0.0600 
    228 H228       -5.1409  -20.5893  -57.3918 H         1 UNK         0.0600 
    229 H229       -4.3305  -20.7238  -55.8361 H         1 UNK         0.0600 
    230 H230       -6.8081  -22.1645  -53.7113 H         1 UNK         0.3000 
    231 H231       -8.1635  -21.0354  -52.3688 H         1 UNK         0.0600 
    232 H232      -10.0290  -21.5892  -53.9386 H         1 UNK         0.0600 
    233 H233       -9.7573  -20.0732  -54.7969 H         1 UNK         0.0600 
    234 H234      -10.2693  -20.0547  -53.1186 H         1 UNK         0.0600 
    235 H235       -5.7969  -20.0883  -52.7948 H         1 UNK         0.3000 
    236 H236       -4.4394  -18.4550  -52.2724 H         1 UNK         0.0600 
    237 H237       -5.0639  -16.1077  -51.8789 H         1 UNK         0.0600 
    238 H238       -6.6590  -16.3573  -52.5467 H         1 UNK         0.0600 
    239 H239       -6.1984  -17.1563  -51.0412 H         1 UNK         0.0600 
    240 H240       -3.0428  -16.9994  -53.3933 H         1 UNK         0.3000 
    241 H241       -2.9928  -17.5234  -56.2011 H         1 UNK         0.0600 
    242 H242       -3.8931  -14.4984  -57.8502 H         1 UNK         0.3800 
    243 H243       -3.1688  -16.0707  -58.0251 H         1 UNK         0.3800 
    244 H244       -0.8529  -16.3296  -56.2116 H         1 UNK         0.0800 
    245 H245       -1.1513  -15.6481  -54.6419 H         1 UNK         0.0800 
    246 H246        0.7119  -18.1422  -52.4862 H         1 UNK         0.0800 
    247 H247        0.8439  -16.5540  -53.1901 H         1 UNK         0.0800 
@<TRIPOS>BOND
     1    1    2 1    
     2    1  127 1    
     3    1  128 1    
     4    1  129 1    
     5    2    3 2    
     6    2    4 am   BACKBONE|DICT|INTERRES
     7    4    5 1    
     8    4  130 1    
     9    5    6 1    
    10    5   65 1    
    11    5  131 1    
    12    6    7 1    
    13    6  132 1    
    14    6  133 1    
    15    7    8 1    
    16    8    9 1    
    17    8  134 1    
    18    8  135 1    
    19    9   10 ar   
    20    9   14 ar   
    21   10   11 ar   
    22   10  136 1    
    23   11   12 ar   
    24   11  126 1    
    25   12   13 ar   
    26   12  137 1    
    27   13   14 ar   
    28   13   15 1    
    29   14  138 1    
    30   15   16 1    
    31   15  139 1    
    32   15  140 1    
    33   16   17 1    
    34   17   18 1    
    35   17  141 1    
    36   17  142 1    
    37   18   19 1    
    38   18   67 1    
    39   18  143 1    
    40   19   20 am   BACKBONE|DICT|INTERRES
    41   19  144 1    
    42   20   21 2    
    43   20   22 1    
    44   22   23 1    
    45   22   24 1    
    46   22  145 1    
    47   23  146 1    
    48   23  147 1    
    49   23  148 1    
    50   24   25 am   BACKBONE|DICT|INTERRES
    51   24  149 1    
    52   25   26 2    
    53   25   27 1    
    54   27   28 1    
    55   27   29 1    
    56   27  150 1    
    57   28  151 1    
    58   28  152 1    
    59   28  153 1    
    60   29   30 am   BACKBONE|DICT|INTERRES
    61   29  154 1    
    62   30   31 2    
    63   30   32 1    
    64   32   33 1    
    65   32   34 1    
    66   32  155 1    
    67   33  156 1    
    68   33  157 1    
    69   33  158 1    
    70   34   35 am   BACKBONE|DICT|INTERRES
    71   34  159 1    
    72   35   36 2    
    73   35   37 1    
    74   37   38 1    
    75   37   39 1    
    76   37  160 1    
    77   38  161 1    
    78   38  162 1    
    79   38  163 1    
    80   39   40 am   BACKBONE|DICT|INTERRES
    81   39  164 1    
    82   40   41 2    
    83   40   42 1    
    84   42   43 1    
    85   42   44 1    
    86   42  165 1    
    87   43  166 1    
    88   43  167 1    
    89   43  168 1    
    90   44   45 am   BACKBONE|DICT|INTERRES
    91   44  169 1    
    92   45   46 2    
    93   45   47 1    
    94   47   48 1    
    95   47   49 1    
    96   47  170 1    
    97   48  171 1    
    98   48  172 1    
    99   48  173 1    
   100   49   50 am   BACKBONE|DICT|INTERRES
   101   49  174 1    
   102   50   51 2    
   103   50   52 1    
   104   52   53 1    
   105   52   54 1    
   106   52  175 1    
   107   53  176 1    
   108   53  177 1    
   109   53  178 1    
   110   54   55 am   BACKBONE|DICT|INTERRES
   111   54  179 1    
   112   55   56 2    
   113   55   57 1    
   114   57   58 1    
   115   57   59 1    
   116   57  180 1    
   117   58  181 1    
   118   58  182 1    
   119   58  183 1    
   120   59   60 am   BACKBONE|DICT|INTERRES
   121   59  184 1    
   122   60   61 2    
   123   60   62 1    
   124   62   63 1    
   125   62   64 1    
   126   62  185 1    
   127   63  186 1    
   128   63  187 1    
   129   63  188 1    
   130   64   65 am   BACKBONE|DICT|INTERRES
   131   64  189 1    
   132   65   66 2    
   133   67   68 2    
   134   67   69 am   BACKBONE|DICT|INTERRES
   135   69   70 1    
   136   69  190 1    
   137   70   71 1    
   138   70   72 1    
   139   70  191 1    
   140   71  192 1    
   141   71  193 1    
   142   71  194 1    
   143   72   73 2    
   144   72   74 am   BACKBONE|DICT|INTERRES
   145   74   75 1    
   146   74  195 1    
   147   75   76 1    
   148   75   77 1    
   149   75  196 1    
   150   76  197 1    
   151   76  198 1    
   152   76  199 1    
   153   77   78 2    
   154   77   79 am   BACKBONE|DICT|INTERRES
   155   79   80 1    
   156   79  200 1    
   157   80   81 1    
   158   80   82 1    
   159   80  201 1    
   160   81  202 1    
   161   81  203 1    
   162   81  204 1    
   163   82   83 2    
   164   82   84 am   BACKBONE|DICT|INTERRES
   165   84   85 1    
   166   84  205 1    
   167   85   86 1    
   168   85   87 1    
   169   85  206 1    
   170   86  207 1    
   171   86  208 1    
   172   86  209 1    
   173   87   88 2    
   174   87   89 am   BACKBONE|DICT|INTERRES
   175   89   90 1    
   176   89  210 1    
   177   90   91 1    
   178   90   92 1    
   179   90  211 1    
   180   91  212 1    
   181   91  213 1    
   182   91  214 1    
   183   92   93 2    
   184   92   94 am   BACKBONE|DICT|INTERRES
   185   94   95 1    
   186   94  215 1    
   187   95   96 1    
   188   95   97 1    
   189   95  216 1    
   190   96  217 1    
   191   96  218 1    
   192   96  219 1    
   193   97   98 2    
   194   97   99 am   BACKBONE|DICT|INTERRES
   195   99  100 1    
   196   99  220 1    
   197  100  101 1    
   198  100  102 1    
   199  100  221 1    
   200  101  222 1    
   201  101  223 1    
   202  101  224 1    
   203  102  103 2    
   204  102  104 am   BACKBONE|DICT|INTERRES
   205  104  105 1    
   206  104  225 1    
   207  105  106 1    
   208  105  107 1    
   209  105  226 1    
   210  106  227 1    
   211  106  228 1    
   212  106  229 1    
   213  107  108 2    
   214  107  109 am   BACKBONE|DICT|INTERRES
   215  109  110 1    
   216  109  230 1    
   217  110  111 1    
   218  110  112 1    
   219  110  231 1    
   220  111  232 1    
   221  111  233 1    
   222  111  234 1    
   223  112  113 2    
   224  112  114 am   BACKBONE|DICT|INTERRES
   225  114  115 1    
   226  114  235 1    
   227  115  116 1    
   228  115  117 1    
   229  115  236 1    
   230  116  237 1    
   231  116  238 1    
   232  116  239 1    
   233  117  118 2    
   234  117  119 am   BACKBONE|DICT|INTERRES
   235  119  120 1    
   236  119  240 1    
   237  120  121 1    
   238  120  124 1    
   239  120  241 1    
   240  121  122 am   BACKBONE|DICT|INTERRES
   241  121  123 2    
   242  122  242 1    
   243  122  243 1    
   244  124  125 1    
   245  124  244 1    
   246  124  245 1    
   247  125  126 1    
   248  126  246 1    
   249  126  247 1    
@<TRIPOS>SUBSTRUCTURE
     1 UNK         1 GROUP             0       ****    0 ROOT    
