@<TRIPOS>MOLECULE
3R540
247   249    1
SMALL
USER_CHARGES


@<TRIPOS>ATOM
      1 CA          3.2006  -15.2142  -51.0837 C.3       0 UNK        -0.1800 
      2 C           1.9385  -14.9531  -50.2734 C.2       0 UNK         0.5000 
      3 O           1.1579  -14.0756  -50.6420 O.2       0 UNK        -0.5000 
      4 N           1.7655  -15.7051  -49.1748 N.am      1 UNK        -0.5000 
      5 CA          0.6963  -15.6166  -48.1688 C.3       1 UNK         0.1400 
      6 C6         -0.5613  -16.4881  -48.4630 C.3       23 UNK        -0.0398 
      7 S7         -1.4369  -16.1651  -50.0362 S.3       23 UNK        -0.2404 
      8 C8         -1.2887  -17.7575  -50.9128 C.3       23 UNK        -0.0205 
      9 C9          0.1265  -18.0223  -51.4052 C.ar      23 UNK        -0.0193 
     10 C10         0.5371  -17.5533  -52.6554 C.ar      23 UNK        -0.1150 
     11 C11         1.8304  -17.8110  -53.1230 C.ar      23 UNK        -0.0193 
     12 C12         2.7237  -18.5166  -52.3118 C.ar      23 UNK        -0.1150 
     13 C13         2.3350  -18.9738  -51.0488 C.ar      23 UNK        -0.0193 
     14 C14         1.0267  -18.7406  -50.6142 C.ar      23 UNK        -0.1150 
     15 C15         3.3543  -19.6654  -50.1491 C.3       23 UNK        -0.0205 
     16 S16         2.7758  -21.2572  -49.4812 S.3       23 UNK        -0.2404 
     17 C17         2.1761  -20.7752  -47.8233 C.3       23 UNK        -0.0398 
     18 CA          1.0650  -21.7234  -47.3161 C.3       11 UNK         0.1400 
     19 N           1.0149  -21.7954  -45.8548 N.am      11 UNK        -0.5000 
     20 C           0.3609  -22.7519  -45.1804 C.2       10 UNK         0.5000 
     21 O          -0.2322  -23.6844  -45.7228 O.2       10 UNK        -0.5000 
     22 CA          0.3222  -22.6224  -43.6486 C.3       10 UNK         0.1400 
     23 CB          1.6295  -23.1347  -43.0268 C.3       10 UNK        -0.1800 
     24 N           0.0607  -21.2509  -43.2092 N.am      10 UNK        -0.5000 
     25 C          -1.0741  -20.5820  -43.4600 C.2       9 UNK         0.5000 
     26 O          -2.0354  -21.0736  -44.0501 O.2       9 UNK        -0.5000 
     27 CA         -1.1342  -19.1082  -43.0209 C.3       9 UNK         0.1400 
     28 CB         -1.4578  -18.9949  -41.5239 C.3       9 UNK        -0.1800 
     29 N           0.1012  -18.3825  -43.3081 N.am      9 UNK        -0.5000 
     30 C           0.5940  -18.1511  -44.5323 C.2       8 UNK         0.5000 
     31 O           0.0435  -18.4968  -45.5776 O.2       8 UNK        -0.5000 
     32 CA          1.9701  -17.4695  -44.5958 C.3       8 UNK         0.1400 
     33 CB          1.8567  -15.9549  -44.3651 C.3       8 UNK        -0.1800 
     34 N           2.9082  -18.0448  -43.6332 N.am      8 UNK        -0.5000 
     35 C           3.3864  -19.2954  -43.6929 C.2       7 UNK         0.5000 
     36 O           3.1128  -20.0912  -44.5919 O.2       7 UNK        -0.5000 
     37 CA          4.2911  -19.7385  -42.5288 C.3       7 UNK         0.1400 
     38 CB          5.7336  -19.2602  -42.7505 C.3       7 UNK        -0.1800 
     39 N           3.8122  -19.2570  -41.2310 N.am      7 UNK        -0.5000 
     40 C           2.6822  -19.6765  -40.6445 C.2       6 UNK         0.5000 
     41 O           1.9356  -20.5249  -41.1293 O.2       6 UNK        -0.5000 
     42 CA          2.2957  -19.0020  -39.3157 C.3       6 UNK         0.1400 
     43 CB          3.0380  -19.6561  -38.1408 C.3       6 UNK        -0.1800 
     44 N           2.5281  -17.5544  -39.2955 N.am      6 UNK        -0.5000 
     45 C           1.9653  -16.6804  -40.1400 C.2       5 UNK         0.5000 
     46 O           1.2570  -17.0106  -41.0928 O.2       5 UNK        -0.5000 
     47 CA          2.2858  -15.1926  -39.9043 C.3       5 UNK         0.1400 
     48 CB          3.5700  -14.8040  -40.6539 C.3       5 UNK        -0.1800 
     49 N           1.2055  -14.3071  -40.3422 N.am      5 UNK        -0.5000 
     50 C          -0.0466  -14.2966  -39.8613 C.2       4 UNK         0.5000 
     51 O          -0.4216  -15.0072  -38.9271 O.2       4 UNK        -0.5000 
     52 CA         -1.0463  -13.3089  -40.5029 C.3       4 UNK         0.1400 
     53 CB         -1.5840  -12.3200  -39.4548 C.3       4 UNK        -0.1800 
     54 N          -0.4776  -12.5397  -41.6143 N.am      4 UNK        -0.5000 
     55 C          -0.3842  -12.9688  -42.8785 C.2       3 UNK         0.5000 
     56 O          -0.7725  -14.0752  -43.2590 O.2       3 UNK        -0.5000 
     57 CA          0.3093  -12.0027  -43.8577 C.3       3 UNK         0.1400 
     58 CB          1.8371  -12.0927  -43.7111 C.3       3 UNK        -0.1800 
     59 N          -0.0403  -12.2683  -45.2508 N.am      3 UNK        -0.5000 
     60 C          -1.2283  -12.0362  -45.8176 C.2       2 UNK         0.5000 
     61 O          -2.1751  -11.5202  -45.2218 O.2       2 UNK        -0.5000 
     62 CA         -1.3969  -12.4316  -47.3004 C.3       2 UNK         0.1400 
     63 CB         -0.8627  -11.3250  -48.2295 C.3       2 UNK        -0.1800 
     64 N          -0.8521  -13.7460  -47.6757 N.am      2 UNK        -0.5000 
     65 C           0.4216  -14.1677  -47.6946 C.2       1 UNK         0.5000 
     66 O           1.3751  -13.4803  -47.3207 O.2       1 UNK        -0.5000 
     67 C          -0.3176  -21.4027  -47.9239 C.2       11 UNK         0.5000 
     68 O          -0.6802  -22.0021  -48.9343 O.2       11 UNK        -0.5000 
     69 N          -1.0960  -20.5214  -47.2753 N.am      12 UNK        -0.5000 
     70 CA         -2.4895  -20.2427  -47.6314 C.3       12 UNK         0.1400 
     71 CB         -3.0411  -19.0825  -46.7916 C.3       12 UNK        -0.1800 
     72 C          -3.3915  -21.4802  -47.5002 C.2       12 UNK         0.5000 
     73 O          -4.1779  -21.7450  -48.4081 O.2       12 UNK        -0.5000 
     74 N          -3.2391  -22.2343  -46.4029 N.am      13 UNK        -0.5000 
     75 CA         -3.9401  -23.4952  -46.1560 C.3       13 UNK         0.1400 
     76 CB         -3.6597  -23.9776  -44.7252 C.3       13 UNK        -0.1800 
     77 C          -3.5869  -24.5818  -47.1881 C.2       13 UNK         0.5000 
     78 O          -4.4913  -25.2429  -47.6995 O.2       13 UNK        -0.5000 
     79 N          -2.2939  -24.7064  -47.5235 N.am      14 UNK        -0.5000 
     80 CA         -1.7864  -25.5860  -48.5825 C.3       14 UNK         0.1400 
     81 CB         -0.2507  -25.5851  -48.5594 C.3       14 UNK        -0.1800 
     82 C          -2.3128  -25.2055  -49.9815 C.2       14 UNK         0.5000 
     83 O          -2.5877  -26.0894  -50.7926 O.2       14 UNK        -0.5000 
     84 N          -2.5018  -23.9003  -50.2099 N.am      15 UNK        -0.5000 
     85 CA         -3.1335  -23.3070  -51.3877 C.3       15 UNK         0.1400 
     86 CB         -2.5831  -21.8805  -51.5665 C.3       15 UNK        -0.1800 
     87 C          -4.6793  -23.3217  -51.3295 C.2       15 UNK         0.5000 
     88 O          -5.3119  -22.5977  -52.0980 O.2       15 UNK        -0.5000 
     89 N          -5.2724  -24.1208  -50.4283 N.am      16 UNK        -0.5000 
     90 CA         -6.7114  -24.3420  -50.2441 C.3       16 UNK         0.1400 
     91 CB         -7.3141  -25.0395  -51.4828 C.3       16 UNK        -0.1800 
     92 C          -7.4646  -23.0560  -49.8491 C.2       16 UNK         0.5000 
     93 O          -8.4669  -22.7070  -50.4720 O.2       16 UNK        -0.5000 
     94 N          -6.9308  -22.3510  -48.8420 N.am      17 UNK        -0.5000 
     95 CA         -7.3432  -21.0198  -48.3757 C.3       17 UNK         0.1400 
     96 CB         -8.7793  -21.0354  -47.8114 C.3       17 UNK        -0.1800 
     97 C          -7.1169  -19.9430  -49.4583 C.2       17 UNK         0.5000 
     98 O          -7.9355  -19.0375  -49.6233 O.2       17 UNK        -0.5000 
     99 N          -6.0040  -20.0976  -50.1904 N.am      18 UNK        -0.5000 
    100 CA        -5.5579  -19.3080  -51.3420 C.3       18 UNK         0.1400 
    101 CB        -5.2141  -17.8652  -50.9197 C.3       18 UNK        -0.1800 
    102 C         -6.4961  -19.3716  -52.5700 C.2       18 UNK         0.5000 
    103 O         -6.3868  -18.5227  -53.4555 O.2       18 UNK        -0.5000 
    104 N         -7.3755  -20.3831  -52.6373 N.am      19 UNK        -0.5000 
    105 CA        -8.2279  -20.6589  -53.7975 C.3       19 UNK         0.1400 
    106 CB        -9.3748  -21.5926  -53.3859 C.3       19 UNK        -0.1800 
    107 C         -7.4333  -21.2680  -54.9680 C.2       19 UNK         0.5000 
    108 O         -7.7480  -20.9949  -56.1266 O.2       19 UNK        -0.5000 
    109 N         -6.3989  -22.0502  -54.6407 N.am      20 UNK        -0.5000 
    110 CA        -5.4057  -22.5986  -55.5567 C.3       20 UNK         0.1400 
    111 CB        -5.3307  -24.1230  -55.3541 C.3       20 UNK        -0.1800 
    112 C         -4.0731  -21.8881  -55.2669 C.2       20 UNK         0.5000 
    113 O         -3.0948  -22.5298  -54.8753 O.2       20 UNK        -0.5000 
    114 N         -4.0970  -20.5528  -55.4038 N.am      21 UNK        -0.5000 
    115 CA        -3.0270  -19.6121  -55.0668 C.3       21 UNK         0.1400 
    116 CB        -3.4065  -18.2094  -55.5654 C.3       21 UNK        -0.1800 
    117 C         -1.6499  -20.0244  -55.6150 C.2       21 UNK         0.5000 
    118 O         -1.5133  -20.2701  -56.8159 O.2       21 UNK        -0.5000 
    119 N         -0.6737  -20.0958  -54.7053 N.am      22 UNK        -0.5000 
    120 CA         0.7202  -20.5034  -54.9423 C.3       22 UNK         0.1400 
    121 C          0.9181  -22.0237  -55.2296 C.2       22 UNK         0.5000 
    122 N         -0.1030  -22.8692  -55.1374 N.am      22 UNK        -0.7600 
    123 O          2.0320  -22.4558  -55.5140 O.2       22 UNK        -0.5000 
    124 C124        1.4852  -19.6099  -55.9669 C.3       23 UNK        -0.0398 
    125 S125        1.1669  -17.8117  -55.8359 S.3       23 UNK        -0.2404 
    126 C126        2.2797  -17.3020  -54.4871 C.3       23 UNK        -0.0205 
    127 H127        3.8976  -14.3843  -50.9682 H         1 UNK         0.0600 
    128 H128        2.9560  -15.3073  -52.1411 H         1 UNK         0.0600 
    129 H129        3.7032  -16.1293  -50.7698 H         1 UNK         0.0600 
    130 H130        2.4800  -16.3846  -48.9620 H         1 UNK         0.3000 
    131 H131        1.1485  -16.0788  -47.2917 H         1 UNK         0.0600 
    132 H132       -0.2773  -17.5380  -48.4238 H         1 UNK         0.0800 
    133 H133       -1.2816  -16.3848  -47.6514 H         1 UNK         0.0800 
    134 H134       -1.6222  -18.5675  -50.2656 H         1 UNK         0.0800 
    135 H135       -1.9743  -17.7506  -51.7613 H         1 UNK         0.0800 
    136 H136       -0.1523  -16.9912  -53.2697 H         1 UNK         0.1150 
    137 H137        3.7325  -18.6931  -52.6576 H         1 UNK         0.1150 
    138 H138        0.7094  -19.1077  -49.6520 H         1 UNK         0.1150 
    139 H139        4.2731  -19.8584  -50.7049 H         1 UNK         0.0800 
    140 H140        3.6324  -18.9942  -49.3358 H         1 UNK         0.0800 
    141 H141        1.8540  -19.7333  -47.7987 H         1 UNK         0.0800 
    142 H142        3.0411  -20.8310  -47.1613 H         1 UNK         0.0800 
    143 H143        1.3239  -22.7310  -47.6495 H         1 UNK         0.0600 
    144 H144        1.5170  -21.0793  -45.3394 H         1 UNK         0.3000 
    145 H145       -0.4936  -23.2502  -43.2843 H         1 UNK         0.0600 
    146 H146        1.5699  -23.1439  -41.9385 H         1 UNK         0.0600 
    147 H147        1.8422  -24.1550  -43.3484 H         1 UNK         0.0600 
    148 H148        2.4810  -22.5157  -43.3104 H         1 UNK         0.0600 
    149 H149        0.7876  -20.8040  -42.6574 H         1 UNK         0.3000 
    150 H150       -1.9386  -18.6265  -43.5800 H         1 UNK         0.0600 
    151 H151       -2.3937  -19.5019  -41.2866 H         1 UNK         0.0600 
    152 H152       -1.5649  -17.9525  -41.2224 H         1 UNK         0.0600 
    153 H153       -0.6758  -19.4403  -40.9083 H         1 UNK         0.0600 
    154 H154        0.6068  -18.0134  -42.5053 H         1 UNK         0.3000 
    155 H155        2.3710  -17.6311  -45.5987 H         1 UNK         0.0600 
    156 H156        1.1031  -15.5084  -45.0132 H         1 UNK         0.0600 
    157 H157        1.5692  -15.7193  -43.3411 H         1 UNK         0.0600 
    158 H158        2.8030  -15.4550  -44.5709 H         1 UNK         0.0600 
    159 H159        3.1348  -17.4807  -42.8284 H         1 UNK         0.3000 
    160 H160        4.2941  -20.8304  -42.5073 H         1 UNK         0.0600 
    161 H161        5.8031  -18.1717  -42.7550 H         1 UNK         0.0600 
    162 H162        6.1204  -19.6181  -43.7056 H         1 UNK         0.0600 
    163 H163        6.3972  -19.6358  -41.9714 H         1 UNK         0.0600 
    164 H164        4.3666  -18.5531  -40.7665 H         1 UNK         0.3000 
    165 H165        1.2254  -19.1619  -39.1701 H         1 UNK         0.0600 
    166 H166        2.6929  -19.2592  -37.1859 H         1 UNK         0.0600 
    167 H167        2.8680  -20.7336  -38.1230 H         1 UNK         0.0600 
    168 H168        4.1148  -19.4946  -38.2029 H         1 UNK         0.0600 
    169 H169        3.1135  -17.2061  -38.5500 H         1 UNK         0.3000 
    170 H170        2.4367  -15.0332  -38.8348 H         1 UNK         0.0600 
    171 H171        3.4594  -14.9233  -41.7325 H         1 UNK         0.0600 
    172 H172        3.8422  -13.7666  -40.4585 H         1 UNK         0.0600 
    173 H173        4.4119  -15.4225  -40.3398 H         1 UNK         0.0600 
    174 H174        1.4101  -13.7013  -41.1206 H         1 UNK         0.3000 
    175 H175       -1.8872  -13.8992  -40.8733 H         1 UNK         0.0600 
    176 H176       -2.3258  -11.6495  -39.8891 H         1 UNK         0.0600 
    177 H177       -0.7858  -11.7096  -39.0307 H         1 UNK         0.0600 
    178 H178       -2.0690  -12.8447  -38.6306 H         1 UNK         0.0600 
    179 H179       -0.1232  -11.6227  -41.3814 H         1 UNK         0.3000 
    180 H180       -0.0052  -10.9847  -43.6183 H         1 UNK         0.0600 
    181 H181        2.2067  -13.0900  -43.9495 H         1 UNK         0.0600 
    182 H182        2.1534  -11.8589  -42.6939 H         1 UNK         0.0600 
    183 H183        2.3374  -11.3860  -44.3736 H         1 UNK         0.0600 
    184 H184        0.6716  -12.7022  -45.8331 H         1 UNK         0.3000 
    185 H185       -2.4713  -12.5066  -47.4758 H         1 UNK         0.0600 
    186 H186       -1.3495  -10.3718  -48.0196 H         1 UNK         0.0600 
    187 H187        0.2107  -11.1750  -48.1104 H         1 UNK         0.0600 
    188 H188       -1.0524  -11.5642  -49.2760 H         1 UNK         0.0600 
    189 H189       -1.5481  -14.3970  -48.0121 H         1 UNK         0.3000 
    190 H190       -0.7204  -20.0197  -46.4754 H         1 UNK         0.3000 
    191 H191       -2.5085  -19.9362  -48.6771 H         1 UNK         0.0600 
    192 H192       -2.4237  -18.1929  -46.8900 H         1 UNK         0.0600 
    193 H193       -4.0488  -18.8161  -47.1131 H         1 UNK         0.0600 
    194 H194       -3.0916  -19.3338  -45.7329 H         1 UNK         0.0600 
    195 H195       -2.6109  -21.9115  -45.6715 H         1 UNK         0.3000 
    196 H196       -5.0108  -23.2976  -46.2386 H         1 UNK         0.0600 
    197 H197       -4.2006  -24.9002  -44.5115 H         1 UNK         0.0600 
    198 H198       -3.9769  -23.2366  -43.9913 H         1 UNK         0.0600 
    199 H199       -2.5999  -24.1736  -44.5637 H         1 UNK         0.0600 
    200 H200       -1.6041  -24.1581  -47.0168 H         1 UNK         0.3000 
    201 H201       -2.1295  -26.5992  -48.3639 H         1 UNK         0.0600 
    202 H202        0.1301  -25.8970  -47.5867 H         1 UNK         0.0600 
    203 H203        0.1545  -24.5969  -48.7764 H         1 UNK         0.0600 
    204 H204        0.1507  -26.2743  -49.3033 H         1 UNK         0.0600 
    205 H205       -2.1829  -23.2426  -49.5057 H         1 UNK         0.3000 
    206 H206       -2.8485  -23.8858  -52.2683 H         1 UNK         0.0600 
    207 H207       -1.4985  -21.8889  -51.6762 H         1 UNK         0.0600 
    208 H208       -2.9909  -21.4070  -52.4571 H         1 UNK         0.0600 
    209 H209       -2.8273  -21.2453  -50.7162 H         1 UNK         0.0600 
    210 H210       -4.6778  -24.6314  -49.7876 H         1 UNK         0.3000 
    211 H211       -6.8119  -25.0262  -49.4005 H         1 UNK         0.0600 
    212 H212       -7.2810  -24.4028  -52.3675 H         1 UNK         0.0600 
    213 H213       -8.3580  -25.3047  -51.3116 H         1 UNK         0.0600 
    214 H214       -6.7794  -25.9605  -51.7144 H         1 UNK         0.0600 
    215 H215       -6.0398  -22.6661  -48.4757 H         1 UNK         0.3000 
    216 H216       -6.6741  -20.7654  -47.5526 H         1 UNK         0.0600 
    217 H217       -9.0171  -20.0862  -47.3300 H         1 UNK         0.0600 
    218 H218       -8.9000  -21.8179  -47.0624 H         1 UNK         0.0600 
    219 H219       -9.5238  -21.1982  -48.5910 H         1 UNK         0.0600 
    220 H220       -5.4072  -20.8785  -49.9425 H         1 UNK         0.3000 
    221 H221       -4.6288  -19.7719  -51.6717 H         1 UNK         0.0600 
    222 H222       -6.1040  -17.3047  -50.6329 H         1 UNK         0.0600 
    223 H223       -4.5235  -17.8551  -50.0761 H         1 UNK         0.0600 
    224 H224       -4.7338  -17.3210  -51.7338 H         1 UNK         0.0600 
    225 H225       -7.3986  -21.0583  -51.8840 H         1 UNK         0.3000 
    226 H226       -8.6634  -19.7172  -54.1382 H         1 UNK         0.0600 
    227 H227       -9.9391  -21.1820  -52.5483 H         1 UNK         0.0600 
    228 H228      -10.0731  -21.7378  -54.2109 H         1 UNK         0.0600 
    229 H229       -9.0068  -22.5765  -53.0931 H         1 UNK         0.0600 
    230 H230       -6.1778  -22.1781  -53.6540 H         1 UNK         0.3000 
    231 H231       -5.6728  -22.3997  -56.5964 H         1 UNK         0.0600 
    232 H232       -5.0517  -24.3821  -54.3319 H         1 UNK         0.0600 
    233 H233       -4.5929  -24.5698  -56.0213 H         1 UNK         0.0600 
    234 H234       -6.2905  -24.5941  -55.5662 H         1 UNK         0.0600 
    235 H235       -4.9585  -20.1345  -55.7230 H         1 UNK         0.3000 
    236 H236       -2.9750  -19.5719  -53.9775 H         1 UNK         0.0600 
    237 H237       -4.3329  -17.8616  -55.1090 H         1 UNK         0.0600 
    238 H238       -2.6308  -17.4840  -55.3155 H         1 UNK         0.0600 
    239 H239       -3.5370  -18.1904  -56.6481 H         1 UNK         0.0600 
    240 H240       -0.8895  -19.8818  -53.7435 H         1 UNK         0.3000 
    241 H241        1.2061  -20.3630  -53.9776 H         1 UNK         0.0600 
    242 H242       -1.0453  -22.5475  -54.9430 H         1 UNK         0.3800 
    243 H243        0.0547  -23.8476  -55.3169 H         1 UNK         0.3800 
    244 H244        2.5599  -19.7788  -55.8837 H         1 UNK         0.0800 
    245 H245        1.2176  -19.9046  -56.9828 H         1 UNK         0.0800 
    246 H246        2.3103  -16.2123  -54.4560 H         1 UNK         0.0800 
    247 H247        3.2941  -17.6313  -54.7171 H         1 UNK         0.0800 
@<TRIPOS>BOND
     1    1    2 1    
     2    1  127 1    
     3    1  128 1    
     4    1  129 1    
     5    2    3 2    
     6    2    4 am   BACKBONE|DICT|INTERRES
     7    4    5 1    
     8    4  130 1    
     9    5    6 1    
    10    5   65 1    
    11    5  131 1    
    12    6    7 1    
    13    6  132 1    
    14    6  133 1    
    15    7    8 1    
    16    8    9 1    
    17    8  134 1    
    18    8  135 1    
    19    9   10 ar   
    20    9   14 ar   
    21   10   11 ar   
    22   10  136 1    
    23   11   12 ar   
    24   11  126 1    
    25   12   13 ar   
    26   12  137 1    
    27   13   14 ar   
    28   13   15 1    
    29   14  138 1    
    30   15   16 1    
    31   15  139 1    
    32   15  140 1    
    33   16   17 1    
    34   17   18 1    
    35   17  141 1    
    36   17  142 1    
    37   18   19 1    
    38   18   67 1    
    39   18  143 1    
    40   19   20 am   BACKBONE|DICT|INTERRES
    41   19  144 1    
    42   20   21 2    
    43   20   22 1    
    44   22   23 1    
    45   22   24 1    
    46   22  145 1    
    47   23  146 1    
    48   23  147 1    
    49   23  148 1    
    50   24   25 am   BACKBONE|DICT|INTERRES
    51   24  149 1    
    52   25   26 2    
    53   25   27 1    
    54   27   28 1    
    55   27   29 1    
    56   27  150 1    
    57   28  151 1    
    58   28  152 1    
    59   28  153 1    
    60   29   30 am   BACKBONE|DICT|INTERRES
    61   29  154 1    
    62   30   31 2    
    63   30   32 1    
    64   32   33 1    
    65   32   34 1    
    66   32  155 1    
    67   33  156 1    
    68   33  157 1    
    69   33  158 1    
    70   34   35 am   BACKBONE|DICT|INTERRES
    71   34  159 1    
    72   35   36 2    
    73   35   37 1    
    74   37   38 1    
    75   37   39 1    
    76   37  160 1    
    77   38  161 1    
    78   38  162 1    
    79   38  163 1    
    80   39   40 am   BACKBONE|DICT|INTERRES
    81   39  164 1    
    82   40   41 2    
    83   40   42 1    
    84   42   43 1    
    85   42   44 1    
    86   42  165 1    
    87   43  166 1    
    88   43  167 1    
    89   43  168 1    
    90   44   45 am   BACKBONE|DICT|INTERRES
    91   44  169 1    
    92   45   46 2    
    93   45   47 1    
    94   47   48 1    
    95   47   49 1    
    96   47  170 1    
    97   48  171 1    
    98   48  172 1    
    99   48  173 1    
   100   49   50 am   BACKBONE|DICT|INTERRES
   101   49  174 1    
   102   50   51 2    
   103   50   52 1    
   104   52   53 1    
   105   52   54 1    
   106   52  175 1    
   107   53  176 1    
   108   53  177 1    
   109   53  178 1    
   110   54   55 am   BACKBONE|DICT|INTERRES
   111   54  179 1    
   112   55   56 2    
   113   55   57 1    
   114   57   58 1    
   115   57   59 1    
   116   57  180 1    
   117   58  181 1    
   118   58  182 1    
   119   58  183 1    
   120   59   60 am   BACKBONE|DICT|INTERRES
   121   59  184 1    
   122   60   61 2    
   123   60   62 1    
   124   62   63 1    
   125   62   64 1    
   126   62  185 1    
   127   63  186 1    
   128   63  187 1    
   129   63  188 1    
   130   64   65 am   BACKBONE|DICT|INTERRES
   131   64  189 1    
   132   65   66 2    
   133   67   68 2    
   134   67   69 am   BACKBONE|DICT|INTERRES
   135   69   70 1    
   136   69  190 1    
   137   70   71 1    
   138   70   72 1    
   139   70  191 1    
   140   71  192 1    
   141   71  193 1    
   142   71  194 1    
   143   72   73 2    
   144   72   74 am   BACKBONE|DICT|INTERRES
   145   74   75 1    
   146   74  195 1    
   147   75   76 1    
   148   75   77 1    
   149   75  196 1    
   150   76  197 1    
   151   76  198 1    
   152   76  199 1    
   153   77   78 2    
   154   77   79 am   BACKBONE|DICT|INTERRES
   155   79   80 1    
   156   79  200 1    
   157   80   81 1    
   158   80   82 1    
   159   80  201 1    
   160   81  202 1    
   161   81  203 1    
   162   81  204 1    
   163   82   83 2    
   164   82   84 am   BACKBONE|DICT|INTERRES
   165   84   85 1    
   166   84  205 1    
   167   85   86 1    
   168   85   87 1    
   169   85  206 1    
   170   86  207 1    
   171   86  208 1    
   172   86  209 1    
   173   87   88 2    
   174   87   89 am   BACKBONE|DICT|INTERRES
   175   89   90 1    
   176   89  210 1    
   177   90   91 1    
   178   90   92 1    
   179   90  211 1    
   180   91  212 1    
   181   91  213 1    
   182   91  214 1    
   183   92   93 2    
   184   92   94 am   BACKBONE|DICT|INTERRES
   185   94   95 1    
   186   94  215 1    
   187   95   96 1    
   188   95   97 1    
   189   95  216 1    
   190   96  217 1    
   191   96  218 1    
   192   96  219 1    
   193   97   98 2    
   194   97   99 am   BACKBONE|DICT|INTERRES
   195   99  100 1    
   196   99  220 1    
   197  100  101 1    
   198  100  102 1    
   199  100  221 1    
   200  101  222 1    
   201  101  223 1    
   202  101  224 1    
   203  102  103 2    
   204  102  104 am   BACKBONE|DICT|INTERRES
   205  104  105 1    
   206  104  225 1    
   207  105  106 1    
   208  105  107 1    
   209  105  226 1    
   210  106  227 1    
   211  106  228 1    
   212  106  229 1    
   213  107  108 2    
   214  107  109 am   BACKBONE|DICT|INTERRES
   215  109  110 1    
   216  109  230 1    
   217  110  111 1    
   218  110  112 1    
   219  110  231 1    
   220  111  232 1    
   221  111  233 1    
   222  111  234 1    
   223  112  113 2    
   224  112  114 am   BACKBONE|DICT|INTERRES
   225  114  115 1    
   226  114  235 1    
   227  115  116 1    
   228  115  117 1    
   229  115  236 1    
   230  116  237 1    
   231  116  238 1    
   232  116  239 1    
   233  117  118 2    
   234  117  119 am   BACKBONE|DICT|INTERRES
   235  119  120 1    
   236  119  240 1    
   237  120  121 1    
   238  120  124 1    
   239  120  241 1    
   240  121  122 am   BACKBONE|DICT|INTERRES
   241  121  123 2    
   242  122  242 1    
   243  122  243 1    
   244  124  125 1    
   245  124  244 1    
   246  124  245 1    
   247  125  126 1    
   248  126  246 1    
   249  126  247 1    
@<TRIPOS>SUBSTRUCTURE
     1 UNK         1 GROUP             0       ****    0 ROOT    
