@<TRIPOS>MOLECULE
3R540
247   249    1
SMALL
USER_CHARGES


@<TRIPOS>ATOM
      1 CA          3.7599  -12.3073  -49.5664 C.3       0 UNK        -0.1800 
      2 C           2.6018  -12.3399  -48.5799 C.2       0 UNK         0.5000 
      3 O           2.3468  -11.3442  -47.9018 O.2       0 UNK        -0.5000 
      4 N           1.9040  -13.4804  -48.4915 N.am      1 UNK        -0.5000 
      5 CA          0.8022  -13.7371  -47.5576 C.3       1 UNK         0.1400 
      6 C6         -0.4385  -12.8425  -47.8463 C.3       23 UNK        -0.0398 
      7 S7         -1.9788  -13.5878  -47.2121 S.3       23 UNK        -0.2404 
      8 C8         -2.9691  -13.8076  -48.7268 C.3       23 UNK        -0.0205 
      9 C9         -2.2816  -14.6359  -49.8078 C.ar      23 UNK        -0.0193 
     10 C10        -2.2069  -14.1423  -51.1128 C.ar      23 UNK        -0.1150 
     11 C11        -1.6183  -14.8992  -52.1282 C.ar      23 UNK        -0.0193 
     12 C12        -1.1060  -16.1664  -51.8342 C.ar      23 UNK        -0.1150 
     13 C13        -1.1696  -16.6741  -50.5333 C.ar      23 UNK        -0.0193 
     14 C14        -1.7483  -15.8970  -49.5229 C.ar      23 UNK        -0.1150 
     15 C15        -0.5902  -18.0499  -50.2267 C.3       23 UNK        -0.0205 
     16 S16        -1.8127  -19.3868  -50.4356 S.3       23 UNK        -0.2404 
     17 C17        -2.8347  -19.2128  -48.9325 C.3       23 UNK        -0.0398 
     18 CA         -2.6532  -20.3627  -47.9124 C.3       11 UNK         0.1400 
     19 N          -3.0260  -19.9160  -46.5658 N.am      11 UNK        -0.5000 
     20 C          -2.9779  -20.6263  -45.4321 C.2       10 UNK         0.5000 
     21 O          -2.7090  -21.8277  -45.3965 O.2       10 UNK        -0.5000 
     22 CA         -3.2856  -19.8516  -44.1296 C.3       10 UNK         0.1400 
     23 CB         -3.0891  -20.7119  -42.8694 C.3       10 UNK        -0.1800 
     24 N          -2.4619  -18.6483  -44.0008 N.am      10 UNK        -0.5000 
     25 C          -2.6362  -17.4940  -44.6591 C.2       9 UNK         0.5000 
     26 O          -3.5777  -17.2816  -45.4240 O.2       9 UNK        -0.5000 
     27 CA         -1.5262  -16.4391  -44.4952 C.3       9 UNK         0.1400 
     28 CB         -1.7063  -15.6610  -43.1838 C.3       9 UNK        -0.1800 
     29 N          -0.1917  -17.0436  -44.5531 N.am      9 UNK        -0.5000 
     30 C           0.3010  -17.6590  -45.6399 C.2       8 UNK         0.5000 
     31 O          -0.2723  -17.6688  -46.7276 O.2       8 UNK        -0.5000 
     32 CA          1.6297  -18.4188  -45.4939 C.3       8 UNK         0.1400 
     33 CB          2.8127  -17.5390  -45.9046 C.3       8 UNK        -0.1800 
     34 N           1.8390  -18.8986  -44.1300 N.am      8 UNK        -0.5000 
     35 C           1.3701  -20.0644  -43.6655 C.2       7 UNK         0.5000 
     36 O           0.7661  -20.8826  -44.3566 O.2       7 UNK        -0.5000 
     37 CA          1.5904  -20.3585  -42.1692 C.3       7 UNK         0.1400 
     38 CB          2.9408  -21.0568  -41.9494 C.3       7 UNK        -0.1800 
     39 N           1.5285  -19.1583  -41.3343 N.am      7 UNK        -0.5000 
     40 C           0.4375  -18.3965  -41.1784 C.2       6 UNK         0.5000 
     41 O          -0.6522  -18.6539  -41.6888 O.2       6 UNK        -0.5000 
     42 CA          0.6003  -17.1056  -40.3545 C.3       6 UNK         0.1400 
     43 CB          0.2206  -17.3564  -38.8879 C.3       6 UNK        -0.1800 
     44 N           1.9418  -16.5161  -40.4104 N.am      6 UNK        -0.5000 
     45 C           2.5680  -16.0957  -41.5190 C.2       5 UNK         0.5000 
     46 O           2.0947  -16.2171  -42.6516 O.2       5 UNK        -0.5000 
     47 CA          3.9316  -15.4137  -41.2902 C.3       5 UNK         0.1400 
     48 CB          4.9129  -16.3118  -40.5050 C.3       5 UNK        -0.1800 
     49 N           4.5448  -14.8906  -42.5153 N.am      5 UNK        -0.5000 
     50 C           5.1394  -15.5598  -43.5158 C.2       4 UNK         0.5000 
     51 O           5.2619  -16.7852  -43.5454 O.2       4 UNK        -0.5000 
     52 CA          5.7252  -14.7011  -44.6608 C.3       4 UNK         0.1400 
     53 CB          5.7437  -15.4267  -46.0179 C.3       4 UNK        -0.1800 
     54 N           4.9914  -13.4449  -44.8107 N.am      4 UNK        -0.5000 
     55 C           5.4034  -12.2397  -44.3921 C.2       3 UNK         0.5000 
     56 O           6.5143  -12.0288  -43.9053 O.2       3 UNK        -0.5000 
     57 CA          4.3922  -11.0767  -44.4944 C.3       3 UNK         0.1400 
     58 CB          4.6879  -10.2163  -45.7314 C.3       3 UNK        -0.1800 
     59 N           2.9975  -11.5288  -44.5348 N.am      3 UNK        -0.5000 
     60 C           2.3762  -12.1545  -43.5227 C.2       2 UNK         0.5000 
     61 O           2.8827  -12.2964  -42.4090 O.2       2 UNK        -0.5000 
     62 CA          0.9904  -12.7765  -43.7948 C.3       2 UNK         0.1400 
     63 CB         -0.1158  -11.9599  -43.1106 C.3       2 UNK        -0.1800 
     64 N           0.6439  -12.9501  -45.2089 N.am      2 UNK        -0.5000 
     65 C           1.3226  -13.6871  -46.0993 C.2       1 UNK         0.5000 
     66 O           2.3604  -14.2871  -45.8174 O.2       1 UNK        -0.5000 
     67 C          -3.4028  -21.6354  -48.3572 C.2       11 UNK         0.5000 
     68 O          -2.7858  -22.5550  -48.8943 O.2       11 UNK        -0.5000 
     69 N          -4.7131  -21.6852  -48.0778 N.am      12 UNK        -0.5000 
     70 CA         -5.5769  -22.8227  -48.3918 C.3       12 UNK         0.1400 
     71 CB         -7.0445  -22.4162  -48.1996 C.3       12 UNK        -0.1800 
     72 C          -5.2507  -24.0858  -47.5779 C.2       12 UNK         0.5000 
     73 O          -5.3826  -25.1888  -48.1080 O.2       12 UNK        -0.5000 
     74 N          -4.8111  -23.9061  -46.3248 N.am      13 UNK        -0.5000 
     75 CA         -4.3807  -24.9900  -45.4421 C.3       13 UNK         0.1400 
     76 CB         -4.4342  -24.5239  -43.9800 C.3       13 UNK        -0.1800 
     77 C          -2.9728  -25.4882  -45.8064 C.2       13 UNK         0.5000 
     78 O          -2.7349  -26.6948  -45.7731 O.2       13 UNK        -0.5000 
     79 N          -2.0822  -24.5600  -46.1859 N.am      14 UNK        -0.5000 
     80 CA         -0.7291  -24.8430  -46.6685 C.3       14 UNK         0.1400 
     81 CB          0.0514  -23.5273  -46.8030 C.3       14 UNK        -0.1800 
     82 C          -0.7292  -25.6211  -47.9974 C.2       14 UNK         0.5000 
     83 O           0.0306  -26.5791  -48.1440 O.2       14 UNK        -0.5000 
     84 N          -1.6111  -25.2199  -48.9230 N.am      15 UNK        -0.5000 
     85 CA         -1.8714  -25.9160  -50.1850 C.3       15 UNK         0.1400 
     86 CB         -2.6054  -24.9537  -51.1274 C.3       15 UNK        -0.1800 
     87 C          -2.6928  -27.2098  -50.0069 C.2       15 UNK         0.5000 
     88 O          -2.6720  -28.0624  -50.8951 O.2       15 UNK        -0.5000 
     89 N          -3.4024  -27.3188  -48.8740 N.am      16 UNK        -0.5000 
     90 CA         -4.3102  -28.3961  -48.4699 C.3       16 UNK         0.1400 
     91 CB         -3.5331  -29.7086  -48.2385 C.3       16 UNK        -0.1800 
     92 C          -5.5104  -28.5544  -49.4273 C.2       16 UNK         0.5000 
     93 O          -5.9126  -29.6782  -49.7359 O.2       16 UNK        -0.5000 
     94 N          -6.0588  -27.4204  -49.8808 N.am      17 UNK        -0.5000 
     95 CA         -7.1727  -27.3367  -50.8202 C.3       17 UNK         0.1400 
     96 CB         -6.7466  -27.8132  -52.2280 C.3       17 UNK        -0.1800 
     97 C          -7.7209  -25.9029  -50.8280 C.2       17 UNK         0.5000 
     98 O          -8.7035  -25.6178  -50.1430 O.2       17 UNK        -0.5000 
     99 N          -7.0727  -25.0304  -51.6040 N.am      18 UNK        -0.5000 
    100 CA        -7.4199  -23.6310  -51.8223 C.3       18 UNK         0.1400 
    101 CB        -8.4370  -23.5255  -52.9715 C.3       18 UNK        -0.1800 
    102 C         -6.1291  -22.8689  -52.1499 C.2       18 UNK         0.5000 
    103 O         -5.1123  -23.5000  -52.4484 O.2       18 UNK        -0.5000 
    104 N         -6.1809  -21.5325  -52.0894 N.am      19 UNK        -0.5000 
    105 CA        -5.0530  -20.6110  -52.2811 C.3       19 UNK         0.1400 
    106 CB        -5.4507  -19.2350  -51.7167 C.3       19 UNK        -0.1800 
    107 C         -4.5534  -20.5232  -53.7438 C.2       19 UNK         0.5000 
    108 O         -4.4364  -19.4295  -54.2997 O.2       19 UNK        -0.5000 
    109 N         -4.2562  -21.6831  -54.3427 N.am      20 UNK        -0.5000 
    110 CA        -3.8244  -21.8750  -55.7293 C.3       20 UNK         0.1400 
    111 CB        -3.7072  -23.3810  -56.0068 C.3       20 UNK        -0.1800 
    112 C         -2.5106  -21.1550  -56.0847 C.2       20 UNK         0.5000 
    113 O         -2.3212  -20.7768  -57.2415 O.2       20 UNK        -0.5000 
    114 N         -1.6557  -20.9220  -55.0781 N.am      21 UNK        -0.5000 
    115 CA        -0.4316  -20.1215  -55.1721 C.3       21 UNK         0.1400 
    116 CB         0.3167  -20.2000  -53.8328 C.3       21 UNK        -0.1800 
    117 C         -0.6827  -18.6488  -55.5611 C.2       21 UNK         0.5000 
    118 O          0.2190  -18.0069  -56.1006 O.2       21 UNK        -0.5000 
    119 N         -1.8992  -18.1521  -55.3010 N.am      22 UNK        -0.5000 
    120 CA        -2.3893  -16.8356  -55.7265 C.3       22 UNK         0.1400 
    121 C         -3.0340  -16.8294  -57.1467 C.2       22 UNK         0.5000 
    122 N         -3.0977  -17.9452  -57.8657 N.am      22 UNK        -0.7600 
    123 O         -3.4723  -15.7857  -57.6219 O.2       22 UNK        -0.5000 
    124 C124       -3.3214  -16.2279  -54.6416 C.3       23 UNK        -0.0398 
    125 S125       -3.1057  -14.4270  -54.4382 S.3       23 UNK        -0.2404 
    126 C126       -1.5230  -14.3349  -53.5372 C.3       23 UNK        -0.0205 
    127 H127        3.8552  -13.2468  -50.1112 H         1 UNK         0.0600 
    128 H128        4.6955  -12.1237  -49.0382 H         1 UNK         0.0600 
    129 H129        3.6127  -11.5067  -50.2911 H         1 UNK         0.0600 
    130 H130        2.1829  -14.2708  -49.0549 H         1 UNK         0.3000 
    131 H131        0.5174  -14.7759  -47.7343 H         1 UNK         0.0600 
    132 H132       -0.3219  -11.8357  -47.4425 H         1 UNK         0.0800 
    133 H133       -0.5411  -12.7006  -48.9226 H         1 UNK         0.0800 
    134 H134       -3.2363  -12.8207  -49.1080 H         1 UNK         0.0800 
    135 H135       -3.9072  -14.2962  -48.4607 H         1 UNK         0.0800 
    136 H136       -2.6132  -13.1679  -51.3458 H         1 UNK         0.1150 
    137 H137       -0.6550  -16.7583  -52.6186 H         1 UNK         0.1150 
    138 H138       -1.7841  -16.2649  -48.5080 H         1 UNK         0.1150 
    139 H139        0.2510  -18.2461  -50.8930 H         1 UNK         0.0800 
    140 H140       -0.1794  -18.0782  -49.2188 H         1 UNK         0.0800 
    141 H141       -3.8794  -19.0988  -49.2223 H         1 UNK         0.0800 
    142 H142       -2.5727  -18.2748  -48.4502 H         1 UNK         0.0800 
    143 H143       -1.5911  -20.6107  -47.8602 H         1 UNK         0.0600 
    144 H144       -3.2587  -18.9328  -46.4694 H         1 UNK         0.3000 
    145 H145       -4.3349  -19.5528  -44.1698 H         1 UNK         0.0600 
    146 H146       -3.2963  -20.1399  -41.9648 H         1 UNK         0.0600 
    147 H147       -3.7633  -21.5680  -42.8700 H         1 UNK         0.0600 
    148 H148       -2.0681  -21.0901  -42.7975 H         1 UNK         0.0600 
    149 H149       -1.6686  -18.7223  -43.3704 H         1 UNK         0.3000 
    150 H150       -1.6018  -15.7339  -45.3229 H         1 UNK         0.0600 
    151 H151       -2.5953  -15.0312  -43.2318 H         1 UNK         0.0600 
    152 H152       -0.8576  -15.0113  -42.9814 H         1 UNK         0.0600 
    153 H153       -1.8303  -16.3265  -42.3303 H         1 UNK         0.0600 
    154 H154        0.3716  -17.0198  -43.7127 H         1 UNK         0.3000 
    155 H155        1.5962  -19.2689  -46.1789 H         1 UNK         0.0600 
    156 H156        2.6659  -17.1143  -46.8985 H         1 UNK         0.0600 
    157 H157        3.7419  -18.1086  -45.9227 H         1 UNK         0.0600 
    158 H158        2.9437  -16.7134  -45.2070 H         1 UNK         0.0600 
    159 H159        2.2881  -18.2529  -43.4922 H         1 UNK         0.3000 
    160 H160        0.7967  -21.0351  -41.8449 H         1 UNK         0.0600 
    161 H161        3.7765  -20.4151  -42.2321 H         1 UNK         0.0600 
    162 H162        3.0100  -21.9680  -42.5450 H         1 UNK         0.0600 
    163 H163        3.0729  -21.3413  -40.9054 H         1 UNK         0.0600 
    164 H164        2.3841  -18.8693  -40.8838 H         1 UNK         0.3000 
    165 H165       -0.0926  -16.3678  -40.7605 H         1 UNK         0.0600 
    166 H166        0.2327  -16.4307  -38.3124 H         1 UNK         0.0600 
    167 H167       -0.7853  -17.7716  -38.8102 H         1 UNK         0.0600 
    168 H168        0.9038  -18.0596  -38.4097 H         1 UNK         0.0600 
    169 H169        2.3967  -16.3770  -39.5198 H         1 UNK         0.3000 
    170 H170        3.7298  -14.5337  -40.6778 H         1 UNK         0.0600 
    171 H171        4.5570  -16.4986  -39.4917 H         1 UNK         0.0600 
    172 H172        5.0503  -17.2822  -40.9828 H         1 UNK         0.0600 
    173 H173        5.8922  -15.8414  -40.4152 H         1 UNK         0.0600 
    174 H174        4.4407  -13.8911  -42.6321 H         1 UNK         0.3000 
    175 H175        6.7623  -14.5007  -44.3859 H         1 UNK         0.0600 
    176 H176        4.7373  -15.5980  -46.3967 H         1 UNK         0.0600 
    177 H177        6.2778  -14.8384  -46.7641 H         1 UNK         0.0600 
    178 H178        6.2452  -16.3927  -45.9507 H         1 UNK         0.0600 
    179 H179        4.0461  -13.5441  -45.1728 H         1 UNK         0.3000 
    180 H180        4.5157  -10.4518  -43.6074 H         1 UNK         0.0600 
    181 H181        5.6833   -9.7750  -45.6681 H         1 UNK         0.0600 
    182 H182        3.9744   -9.3977  -45.8272 H         1 UNK         0.0600 
    183 H183        4.6516  -10.8048  -46.6481 H         1 UNK         0.0600 
    184 H184        2.5264  -11.4622  -45.4276 H         1 UNK         0.3000 
    185 H185        1.0131  -13.7701  -43.3456 H         1 UNK         0.0600 
    186 H186        0.0810  -11.8503  -42.0432 H         1 UNK         0.0600 
    187 H187       -0.1947  -10.9583  -43.5350 H         1 UNK         0.0600 
    188 H188       -1.0867  -12.4453  -43.2112 H         1 UNK         0.0600 
    189 H189       -0.1996  -12.4880  -45.5168 H         1 UNK         0.3000 
    190 H190       -5.1411  -20.9005  -47.6086 H         1 UNK         0.3000 
    191 H191       -5.4235  -23.0767  -49.4404 H         1 UNK         0.0600 
    192 H192       -7.3144  -21.5902  -48.8578 H         1 UNK         0.0600 
    193 H193       -7.7136  -23.2472  -48.4281 H         1 UNK         0.0600 
    194 H194       -7.2456  -22.1081  -47.1729 H         1 UNK         0.0600 
    195 H195       -4.6637  -22.9647  -45.9893 H         1 UNK         0.3000 
    196 H196       -5.0747  -25.8261  -45.5539 H         1 UNK         0.0600 
    197 H197       -4.2092  -25.3488  -43.3030 H         1 UNK         0.0600 
    198 H198       -5.4235  -24.1484  -43.7185 H         1 UNK         0.0600 
    199 H199       -3.7094  -23.7352  -43.7813 H         1 UNK         0.0600 
    200 H200       -2.3455  -23.5806  -46.1181 H         1 UNK         0.3000 
    201 H201       -0.2294  -25.4602  -45.9191 H         1 UNK         0.0600 
    202 H202        0.0951  -23.0007  -45.8501 H         1 UNK         0.0600 
    203 H203       -0.4049  -22.8576  -47.5320 H         1 UNK         0.0600 
    204 H204        1.0779  -23.7115  -47.1217 H         1 UNK         0.0600 
    205 H205       -2.1433  -24.3692  -48.7579 H         1 UNK         0.3000 
    206 H206       -0.9168  -26.1858  -50.6411 H         1 UNK         0.0600 
    207 H207       -2.0146  -24.0586  -51.3224 H         1 UNK         0.0600 
    208 H208       -2.8172  -25.4220  -52.0894 H         1 UNK         0.0600 
    209 H209       -3.5564  -24.6378  -50.6975 H         1 UNK         0.0600 
    210 H210       -3.3592  -26.5397  -48.2326 H         1 UNK         0.3000 
    211 H211       -4.7297  -28.0912  -47.5101 H         1 UNK         0.0600 
    212 H212       -3.1249  -30.1084  -49.1670 H         1 UNK         0.0600 
    213 H213       -4.1791  -30.4746  -47.8083 H         1 UNK         0.0600 
    214 H214       -2.7055  -29.5566  -47.5453 H         1 UNK         0.0600 
    215 H215       -5.7296  -26.5395  -49.4929 H         1 UNK         0.3000 
    216 H216       -7.9765  -27.9853  -50.4657 H         1 UNK         0.0600 
    217 H217       -7.5258  -27.6111  -52.9642 H         1 UNK         0.0600 
    218 H218       -6.5665  -28.8879  -52.2444 H         1 UNK         0.0600 
    219 H219       -5.8328  -27.3234  -52.5662 H         1 UNK         0.0600 
    220 H220       -6.2241  -25.3160  -52.0769 H         1 UNK         0.3000 
    221 H221       -7.8486  -23.2100  -50.9117 H         1 UNK         0.0600 
    222 H222       -8.0336  -23.9274  -53.9019 H         1 UNK         0.0600 
    223 H223       -9.3512  -24.0727  -52.7404 H         1 UNK         0.0600 
    224 H224       -8.7197  -22.4885  -53.1556 H         1 UNK         0.0600 
    225 H225       -7.0675  -21.0951  -51.8844 H         1 UNK         0.3000 
    226 H226       -4.2158  -20.9820  -51.6859 H         1 UNK         0.0600 
    227 H227       -5.7711  -19.3108  -50.6778 H         1 UNK         0.0600 
    228 H228       -4.6106  -18.5395  -51.7479 H         1 UNK         0.0600 
    229 H229       -6.2672  -18.7888  -52.2856 H         1 UNK         0.0600 
    230 H230       -4.4005  -22.5268  -53.7911 H         1 UNK         0.3000 
    231 H231       -4.6039  -21.4654  -56.3747 H         1 UNK         0.0600 
    232 H232       -3.4123  -23.5678  -57.0402 H         1 UNK         0.0600 
    233 H233       -4.6593  -23.8869  -55.8444 H         1 UNK         0.0600 
    234 H234       -2.9641  -23.8512  -55.3613 H         1 UNK         0.0600 
    235 H235       -1.9002  -21.2677  -54.1619 H         1 UNK         0.3000 
    236 H236        0.1979  -20.5635  -55.9470 H         1 UNK         0.0600 
    237 H237        0.5611  -21.2305  -53.5745 H         1 UNK         0.0600 
    238 H238        1.2548  -19.6450  -53.8754 H         1 UNK         0.0600 
    239 H239       -0.2752  -19.7801  -53.0194 H         1 UNK         0.0600 
    240 H240       -2.5992  -18.7568  -54.8845 H         1 UNK         0.3000 
    241 H241       -1.5173  -16.1881  -55.8226 H         1 UNK         0.0600 
    242 H242       -3.5118  -17.9120  -58.7837 H         1 UNK         0.3800 
    243 H243       -2.7337  -18.8248  -57.5177 H         1 UNK         0.3800 
    244 H244       -4.3700  -16.4355  -54.8623 H         1 UNK         0.0800 
    245 H245       -3.1475  -16.6938  -53.6712 H         1 UNK         0.0800 
    246 H246       -1.2156  -13.2895  -53.4824 H         1 UNK         0.0800 
    247 H247       -0.7414  -14.8449  -54.1015 H         1 UNK         0.0800 
@<TRIPOS>BOND
     1    1    2 1    
     2    1  127 1    
     3    1  128 1    
     4    1  129 1    
     5    2    3 2    
     6    2    4 am   BACKBONE|DICT|INTERRES
     7    4    5 1    
     8    4  130 1    
     9    5    6 1    
    10    5   65 1    
    11    5  131 1    
    12    6    7 1    
    13    6  132 1    
    14    6  133 1    
    15    7    8 1    
    16    8    9 1    
    17    8  134 1    
    18    8  135 1    
    19    9   10 ar   
    20    9   14 ar   
    21   10   11 ar   
    22   10  136 1    
    23   11   12 ar   
    24   11  126 1    
    25   12   13 ar   
    26   12  137 1    
    27   13   14 ar   
    28   13   15 1    
    29   14  138 1    
    30   15   16 1    
    31   15  139 1    
    32   15  140 1    
    33   16   17 1    
    34   17   18 1    
    35   17  141 1    
    36   17  142 1    
    37   18   19 1    
    38   18   67 1    
    39   18  143 1    
    40   19   20 am   BACKBONE|DICT|INTERRES
    41   19  144 1    
    42   20   21 2    
    43   20   22 1    
    44   22   23 1    
    45   22   24 1    
    46   22  145 1    
    47   23  146 1    
    48   23  147 1    
    49   23  148 1    
    50   24   25 am   BACKBONE|DICT|INTERRES
    51   24  149 1    
    52   25   26 2    
    53   25   27 1    
    54   27   28 1    
    55   27   29 1    
    56   27  150 1    
    57   28  151 1    
    58   28  152 1    
    59   28  153 1    
    60   29   30 am   BACKBONE|DICT|INTERRES
    61   29  154 1    
    62   30   31 2    
    63   30   32 1    
    64   32   33 1    
    65   32   34 1    
    66   32  155 1    
    67   33  156 1    
    68   33  157 1    
    69   33  158 1    
    70   34   35 am   BACKBONE|DICT|INTERRES
    71   34  159 1    
    72   35   36 2    
    73   35   37 1    
    74   37   38 1    
    75   37   39 1    
    76   37  160 1    
    77   38  161 1    
    78   38  162 1    
    79   38  163 1    
    80   39   40 am   BACKBONE|DICT|INTERRES
    81   39  164 1    
    82   40   41 2    
    83   40   42 1    
    84   42   43 1    
    85   42   44 1    
    86   42  165 1    
    87   43  166 1    
    88   43  167 1    
    89   43  168 1    
    90   44   45 am   BACKBONE|DICT|INTERRES
    91   44  169 1    
    92   45   46 2    
    93   45   47 1    
    94   47   48 1    
    95   47   49 1    
    96   47  170 1    
    97   48  171 1    
    98   48  172 1    
    99   48  173 1    
   100   49   50 am   BACKBONE|DICT|INTERRES
   101   49  174 1    
   102   50   51 2    
   103   50   52 1    
   104   52   53 1    
   105   52   54 1    
   106   52  175 1    
   107   53  176 1    
   108   53  177 1    
   109   53  178 1    
   110   54   55 am   BACKBONE|DICT|INTERRES
   111   54  179 1    
   112   55   56 2    
   113   55   57 1    
   114   57   58 1    
   115   57   59 1    
   116   57  180 1    
   117   58  181 1    
   118   58  182 1    
   119   58  183 1    
   120   59   60 am   BACKBONE|DICT|INTERRES
   121   59  184 1    
   122   60   61 2    
   123   60   62 1    
   124   62   63 1    
   125   62   64 1    
   126   62  185 1    
   127   63  186 1    
   128   63  187 1    
   129   63  188 1    
   130   64   65 am   BACKBONE|DICT|INTERRES
   131   64  189 1    
   132   65   66 2    
   133   67   68 2    
   134   67   69 am   BACKBONE|DICT|INTERRES
   135   69   70 1    
   136   69  190 1    
   137   70   71 1    
   138   70   72 1    
   139   70  191 1    
   140   71  192 1    
   141   71  193 1    
   142   71  194 1    
   143   72   73 2    
   144   72   74 am   BACKBONE|DICT|INTERRES
   145   74   75 1    
   146   74  195 1    
   147   75   76 1    
   148   75   77 1    
   149   75  196 1    
   150   76  197 1    
   151   76  198 1    
   152   76  199 1    
   153   77   78 2    
   154   77   79 am   BACKBONE|DICT|INTERRES
   155   79   80 1    
   156   79  200 1    
   157   80   81 1    
   158   80   82 1    
   159   80  201 1    
   160   81  202 1    
   161   81  203 1    
   162   81  204 1    
   163   82   83 2    
   164   82   84 am   BACKBONE|DICT|INTERRES
   165   84   85 1    
   166   84  205 1    
   167   85   86 1    
   168   85   87 1    
   169   85  206 1    
   170   86  207 1    
   171   86  208 1    
   172   86  209 1    
   173   87   88 2    
   174   87   89 am   BACKBONE|DICT|INTERRES
   175   89   90 1    
   176   89  210 1    
   177   90   91 1    
   178   90   92 1    
   179   90  211 1    
   180   91  212 1    
   181   91  213 1    
   182   91  214 1    
   183   92   93 2    
   184   92   94 am   BACKBONE|DICT|INTERRES
   185   94   95 1    
   186   94  215 1    
   187   95   96 1    
   188   95   97 1    
   189   95  216 1    
   190   96  217 1    
   191   96  218 1    
   192   96  219 1    
   193   97   98 2    
   194   97   99 am   BACKBONE|DICT|INTERRES
   195   99  100 1    
   196   99  220 1    
   197  100  101 1    
   198  100  102 1    
   199  100  221 1    
   200  101  222 1    
   201  101  223 1    
   202  101  224 1    
   203  102  103 2    
   204  102  104 am   BACKBONE|DICT|INTERRES
   205  104  105 1    
   206  104  225 1    
   207  105  106 1    
   208  105  107 1    
   209  105  226 1    
   210  106  227 1    
   211  106  228 1    
   212  106  229 1    
   213  107  108 2    
   214  107  109 am   BACKBONE|DICT|INTERRES
   215  109  110 1    
   216  109  230 1    
   217  110  111 1    
   218  110  112 1    
   219  110  231 1    
   220  111  232 1    
   221  111  233 1    
   222  111  234 1    
   223  112  113 2    
   224  112  114 am   BACKBONE|DICT|INTERRES
   225  114  115 1    
   226  114  235 1    
   227  115  116 1    
   228  115  117 1    
   229  115  236 1    
   230  116  237 1    
   231  116  238 1    
   232  116  239 1    
   233  117  118 2    
   234  117  119 am   BACKBONE|DICT|INTERRES
   235  119  120 1    
   236  119  240 1    
   237  120  121 1    
   238  120  124 1    
   239  120  241 1    
   240  121  122 am   BACKBONE|DICT|INTERRES
   241  121  123 2    
   242  122  242 1    
   243  122  243 1    
   244  124  125 1    
   245  124  244 1    
   246  124  245 1    
   247  125  126 1    
   248  126  246 1    
   249  126  247 1    
@<TRIPOS>SUBSTRUCTURE
     1 UNK         1 GROUP             0       ****    0 ROOT    
