@<TRIPOS>MOLECULE
3R540
247   249    1
SMALL
USER_CHARGES


@<TRIPOS>ATOM
      1 CA          1.5942  -10.4439  -46.1159 C.3       0 UNK        -0.1800 
      2 C           2.0627  -10.4552  -47.5699 C.2       0 UNK         0.5000 
      3 O           1.4387   -9.7898  -48.3942 O.2       0 UNK        -0.5000 
      4 N           3.1218  -11.1804  -47.9593 N.am      1 UNK        -0.5000 
      5 CA          4.0535  -11.9934  -47.1655 C.3       1 UNK         0.1400 
      6 C6          3.4161  -13.2153  -46.4416 C.3       23 UNK        -0.0398 
      7 S7          2.4563  -14.3028  -47.5435 S.3       23 UNK        -0.2404 
      8 C8          3.7792  -15.3109  -48.2915 C.3       23 UNK        -0.0205 
      9 C9          3.2481  -16.4567  -49.1468 C.ar      23 UNK        -0.0193 
     10 C10         2.3386  -16.2127  -50.1821 C.ar      23 UNK        -0.1150 
     11 C11         1.8884  -17.2562  -50.9962 C.ar      23 UNK        -0.0193 
     12 C12         2.3690  -18.5498  -50.7835 C.ar      23 UNK        -0.1150 
     13 C13         3.2875  -18.8080  -49.7644 C.ar      23 UNK        -0.0193 
     14 C14         3.7150  -17.7603  -48.9422 C.ar      23 UNK        -0.1150 
     15 C15         3.8558  -20.2093  -49.5924 C.3       23 UNK        -0.0205 
     16 S16         3.0530  -21.1292  -48.2469 S.3       23 UNK        -0.2404 
     17 C17         1.3629  -21.3522  -48.8985 C.3       23 UNK        -0.0398 
     18 CA          0.5591  -22.3609  -48.0470 C.3       11 UNK         0.1400 
     19 N           0.3170  -21.8797  -46.6826 N.am      11 UNK        -0.5000 
     20 C          -0.1263  -22.6461  -45.6779 C.2       10 UNK         0.5000 
     21 O          -0.3529  -23.8493  -45.7929 O.2       10 UNK        -0.5000 
     22 CA         -0.4077  -21.9545  -44.3316 C.3       10 UNK         0.1400 
     23 CB          0.8865  -21.7673  -43.5262 C.3       10 UNK        -0.1800 
     24 N          -1.0903  -20.6701  -44.4886 N.am      10 UNK        -0.5000 
     25 C          -2.3252  -20.5276  -44.9912 C.2       9 UNK         0.5000 
     26 O          -3.0367  -21.4734  -45.3292 O.2       9 UNK        -0.5000 
     27 CA         -2.8323  -19.0887  -45.2034 C.3       9 UNK         0.1400 
     28 CB         -3.3419  -18.4820  -43.8880 C.3       9 UNK        -0.1800 
     29 N          -1.8172  -18.2134  -45.7892 N.am      9 UNK        -0.5000 
     30 C          -1.2522  -18.4052  -46.9894 C.2       8 UNK         0.5000 
     31 O          -1.5590  -19.3176  -47.7556 O.2       8 UNK        -0.5000 
     32 CA         -0.1152  -17.4464  -47.3761 C.3       8 UNK         0.1400 
     33 CB         -0.6870  -16.1210  -47.9044 C.3       8 UNK        -0.1800 
     34 N           0.8112  -17.2034  -46.2668 N.am      8 UNK        -0.5000 
     35 C           1.5447  -18.1599  -45.6773 C.2       7 UNK         0.5000 
     36 O           1.5299  -19.3379  -46.0245 O.2       7 UNK        -0.5000 
     37 CA          2.3766  -17.7537  -44.4479 C.3       7 UNK         0.1400 
     38 CB          3.6508  -17.0029  -44.8569 C.3       7 UNK        -0.1800 
     39 N           1.6086  -16.9413  -43.5063 N.am      7 UNK        -0.5000 
     40 C           0.5477  -17.3832  -42.8152 C.2       6 UNK         0.5000 
     41 O           0.1481  -18.5466  -42.8435 O.2       6 UNK        -0.5000 
     42 CA         -0.2278  -16.3339  -41.9958 C.3       6 UNK         0.1400 
     43 CB          0.3571  -16.2090  -40.5813 C.3       6 UNK        -0.1800 
     44 N          -0.2444  -15.0125  -42.6277 N.am      6 UNK        -0.5000 
     45 C          -0.7655  -14.7394  -43.8321 C.2       5 UNK         0.5000 
     46 O          -1.3291  -15.5884  -44.5236 O.2       5 UNK        -0.5000 
     47 CA         -0.6175  -13.2967  -44.3616 C.3       5 UNK         0.1400 
     48 CB         -1.8677  -12.8403  -45.1329 C.3       5 UNK        -0.1800 
     49 N          -0.3318  -12.3169  -43.3083 N.am      5 UNK        -0.5000 
     50 C           0.8772  -12.0311  -42.8121 C.2       4 UNK         0.5000 
     51 O           1.9212  -12.5746  -43.1834 O.2       4 UNK        -0.5000 
     52 CA          0.9081  -10.9995  -41.6774 C.3       4 UNK         0.1400 
     53 CB          0.4538  -11.6298  -40.3485 C.3       4 UNK        -0.1800 
     54 N           2.2646  -10.4870  -41.5365 N.am      4 UNK        -0.5000 
     55 C           2.5968   -9.2707  -41.0898 C.2       3 UNK         0.5000 
     56 O           1.7738   -8.4391  -40.7040 O.2       3 UNK        -0.5000 
     57 CA          4.0980   -8.9149  -41.0593 C.3       3 UNK         0.1400 
     58 CB          4.6372   -8.9922  -39.6222 C.3       3 UNK        -0.1800 
     59 N           4.9275   -9.7652  -41.9185 N.am      3 UNK        -0.5000 
     60 C           4.9325   -9.7325  -43.2578 C.2       2 UNK         0.5000 
     61 O           4.2319   -8.9593  -43.9133 O.2       2 UNK        -0.5000 
     62 CA          5.8634  -10.7258  -43.9869 C.3       2 UNK         0.1400 
     63 CB          6.5603  -11.7374  -43.0532 C.3       2 UNK        -0.1800 
     64 N           5.1079  -11.4712  -44.9915 N.am      2 UNK        -0.5000 
     65 C           4.9422  -11.1002  -46.2684 C.2       1 UNK         0.5000 
     66 O           5.4736  -10.1027  -46.7619 O.2       1 UNK        -0.5000 
     67 C          -0.7468  -22.7906  -48.7494 C.2       11 UNK         0.5000 
     68 O          -0.7586  -23.8305  -49.4078 O.2       11 UNK        -0.5000 
     69 N          -1.8372  -22.0347  -48.5526 N.am      12 UNK        -0.5000 
     70 CA         -3.1786  -22.3842  -49.0268 C.3       12 UNK         0.1400 
     71 CB         -4.1318  -21.1995  -48.8107 C.3       12 UNK        -0.1800 
     72 C          -3.7295  -23.6600  -48.3596 C.2       12 UNK         0.5000 
     73 O          -4.3284  -24.4916  -49.0433 O.2       12 UNK        -0.5000 
     74 N          -3.4863  -23.8122  -47.0495 N.am      13 UNK        -0.5000 
     75 CA         -3.8303  -25.0053  -46.2747 C.3       13 UNK         0.1400 
     76 CB         -3.6660  -24.7213  -44.7746 C.3       13 UNK        -0.1800 
     77 C          -3.0135  -26.2407  -46.6956 C.2       13 UNK         0.5000 
     78 O          -3.5811  -27.3267  -46.8070 O.2       13 UNK        -0.5000 
     79 N          -1.7150  -26.0557  -46.9750 N.am      14 UNK        -0.5000 
     80 CA         -0.8206  -27.0855  -47.5154 C.3       14 UNK         0.1400 
     81 CB          0.6270  -26.5727  -47.5023 C.3       14 UNK        -0.1800 
     82 C          -1.2260  -27.5456  -48.9299 C.2       14 UNK         0.5000 
     83 O          -1.0827  -28.7252  -49.2517 O.2       14 UNK        -0.5000 
     84 N          -1.7803  -26.6198  -49.7240 N.am      15 UNK        -0.5000 
     85 CA         -2.4104  -26.8735  -51.0216 C.3       15 UNK         0.1400 
     86 CB         -2.3996  -25.5706  -51.8397 C.3       15 UNK        -0.1800 
     87 C          -3.8426  -27.4450  -50.9085 C.2       15 UNK         0.5000 
     88 O          -4.5016  -27.6110  -51.9354 O.2       15 UNK        -0.5000 
     89 N          -4.3161  -27.7111  -49.6801 N.am      16 UNK        -0.5000 
     90 CA         -5.6183  -28.2828  -49.3167 C.3       16 UNK         0.1400 
     91 CB         -5.7217  -29.7399  -49.8136 C.3       16 UNK        -0.1800 
     92 C          -6.8236  -27.4228  -49.7505 C.2       16 UNK         0.5000 
     93 O          -7.9224  -27.9559  -49.9155 O.2       16 UNK        -0.5000 
     94 N          -6.5943  -26.1137  -49.9418 N.am      17 UNK        -0.5000 
     95 CA         -7.5303  -25.1193  -50.4748 C.3       17 UNK         0.1400 
     96 CB         -8.6428  -24.8184  -49.4497 C.3       17 UNK        -0.1800 
     97 C          -8.0769  -25.4826  -51.8754 C.2       17 UNK         0.5000 
     98 O          -9.2204  -25.1520  -52.1951 O.2       17 UNK        -0.5000 
     99 N          -7.2499  -26.1563  -52.6926 N.am      18 UNK        -0.5000 
    100 CA        -7.5784  -26.5797  -54.0592 C.3       18 UNK         0.1400 
    101 CB        -6.4974  -27.5505  -54.5571 C.3       18 UNK        -0.1800 
    102 C         -7.7477  -25.4067  -55.0465 C.2       18 UNK         0.5000 
    103 O         -8.4050  -25.5663  -56.0761 O.2       18 UNK        -0.5000 
    104 N         -7.1707  -24.2523  -54.7026 N.am      19 UNK        -0.5000 
    105 CA        -7.3695  -22.9624  -55.3457 C.3       19 UNK         0.1400 
    106 CB        -6.1269  -22.6179  -56.1837 C.3       19 UNK        -0.1800 
    107 C         -7.5912  -21.9190  -54.2411 C.2       19 UNK         0.5000 
    108 O         -7.2054  -22.1494  -53.0907 O.2       19 UNK        -0.5000 
    109 N         -8.1910  -20.7813  -54.6121 N.am      20 UNK        -0.5000 
    110 CA        -8.3856  -19.6319  -53.7232 C.3       20 UNK         0.1400 
    111 CB        -9.4349  -18.6925  -54.3377 C.3       20 UNK        -0.1800 
    112 C         -7.0743  -18.8702  -53.4440 C.2       20 UNK         0.5000 
    113 O         -6.9455  -18.2443  -52.3910 O.2       20 UNK        -0.5000 
    114 N         -6.1299  -18.9385  -54.3914 N.am      21 UNK        -0.5000 
    115 CA        -4.7812  -18.3945  -54.2691 C.3       21 UNK         0.1400 
    116 CB        -4.1818  -18.2424  -55.6760 C.3       21 UNK        -0.1800 
    117 C         -3.8897  -19.3009  -53.4014 C.2       21 UNK         0.5000 
    118 O         -4.0798  -20.5187  -53.3752 O.2       21 UNK        -0.5000 
    119 N         -2.9044  -18.6854  -52.7428 N.am      22 UNK        -0.5000 
    120 CA        -1.8848  -19.3506  -51.9164 C.3       22 UNK         0.1400 
    121 C         -0.7991  -20.1447  -52.7001 C.2       22 UNK         0.5000 
    122 N         -0.6993  -20.0204  -54.0179 N.am      22 UNK        -0.7600 
    123 O         -0.0374  -20.8953  -52.0988 O.2       22 UNK        -0.5000 
    124 C124       -1.2571  -18.3687  -50.8918 C.3       23 UNK        -0.0398 
    125 S125       -0.7895  -16.7315  -51.5671 S.3       23 UNK        -0.2404 
    126 C126        0.9211  -16.9817  -52.1367 C.3       23 UNK        -0.0205 
    127 H127        0.8827  -11.2509  -45.9535 H         1 UNK         0.0600 
    128 H128        2.4044  -10.5429  -45.3981 H         1 UNK         0.0600 
    129 H129        1.0862   -9.5054  -45.8939 H         1 UNK         0.0600 
    130 H130        3.3734  -11.1262  -48.9357 H         1 UNK         0.3000 
    131 H131        4.7483  -12.4048  -47.8989 H         1 UNK         0.0600 
    132 H132        4.1881  -13.8217  -45.9657 H         1 UNK         0.0800 
    133 H133        2.7493  -12.8963  -45.6426 H         1 UNK         0.0800 
    134 H134        4.4033  -14.6724  -48.9175 H         1 UNK         0.0800 
    135 H135        4.4258  -15.6969  -47.5028 H         1 UNK         0.0800 
    136 H136        1.9823  -15.2073  -50.3572 H         1 UNK         0.1150 
    137 H137        2.0416  -19.3561  -51.4245 H         1 UNK         0.1150 
    138 H138        4.4318  -17.9610  -48.1586 H         1 UNK         0.1150 
    139 H139        3.7694  -20.7769  -50.5203 H         1 UNK         0.0800 
    140 H140        4.9235  -20.1409  -49.3796 H         1 UNK         0.0800 
    141 H141        1.4415  -21.6975  -49.9310 H         1 UNK         0.0800 
    142 H142        0.8595  -20.3850  -48.9272 H         1 UNK         0.0800 
    143 H143        1.1667  -23.2643  -47.9599 H         1 UNK         0.0600 
    144 H144        0.5528  -20.9082  -46.4947 H         1 UNK         0.3000 
    145 H145       -1.0660  -22.6091  -43.7570 H         1 UNK         0.0600 
    146 H146        0.6798  -21.3480  -42.5414 H         1 UNK         0.0600 
    147 H147        1.3923  -22.7216  -43.3745 H         1 UNK         0.0600 
    148 H148        1.5864  -21.1023  -44.0317 H         1 UNK         0.0600 
    149 H149       -0.5785  -19.8439  -44.1960 H         1 UNK         0.3000 
    150 H150       -3.6697  -19.1329  -45.9026 H         1 UNK         0.0600 
    151 H151       -4.1443  -19.0879  -43.4656 H         1 UNK         0.0600 
    152 H152       -3.7376  -17.4780  -44.0436 H         1 UNK         0.0600 
    153 H153       -2.5520  -18.4176  -43.1402 H         1 UNK         0.0600 
    154 H154       -1.5300  -17.4067  -45.2424 H         1 UNK         0.3000 
    155 H155        0.4494  -17.9166  -48.1838 H         1 UNK         0.0600 
    156 H156        0.0651  -15.5584  -48.4532 H         1 UNK         0.0600 
    157 H157       -1.0651  -15.4875  -47.1041 H         1 UNK         0.0600 
    158 H158       -1.5127  -16.2932  -48.5950 H         1 UNK         0.0600 
    159 H159        0.8498  -16.2626  -45.9072 H         1 UNK         0.3000 
    160 H160        2.6768  -18.6708  -43.9363 H         1 UNK         0.0600 
    161 H161        3.4189  -16.0298  -45.2856 H         1 UNK         0.0600 
    162 H162        4.2178  -17.5673  -45.5983 H         1 UNK         0.0600 
    163 H163        4.3047  -16.8426  -43.9997 H         1 UNK         0.0600 
    164 H164        1.8662  -15.9692  -43.4213 H         1 UNK         0.3000 
    165 H165       -1.2609  -16.6762  -41.9115 H         1 UNK         0.0600 
    166 H166        1.3835  -15.8402  -40.6002 H         1 UNK         0.0600 
    167 H167       -0.2335  -15.5273  -39.9689 H         1 UNK         0.0600 
    168 H168        0.3642  -17.1755  -40.0756 H         1 UNK         0.0600 
    169 H169        0.2126  -14.2642  -42.1290 H         1 UNK         0.3000 
    170 H170        0.2172  -13.3169  -45.0644 H         1 UNK         0.0600 
    171 H171       -2.0725  -13.4957  -45.9802 H         1 UNK         0.0600 
    172 H172       -2.7535  -12.8393  -44.4968 H         1 UNK         0.0600 
    173 H173       -1.7387  -11.8340  -45.5319 H         1 UNK         0.0600 
    174 H174       -1.1372  -11.8462  -42.9201 H         1 UNK         0.3000 
    175 H175        0.2352  -10.1822  -41.9462 H         1 UNK         0.0600 
    176 H176        0.4570  -10.8957  -39.5426 H         1 UNK         0.0600 
    177 H177       -0.5611  -12.0221  -40.4220 H         1 UNK         0.0600 
    178 H178        1.1049  -12.4531  -40.0515 H         1 UNK         0.0600 
    179 H179        2.9851  -11.1029  -41.8894 H         1 UNK         0.3000 
    180 H180        4.1947   -7.8833  -41.4043 H         1 UNK         0.0600 
    181 H181        4.5782  -10.0061  -39.2244 H         1 UNK         0.0600 
    182 H182        4.0671   -8.3445  -38.9548 H         1 UNK         0.0600 
    183 H183        5.6777   -8.6707  -39.5726 H         1 UNK         0.0600 
    184 H184        5.5296  -10.4262  -41.4491 H         1 UNK         0.3000 
    185 H185        6.6419  -10.1339  -44.4724 H         1 UNK         0.0600 
    186 H186        7.2050  -12.4079  -43.6219 H         1 UNK         0.0600 
    187 H187        7.1968  -11.2344  -42.3240 H         1 UNK         0.0600 
    188 H188        5.8435  -12.3550  -42.5100 H         1 UNK         0.0600 
    189 H189        4.6094  -12.2786  -44.6475 H         1 UNK         0.3000 
    190 H190       -1.7465  -21.1606  -48.0397 H         1 UNK         0.3000 
    191 H191       -3.1132  -22.5727  -50.1004 H         1 UNK         0.0600 
    192 H192       -3.7797  -20.3070  -49.3274 H         1 UNK         0.0600 
    193 H193       -5.1275  -21.4258  -49.1945 H         1 UNK         0.0600 
    194 H194       -4.2344  -20.9522  -47.7539 H         1 UNK         0.0600 
    195 H195       -3.0451  -23.0516  -46.5415 H         1 UNK         0.3000 
    196 H196       -4.8832  -25.2286  -46.4599 H         1 UNK         0.0600 
    197 H197       -3.9504  -25.5900  -44.1797 H         1 UNK         0.0600 
    198 H198       -4.2978  -23.8905  -44.4600 H         1 UNK         0.0600 
    199 H199       -2.6362  -24.4724  -44.5197 H         1 UNK         0.0600 
    200 H200       -1.2992  -25.1482  -46.7802 H         1 UNK         0.3000 
    201 H201       -0.8782  -27.9541  -46.8564 H         1 UNK         0.0600 
    202 H202        0.9385  -26.2949  -46.4953 H         1 UNK         0.0600 
    203 H203        0.7514  -25.7008  -48.1440 H         1 UNK         0.0600 
    204 H204        1.3159  -27.3408  -47.8560 H         1 UNK         0.0600 
    205 H205       -1.7926  -25.6581  -49.4019 H         1 UNK         0.3000 
    206 H206       -1.8135  -27.6127  -51.5591 H         1 UNK         0.0600 
    207 H207       -1.3879  -25.1773  -51.9417 H         1 UNK         0.0600 
    208 H208       -2.7858  -25.7335  -52.8466 H         1 UNK         0.0600 
    209 H209       -3.0118  -24.7978  -51.3755 H         1 UNK         0.0600 
    210 H210       -3.7195  -27.5006  -48.8891 H         1 UNK         0.3000 
    211 H211       -5.6478  -28.3059  -48.2270 H         1 UNK         0.0600 
    212 H212       -5.7754  -29.7933  -50.9015 H         1 UNK         0.0600 
    213 H213       -6.6132  -30.2279  -49.4182 H         1 UNK         0.0600 
    214 H214       -4.8628  -30.3279  -49.4904 H         1 UNK         0.0600 
    215 H215       -5.6640  -25.7582  -49.7359 H         1 UNK         0.3000 
    216 H216       -6.9521  -24.2037  -50.6087 H         1 UNK         0.0600 
    217 H217       -8.2220  -24.5490  -48.4809 H         1 UNK         0.0600 
    218 H218       -9.3016  -25.6748  -49.3039 H         1 UNK         0.0600 
    219 H219       -9.2607  -23.9815  -49.7772 H         1 UNK         0.0600 
    220 H220       -6.3396  -26.4350  -52.3447 H         1 UNK         0.3000 
    221 H221       -8.5287  -27.1162  -54.0246 H         1 UNK         0.0600 
    222 H222       -5.5162  -27.0751  -54.5909 H         1 UNK         0.0600 
    223 H223       -6.4239  -28.4241  -53.9090 H         1 UNK         0.0600 
    224 H224       -6.7245  -27.9097  -55.5617 H         1 UNK         0.0600 
    225 H225       -6.7127  -24.1969  -53.8023 H         1 UNK         0.3000 
    226 H226       -8.2538  -22.9857  -55.9861 H         1 UNK         0.0600 
    227 H227       -5.9403  -23.3792  -56.9413 H         1 UNK         0.0600 
    228 H228       -6.2535  -21.6675  -56.7031 H         1 UNK         0.0600 
    229 H229       -5.2332  -22.5371  -55.5628 H         1 UNK         0.0600 
    230 H230       -8.4960  -20.6705  -55.5687 H         1 UNK         0.3000 
    231 H231       -8.7698  -19.9923  -52.7663 H         1 UNK         0.0600 
    232 H232       -9.6212  -17.8371  -53.6868 H         1 UNK         0.0600 
    233 H233      -10.3870  -19.2039  -54.4804 H         1 UNK         0.0600 
    234 H234       -9.1124  -18.3047  -55.3048 H         1 UNK         0.0600 
    235 H235       -6.3109  -19.5102  -55.2018 H         1 UNK         0.3000 
    236 H236       -4.8409  -17.4068  -53.8065 H         1 UNK         0.0600 
    237 H237       -3.1860  -17.7996  -55.6324 H         1 UNK         0.0600 
    238 H238       -4.0921  -19.2047  -56.1821 H         1 UNK         0.0600 
    239 H239       -4.7969  -17.5922  -56.2984 H         1 UNK         0.0600 
    240 H240       -2.7972  -17.6844  -52.8290 H         1 UNK         0.3000 
    241 H241       -2.4041  -20.1135  -51.3333 H         1 UNK         0.0600 
    242 H242       -1.3209  -19.4145  -54.5272 H         1 UNK         0.3800 
    243 H243        0.0024  -20.5491  -54.5111 H         1 UNK         0.3800 
    244 H244       -2.0008  -18.1745  -50.1190 H         1 UNK         0.0800 
    245 H245       -0.4154  -18.8184  -50.3650 H         1 UNK         0.0800 
    246 H246        0.9490  -17.7869  -52.8714 H         1 UNK         0.0800 
    247 H247        1.2436  -16.0844  -52.6667 H         1 UNK         0.0800 
@<TRIPOS>BOND
     1    1    2 1    
     2    1  127 1    
     3    1  128 1    
     4    1  129 1    
     5    2    3 2    
     6    2    4 am   BACKBONE|DICT|INTERRES
     7    4    5 1    
     8    4  130 1    
     9    5    6 1    
    10    5   65 1    
    11    5  131 1    
    12    6    7 1    
    13    6  132 1    
    14    6  133 1    
    15    7    8 1    
    16    8    9 1    
    17    8  134 1    
    18    8  135 1    
    19    9   10 ar   
    20    9   14 ar   
    21   10   11 ar   
    22   10  136 1    
    23   11   12 ar   
    24   11  126 1    
    25   12   13 ar   
    26   12  137 1    
    27   13   14 ar   
    28   13   15 1    
    29   14  138 1    
    30   15   16 1    
    31   15  139 1    
    32   15  140 1    
    33   16   17 1    
    34   17   18 1    
    35   17  141 1    
    36   17  142 1    
    37   18   19 1    
    38   18   67 1    
    39   18  143 1    
    40   19   20 am   BACKBONE|DICT|INTERRES
    41   19  144 1    
    42   20   21 2    
    43   20   22 1    
    44   22   23 1    
    45   22   24 1    
    46   22  145 1    
    47   23  146 1    
    48   23  147 1    
    49   23  148 1    
    50   24   25 am   BACKBONE|DICT|INTERRES
    51   24  149 1    
    52   25   26 2    
    53   25   27 1    
    54   27   28 1    
    55   27   29 1    
    56   27  150 1    
    57   28  151 1    
    58   28  152 1    
    59   28  153 1    
    60   29   30 am   BACKBONE|DICT|INTERRES
    61   29  154 1    
    62   30   31 2    
    63   30   32 1    
    64   32   33 1    
    65   32   34 1    
    66   32  155 1    
    67   33  156 1    
    68   33  157 1    
    69   33  158 1    
    70   34   35 am   BACKBONE|DICT|INTERRES
    71   34  159 1    
    72   35   36 2    
    73   35   37 1    
    74   37   38 1    
    75   37   39 1    
    76   37  160 1    
    77   38  161 1    
    78   38  162 1    
    79   38  163 1    
    80   39   40 am   BACKBONE|DICT|INTERRES
    81   39  164 1    
    82   40   41 2    
    83   40   42 1    
    84   42   43 1    
    85   42   44 1    
    86   42  165 1    
    87   43  166 1    
    88   43  167 1    
    89   43  168 1    
    90   44   45 am   BACKBONE|DICT|INTERRES
    91   44  169 1    
    92   45   46 2    
    93   45   47 1    
    94   47   48 1    
    95   47   49 1    
    96   47  170 1    
    97   48  171 1    
    98   48  172 1    
    99   48  173 1    
   100   49   50 am   BACKBONE|DICT|INTERRES
   101   49  174 1    
   102   50   51 2    
   103   50   52 1    
   104   52   53 1    
   105   52   54 1    
   106   52  175 1    
   107   53  176 1    
   108   53  177 1    
   109   53  178 1    
   110   54   55 am   BACKBONE|DICT|INTERRES
   111   54  179 1    
   112   55   56 2    
   113   55   57 1    
   114   57   58 1    
   115   57   59 1    
   116   57  180 1    
   117   58  181 1    
   118   58  182 1    
   119   58  183 1    
   120   59   60 am   BACKBONE|DICT|INTERRES
   121   59  184 1    
   122   60   61 2    
   123   60   62 1    
   124   62   63 1    
   125   62   64 1    
   126   62  185 1    
   127   63  186 1    
   128   63  187 1    
   129   63  188 1    
   130   64   65 am   BACKBONE|DICT|INTERRES
   131   64  189 1    
   132   65   66 2    
   133   67   68 2    
   134   67   69 am   BACKBONE|DICT|INTERRES
   135   69   70 1    
   136   69  190 1    
   137   70   71 1    
   138   70   72 1    
   139   70  191 1    
   140   71  192 1    
   141   71  193 1    
   142   71  194 1    
   143   72   73 2    
   144   72   74 am   BACKBONE|DICT|INTERRES
   145   74   75 1    
   146   74  195 1    
   147   75   76 1    
   148   75   77 1    
   149   75  196 1    
   150   76  197 1    
   151   76  198 1    
   152   76  199 1    
   153   77   78 2    
   154   77   79 am   BACKBONE|DICT|INTERRES
   155   79   80 1    
   156   79  200 1    
   157   80   81 1    
   158   80   82 1    
   159   80  201 1    
   160   81  202 1    
   161   81  203 1    
   162   81  204 1    
   163   82   83 2    
   164   82   84 am   BACKBONE|DICT|INTERRES
   165   84   85 1    
   166   84  205 1    
   167   85   86 1    
   168   85   87 1    
   169   85  206 1    
   170   86  207 1    
   171   86  208 1    
   172   86  209 1    
   173   87   88 2    
   174   87   89 am   BACKBONE|DICT|INTERRES
   175   89   90 1    
   176   89  210 1    
   177   90   91 1    
   178   90   92 1    
   179   90  211 1    
   180   91  212 1    
   181   91  213 1    
   182   91  214 1    
   183   92   93 2    
   184   92   94 am   BACKBONE|DICT|INTERRES
   185   94   95 1    
   186   94  215 1    
   187   95   96 1    
   188   95   97 1    
   189   95  216 1    
   190   96  217 1    
   191   96  218 1    
   192   96  219 1    
   193   97   98 2    
   194   97   99 am   BACKBONE|DICT|INTERRES
   195   99  100 1    
   196   99  220 1    
   197  100  101 1    
   198  100  102 1    
   199  100  221 1    
   200  101  222 1    
   201  101  223 1    
   202  101  224 1    
   203  102  103 2    
   204  102  104 am   BACKBONE|DICT|INTERRES
   205  104  105 1    
   206  104  225 1    
   207  105  106 1    
   208  105  107 1    
   209  105  226 1    
   210  106  227 1    
   211  106  228 1    
   212  106  229 1    
   213  107  108 2    
   214  107  109 am   BACKBONE|DICT|INTERRES
   215  109  110 1    
   216  109  230 1    
   217  110  111 1    
   218  110  112 1    
   219  110  231 1    
   220  111  232 1    
   221  111  233 1    
   222  111  234 1    
   223  112  113 2    
   224  112  114 am   BACKBONE|DICT|INTERRES
   225  114  115 1    
   226  114  235 1    
   227  115  116 1    
   228  115  117 1    
   229  115  236 1    
   230  116  237 1    
   231  116  238 1    
   232  116  239 1    
   233  117  118 2    
   234  117  119 am   BACKBONE|DICT|INTERRES
   235  119  120 1    
   236  119  240 1    
   237  120  121 1    
   238  120  124 1    
   239  120  241 1    
   240  121  122 am   BACKBONE|DICT|INTERRES
   241  121  123 2    
   242  122  242 1    
   243  122  243 1    
   244  124  125 1    
   245  124  244 1    
   246  124  245 1    
   247  125  126 1    
   248  126  246 1    
   249  126  247 1    
@<TRIPOS>SUBSTRUCTURE
     1 UNK         1 GROUP             0       ****    0 ROOT    
