@<TRIPOS>MOLECULE
3R540
247   249    1
SMALL
USER_CHARGES


@<TRIPOS>ATOM
      1 CA          2.0639   -9.5838  -45.3211 C.3       0 UNK        -0.1800 
      2 C           0.6384   -9.2571  -45.7603 C.2       0 UNK         0.5000 
      3 O           0.0793   -8.2657  -45.2972 O.2       0 UNK        -0.5000 
      4 N           0.0085  -10.0398  -46.6480 N.am      1 UNK        -0.5000 
      5 CA          0.4926  -11.2971  -47.2278 C.3       1 UNK         0.1400 
      6 C6         -0.2740  -11.6347  -48.5301 C.3       23 UNK        -0.0398 
      7 S7          0.4528  -13.0039  -49.4952 S.3       23 UNK        -0.2404 
      8 C8         -0.6376  -14.3856  -49.0302 C.3       23 UNK        -0.0205 
      9 C9         -0.6753  -15.4459  -50.1181 C.ar      23 UNK        -0.0193 
     10 C10        -1.6757  -15.4107  -51.0941 C.ar      23 UNK        -0.1150 
     11 C11        -1.7086  -16.3684  -52.1114 C.ar      23 UNK        -0.0193 
     12 C12        -0.7332  -17.3682  -52.1456 C.ar      23 UNK        -0.1150 
     13 C13         0.2644  -17.4212  -51.1685 C.ar      23 UNK        -0.0193 
     14 C14         0.2885  -16.4571  -50.1554 C.ar      23 UNK        -0.1150 
     15 C15         1.3276  -18.5076  -51.2266 C.3       23 UNK        -0.0205 
     16 S16         0.6666  -20.1462  -50.7900 S.3       23 UNK        -0.2404 
     17 C17         0.2868  -19.9264  -49.0212 C.3       23 UNK        -0.0398 
     18 CA         -1.1042  -20.4719  -48.6260 C.3       11 UNK         0.1400 
     19 N          -1.1953  -20.7094  -47.1842 N.am      11 UNK        -0.5000 
     20 C          -2.2013  -21.3448  -46.5707 C.2       10 UNK         0.5000 
     21 O          -3.1372  -21.8749  -47.1695 O.2       10 UNK        -0.5000 
     22 CA         -2.1775  -21.3620  -45.0321 C.3       10 UNK         0.1400 
     23 CB         -1.2851  -22.5005  -44.5178 C.3       10 UNK        -0.1800 
     24 N          -1.7355  -20.0876  -44.4612 N.am      10 UNK        -0.5000 
     25 C          -2.3991  -18.9299  -44.5952 C.2       9 UNK         0.5000 
     26 O          -3.4811  -18.8283  -45.1704 O.2       9 UNK        -0.5000 
     27 CA         -1.7189  -17.6626  -44.0500 C.3       9 UNK         0.1400 
     28 CB         -1.8801  -17.5665  -42.5262 C.3       9 UNK        -0.1800 
     29 N          -0.3043  -17.5876  -44.4163 N.am      9 UNK        -0.5000 
     30 C           0.1468  -17.5109  -45.6770 C.2       8 UNK         0.5000 
     31 O          -0.5854  -17.4141  -46.6606 O.2       8 UNK        -0.5000 
     32 CA          1.6669  -17.6187  -45.8795 C.3       8 UNK         0.1400 
     33 CB          2.3441  -16.2498  -45.7191 C.3       8 UNK        -0.1800 
     34 N           2.2685  -18.5921  -44.9663 N.am      8 UNK        -0.5000 
     35 C           2.0859  -19.9180  -45.0573 C.2       7 UNK         0.5000 
     36 O           1.4192  -20.4529  -45.9412 O.2       7 UNK        -0.5000 
     37 CA          2.7118  -20.7899  -43.9535 C.3       7 UNK         0.1400 
     38 CB          4.1940  -21.0595  -44.2518 C.3       7 UNK        -0.1800 
     39 N           2.5857  -20.1875  -42.6273 N.am      7 UNK        -0.5000 
     40 C           1.4232  -19.9791  -41.9923 C.2       6 UNK         0.5000 
     41 O           0.3334  -20.3506  -42.4262 O.2       6 UNK        -0.5000 
     42 CA          1.4880  -19.1658  -40.6833 C.3       6 UNK         0.1400 
     43 CB          1.6629  -20.0987  -39.4763 C.3       6 UNK        -0.1800 
     44 N           2.5605  -18.1640  -40.6852 N.am      6 UNK        -0.5000 
     45 C           2.6354  -17.1425  -41.5483 C.2       5 UNK         0.5000 
     46 O           1.7806  -16.9107  -42.4062 O.2       5 UNK        -0.5000 
     47 CA          3.9192  -16.3062  -41.5096 C.3       5 UNK         0.1400 
     48 CB          5.0530  -17.0706  -42.2267 C.3       5 UNK        -0.1800 
     49 N           3.6680  -15.0271  -42.1670 N.am      5 UNK        -0.5000 
     50 C           4.5065  -13.9847  -42.2016 C.2       4 UNK         0.5000 
     51 O           5.6026  -13.9664  -41.6397 O.2       4 UNK        -0.5000 
     52 CA          4.0484  -12.7471  -42.9941 C.3       4 UNK         0.1400 
     53 CB          4.4209  -12.8931  -44.4774 C.3       4 UNK        -0.1800 
     54 N           2.6150  -12.4722  -42.8752 N.am      4 UNK        -0.5000 
     55 C           2.0193  -12.0458  -41.7498 C.2       3 UNK         0.5000 
     56 O           2.6197  -11.8876  -40.6861 O.2       3 UNK        -0.5000 
     57 CA          0.5150  -11.7025  -41.8089 C.3       3 UNK         0.1400 
     58 CB          0.3047  -10.1849  -41.6831 C.3       3 UNK        -0.1800 
     59 N          -0.1548  -12.1628  -43.0249 N.am      3 UNK        -0.5000 
     60 C          -0.4474  -13.4393  -43.3032 C.2       2 UNK         0.5000 
     61 O          -0.2100  -14.3699  -42.5372 O.2       2 UNK        -0.5000 
     62 CA         -1.0877  -13.7233  -44.6765 C.3       2 UNK         0.1400 
     63 CB         -2.6088  -13.8896  -44.5408 C.3       2 UNK        -0.1800 
     64 N          -0.8090  -12.6924  -45.6826 N.am      2 UNK        -0.5000 
     65 C           0.4065  -12.4275  -46.1838 C.2       1 UNK         0.5000 
     66 O           1.4329  -12.9897  -45.8058 O.2       1 UNK        -0.5000 
     67 C          -2.2695  -19.6013  -49.1451 C.2       11 UNK         0.5000 
     68 O          -2.8557  -19.9310  -50.1746 O.2       11 UNK        -0.5000 
     69 N          -2.6235  -18.5511  -48.3939 N.am      12 UNK        -0.5000 
     70 CA         -3.7445  -17.6657  -48.6930 C.3       12 UNK         0.1400 
     71 CB         -3.6318  -16.3997  -47.8271 C.3       12 UNK        -0.1800 
     72 C          -5.1146  -18.3383  -48.4841 C.2       12 UNK         0.5000 
     73 O          -5.9467  -18.3226  -49.3915 O.2       12 UNK        -0.5000 
     74 N          -5.3446  -18.8708  -47.2765 N.am      13 UNK        -0.5000 
     75 CA         -6.6678  -19.2845  -46.8083 C.3       13 UNK         0.1400 
     76 CB         -6.7263  -19.1395  -45.2795 C.3       13 UNK        -0.1800 
     77 C          -7.0563  -20.7140  -47.2145 C.2       13 UNK         0.5000 
     78 O          -8.2333  -20.9584  -47.4832 O.2       13 UNK        -0.5000 
     79 N          -6.0843  -21.6340  -47.2250 N.am      14 UNK        -0.5000 
     80 CA         -6.3017  -23.0683  -47.4375 C.3       14 UNK         0.1400 
     81 CB         -5.7803  -23.8315  -46.2059 C.3       14 UNK        -0.1800 
     82 C          -5.6324  -23.5759  -48.7257 C.2       14 UNK         0.5000 
     83 O          -5.5807  -24.7892  -48.9370 O.2       14 UNK        -0.5000 
     84 N          -5.0908  -22.6595  -49.5441 N.am      15 UNK        -0.5000 
     85 CA         -4.3444  -22.9208  -50.7813 C.3       15 UNK         0.1400 
     86 CB         -5.2897  -23.4810  -51.8639 C.3       15 UNK        -0.1800 
     87 C          -3.0989  -23.8067  -50.5542 C.2       15 UNK         0.5000 
     88 O          -2.7310  -24.5847  -51.4337 O.2       15 UNK        -0.5000 
     89 N          -2.5072  -23.7197  -49.3519 N.am      16 UNK        -0.5000 
     90 CA         -1.4164  -24.5582  -48.8402 C.3       16 UNK         0.1400 
     91 CB         -0.1044  -24.2825  -49.6069 C.3       16 UNK        -0.1800 
     92 C          -1.7932  -26.0565  -48.8090 C.2       16 UNK         0.5000 
     93 O          -0.9657  -26.9063  -49.1357 O.2       16 UNK        -0.5000 
     94 N          -3.0574  -26.3451  -48.4602 N.am      17 UNK        -0.5000 
     95 CA         -3.7142  -27.6569  -48.5246 C.3       17 UNK         0.1400 
     96 CB         -3.0628  -28.6651  -47.5546 C.3       17 UNK        -0.1800 
     97 C          -3.8180  -28.1730  -49.9763 C.2       17 UNK         0.5000 
     98 O          -3.5701  -29.3498  -50.2433 O.2       17 UNK        -0.5000 
     99 N          -4.1685  -27.2511  -50.8848 N.am      18 UNK        -0.5000 
    100 CA        -4.2966  -27.4068  -52.3385 C.3       18 UNK         0.1400 
    101 CB        -5.3979  -28.4279  -52.6923 C.3       18 UNK        -0.1800 
    102 C         -2.9663  -27.6812  -53.0757 C.2       18 UNK         0.5000 
    103 O         -2.9932  -28.1248  -54.2254 O.2       18 UNK        -0.5000 
    104 N         -1.8265  -27.3947  -52.4307 N.am      19 UNK        -0.5000 
    105 CA        -0.4977  -27.4491  -53.0454 C.3       19 UNK         0.1400 
    106 CB         0.5611  -27.6631  -51.9539 C.3       19 UNK        -0.1800 
    107 C         -0.1788  -26.1814  -53.8627 C.2       19 UNK         0.5000 
    108 O          0.6572  -26.2409  -54.7656 O.2       19 UNK        -0.5000 
    109 N         -0.8436  -25.0681  -53.5355 N.am      20 UNK        -0.5000 
    110 CA        -0.7698  -23.7818  -54.2195 C.3       20 UNK         0.1400 
    111 CB        -0.2416  -22.7338  -53.2215 C.3       20 UNK        -0.1800 
    112 C         -2.1652  -23.4087  -54.7550 C.2       20 UNK         0.5000 
    113 O         -3.0921  -24.2215  -54.7027 O.2       20 UNK        -0.5000 
    114 N         -2.2949  -22.1825  -55.2686 N.am      21 UNK        -0.5000 
    115 CA        -3.5411  -21.5868  -55.7366 C.3       21 UNK         0.1400 
    116 CB        -3.8958  -22.1220  -57.1368 C.3       21 UNK        -0.1800 
    117 C         -3.3741  -20.0612  -55.7579 C.2       21 UNK         0.5000 
    118 O         -2.2445  -19.5747  -55.8660 O.2       21 UNK        -0.5000 
    119 N         -4.5004  -19.3454  -55.6795 N.am      22 UNK        -0.5000 
    120 CA        -4.5795  -17.8743  -55.7484 C.3       22 UNK         0.1400 
    121 C         -5.3957  -17.3649  -56.9736 C.2       22 UNK         0.5000 
    122 N         -5.8157  -18.2183  -57.9005 N.am      22 UNK        -0.7600 
    123 O         -5.6392  -16.1681  -57.1022 O.2       22 UNK        -0.5000 
    124 C124       -5.0971  -17.2555  -54.4205 C.3       23 UNK        -0.0398 
    125 S125       -4.0234  -17.6132  -52.9888 S.3       23 UNK        -0.2404 
    126 C126       -2.7742  -16.3066  -53.1933 C.3       23 UNK        -0.0205 
    127 H127        2.7249   -9.7061  -46.1785 H         1 UNK         0.0600 
    128 H128        2.0863  -10.4933  -44.7252 H         1 UNK         0.0600 
    129 H129        2.4676   -8.7779  -44.7079 H         1 UNK         0.0600 
    130 H130       -0.9245   -9.7706  -46.9263 H         1 UNK         0.3000 
    131 H131        1.5431  -11.1725  -47.4961 H         1 UNK         0.0600 
    132 H132       -1.3303  -11.8238  -48.3343 H         1 UNK         0.0800 
    133 H133       -0.2585  -10.7618  -49.1845 H         1 UNK         0.0800 
    134 H134       -0.2964  -14.8223  -48.0899 H         1 UNK         0.0800 
    135 H135       -1.6484  -14.0178  -48.8513 H         1 UNK         0.0800 
    136 H136       -2.4217  -14.6290  -51.0680 H         1 UNK         0.1150 
    137 H137       -0.7550  -18.1105  -52.9317 H         1 UNK         0.1150 
    138 H138        1.0608  -16.4847  -49.3996 H         1 UNK         0.1150 
    139 H139        1.7363  -18.5524  -52.2370 H         1 UNK         0.0800 
    140 H140        2.1654  -18.2693  -50.5695 H         1 UNK         0.0800 
    141 H141        0.3923  -18.8836  -48.7239 H         1 UNK         0.0800 
    142 H142        1.0629  -20.4702  -48.4831 H         1 UNK         0.0800 
    143 H143       -1.2118  -21.4446  -49.1015 H         1 UNK         0.0600 
    144 H144       -0.4235  -20.3660  -46.6211 H         1 UNK         0.3000 
    145 H145       -3.1975  -21.5471  -44.6888 H         1 UNK         0.0600 
    146 H146       -1.6136  -23.4631  -44.9119 H         1 UNK         0.0600 
    147 H147       -0.2443  -22.3620  -44.8115 H         1 UNK         0.0600 
    148 H148       -1.3184  -22.5652  -43.4301 H         1 UNK         0.0600 
    149 H149       -0.8757  -20.1016  -43.9197 H         1 UNK         0.3000 
    150 H150       -2.2190  -16.8041  -44.5004 H         1 UNK         0.0600 
    151 H151       -2.9343  -17.5178  -42.2514 H         1 UNK         0.0600 
    152 H152       -1.3994  -16.6731  -42.1300 H         1 UNK         0.0600 
    153 H153       -1.4509  -18.4282  -42.0169 H         1 UNK         0.0600 
    154 H154        0.3711  -17.5930  -43.6584 H         1 UNK         0.3000 
    155 H155        1.8455  -17.9606  -46.9010 H         1 UNK         0.0600 
    156 H156        2.1297  -15.7950  -44.7523 H         1 UNK         0.0600 
    157 H157        1.9925  -15.5583  -46.4856 H         1 UNK         0.0600 
    158 H158        3.4263  -16.3256  -45.8235 H         1 UNK         0.0600 
    159 H159        2.7665  -18.2197  -44.1721 H         1 UNK         0.3000 
    160 H160        2.1843  -21.7461  -43.9439 H         1 UNK         0.0600 
    161 H161        4.7817  -20.1406  -44.2473 H         1 UNK         0.0600 
    162 H162        4.3162  -21.5229  -45.2318 H         1 UNK         0.0600 
    163 H163        4.6267  -21.7384  -43.5167 H         1 UNK         0.0600 
    164 H164        3.4352  -19.8623  -42.1912 H         1 UNK         0.3000 
    165 H165        0.5382  -18.6387  -40.5742 H         1 UNK         0.0600 
    166 H166        1.6308  -19.5421  -38.5395 H         1 UNK         0.0600 
    167 H167        0.8646  -20.8414  -39.4388 H         1 UNK         0.0600 
    168 H168        2.6107  -20.6370  -39.5160 H         1 UNK         0.0600 
    169 H169        3.3031  -18.2979  -40.0138 H         1 UNK         0.3000 
    170 H170        4.1891  -16.1237  -40.4676 H         1 UNK         0.0600 
    171 H171        5.2108  -18.0548  -41.7843 H         1 UNK         0.0600 
    172 H172        4.8309  -17.2170  -43.2846 H         1 UNK         0.0600 
    173 H173        6.0031  -16.5418  -42.1582 H         1 UNK         0.0600 
    174 H174        2.7606  -14.9612  -42.6130 H         1 UNK         0.3000 
    175 H175        4.5875  -11.8840  -42.5977 H         1 UNK         0.0600 
    176 H176        3.9135  -13.7412  -44.9382 H         1 UNK         0.0600 
    177 H177        4.1589  -11.9988  -45.0427 H         1 UNK         0.0600 
    178 H178        5.4937  -13.0499  -44.5967 H         1 UNK         0.0600 
    179 H179        2.0592  -12.6029  -43.7113 H         1 UNK         0.3000 
    180 H180        0.0394  -12.1846  -40.9521 H         1 UNK         0.0600 
    181 H181        0.7614   -9.6438  -42.5125 H         1 UNK         0.0600 
    182 H182        0.7452   -9.8028  -40.7612 H         1 UNK         0.0600 
    183 H183       -0.7558   -9.9332  -41.6612 H         1 UNK         0.0600 
    184 H184       -0.3973  -11.4584  -43.7050 H         1 UNK         0.3000 
    185 H185       -0.6709  -14.6655  -45.0370 H         1 UNK         0.0600 
    186 H186       -2.8588  -14.6205  -43.7708 H         1 UNK         0.0600 
    187 H187       -3.0926  -12.9516  -44.2662 H         1 UNK         0.0600 
    188 H188       -3.0514  -14.2373  -45.4745 H         1 UNK         0.0600 
    189 H189       -1.6018  -12.1583  -46.0069 H         1 UNK         0.3000 
    190 H190       -2.0584  -18.3135  -47.5844 H         1 UNK         0.3000 
    191 H191       -3.6673  -17.3675  -49.7410 H         1 UNK         0.0600 
    192 H192       -2.6594  -15.9288  -47.9474 H         1 UNK         0.0600 
    193 H193       -4.3900  -15.6671  -48.1052 H         1 UNK         0.0600 
    194 H194       -3.7553  -16.6163  -46.7658 H         1 UNK         0.0600 
    195 H195       -4.6046  -18.8483  -46.5758 H         1 UNK         0.3000 
    196 H196       -7.4150  -18.6083  -47.2297 H         1 UNK         0.0600 
    197 H197       -7.7207  -19.3801  -44.9013 H         1 UNK         0.0600 
    198 H198       -6.4987  -18.1190  -44.9707 H         1 UNK         0.0600 
    199 H199       -6.0176  -19.8046  -44.7842 H         1 UNK         0.0600 
    200 H200       -5.1275  -21.3574  -47.0323 H         1 UNK         0.3000 
    201 H201       -7.3659  -23.2887  -47.5387 H         1 UNK         0.0600 
    202 H202       -6.2603  -23.4782  -45.2932 H         1 UNK         0.0600 
    203 H203       -4.7033  -23.7178  -46.0821 H         1 UNK         0.0600 
    204 H204       -5.9893  -24.8990  -46.2862 H         1 UNK         0.0600 
    205 H205       -5.1562  -21.6899  -49.2677 H         1 UNK         0.3000 
    206 H206       -3.9766  -21.9626  -51.1440 H         1 UNK         0.0600 
    207 H207       -6.1494  -22.8274  -52.0104 H         1 UNK         0.0600 
    208 H208       -4.7824  -23.5614  -52.8243 H         1 UNK         0.0600 
    209 H209       -5.6636  -24.4720  -51.6074 H         1 UNK         0.0600 
    210 H210       -2.8958  -23.0602  -48.6826 H         1 UNK         0.3000 
    211 H211       -1.2605  -24.2622  -47.8020 H         1 UNK         0.0600 
    212 H212       -0.1770  -24.5714  -50.6550 H         1 UNK         0.0600 
    213 H213        0.7267  -24.8394  -49.1729 H         1 UNK         0.0600 
    214 H214        0.1671  -23.2286  -49.5723 H         1 UNK         0.0600 
    215 H215       -3.6848  -25.5713  -48.2770 H         1 UNK         0.3000 
    216 H216       -4.7396  -27.4981  -48.1874 H         1 UNK         0.0600 
    217 H217       -3.6466  -29.5846  -47.5018 H         1 UNK         0.0600 
    218 H218       -3.0052  -28.2593  -46.5447 H         1 UNK         0.0600 
    219 H219       -2.0543  -28.9394  -47.8648 H         1 UNK         0.0600 
    220 H220       -4.3212  -26.3103  -50.5458 H         1 UNK         0.3000 
    221 H221       -4.6288  -26.4355  -52.7069 H         1 UNK         0.0600 
    222 H222       -5.1064  -29.4458  -52.4329 H         1 UNK         0.0600 
    223 H223       -6.3283  -28.2007  -52.1719 H         1 UNK         0.0600 
    224 H224       -5.6155  -28.4146  -53.7608 H         1 UNK         0.0600 
    225 H225       -1.8822  -27.0209  -51.4928 H         1 UNK         0.3000 
    226 H226       -0.4551  -28.3036  -53.7240 H         1 UNK         0.0600 
    227 H227        0.3369  -28.5432  -51.3507 H         1 UNK         0.0600 
    228 H228        1.5480  -27.8113  -52.3938 H         1 UNK         0.0600 
    229 H229        0.6291  -26.8057  -51.2846 H         1 UNK         0.0600 
    230 H230       -1.5624  -25.1179  -52.8167 H         1 UNK         0.3000 
    231 H231       -0.0910  -23.8355  -55.0727 H         1 UNK         0.0600 
    232 H232       -0.9423  -22.5666  -52.4025 H         1 UNK         0.0600 
    233 H233       -0.0651  -21.7721  -53.7039 H         1 UNK         0.0600 
    234 H234        0.7063  -23.0489  -52.7850 H         1 UNK         0.0600 
    235 H235       -1.5105  -21.5418  -55.2737 H         1 UNK         0.3000 
    236 H236       -4.3395  -21.8366  -55.0343 H         1 UNK         0.0600 
    237 H237       -4.0423  -23.2020  -57.1256 H         1 UNK         0.0600 
    238 H238       -4.8206  -21.6772  -57.5054 H         1 UNK         0.0600 
    239 H239       -3.1111  -21.8988  -57.8608 H         1 UNK         0.0600 
    240 H240       -5.3851  -19.8241  -55.5886 H         1 UNK         0.3000 
    241 H241       -3.5809  -17.4709  -55.9215 H         1 UNK         0.0600 
    242 H242       -6.3366  -17.8706  -58.6909 H         1 UNK         0.3800 
    243 H243       -5.5965  -19.1993  -57.8412 H         1 UNK         0.3800 
    244 H244       -5.1977  -16.1721  -54.5051 H         1 UNK         0.0800 
    245 H245       -6.0964  -17.6317  -54.1968 H         1 UNK         0.0800 
    246 H246       -2.2964  -16.4090  -54.1685 H         1 UNK         0.0800 
    247 H247       -3.2656  -15.3324  -53.1894 H         1 UNK         0.0800 
@<TRIPOS>BOND
     1    1    2 1    
     2    1  127 1    
     3    1  128 1    
     4    1  129 1    
     5    2    3 2    
     6    2    4 am   BACKBONE|DICT|INTERRES
     7    4    5 1    
     8    4  130 1    
     9    5    6 1    
    10    5   65 1    
    11    5  131 1    
    12    6    7 1    
    13    6  132 1    
    14    6  133 1    
    15    7    8 1    
    16    8    9 1    
    17    8  134 1    
    18    8  135 1    
    19    9   10 ar   
    20    9   14 ar   
    21   10   11 ar   
    22   10  136 1    
    23   11   12 ar   
    24   11  126 1    
    25   12   13 ar   
    26   12  137 1    
    27   13   14 ar   
    28   13   15 1    
    29   14  138 1    
    30   15   16 1    
    31   15  139 1    
    32   15  140 1    
    33   16   17 1    
    34   17   18 1    
    35   17  141 1    
    36   17  142 1    
    37   18   19 1    
    38   18   67 1    
    39   18  143 1    
    40   19   20 am   BACKBONE|DICT|INTERRES
    41   19  144 1    
    42   20   21 2    
    43   20   22 1    
    44   22   23 1    
    45   22   24 1    
    46   22  145 1    
    47   23  146 1    
    48   23  147 1    
    49   23  148 1    
    50   24   25 am   BACKBONE|DICT|INTERRES
    51   24  149 1    
    52   25   26 2    
    53   25   27 1    
    54   27   28 1    
    55   27   29 1    
    56   27  150 1    
    57   28  151 1    
    58   28  152 1    
    59   28  153 1    
    60   29   30 am   BACKBONE|DICT|INTERRES
    61   29  154 1    
    62   30   31 2    
    63   30   32 1    
    64   32   33 1    
    65   32   34 1    
    66   32  155 1    
    67   33  156 1    
    68   33  157 1    
    69   33  158 1    
    70   34   35 am   BACKBONE|DICT|INTERRES
    71   34  159 1    
    72   35   36 2    
    73   35   37 1    
    74   37   38 1    
    75   37   39 1    
    76   37  160 1    
    77   38  161 1    
    78   38  162 1    
    79   38  163 1    
    80   39   40 am   BACKBONE|DICT|INTERRES
    81   39  164 1    
    82   40   41 2    
    83   40   42 1    
    84   42   43 1    
    85   42   44 1    
    86   42  165 1    
    87   43  166 1    
    88   43  167 1    
    89   43  168 1    
    90   44   45 am   BACKBONE|DICT|INTERRES
    91   44  169 1    
    92   45   46 2    
    93   45   47 1    
    94   47   48 1    
    95   47   49 1    
    96   47  170 1    
    97   48  171 1    
    98   48  172 1    
    99   48  173 1    
   100   49   50 am   BACKBONE|DICT|INTERRES
   101   49  174 1    
   102   50   51 2    
   103   50   52 1    
   104   52   53 1    
   105   52   54 1    
   106   52  175 1    
   107   53  176 1    
   108   53  177 1    
   109   53  178 1    
   110   54   55 am   BACKBONE|DICT|INTERRES
   111   54  179 1    
   112   55   56 2    
   113   55   57 1    
   114   57   58 1    
   115   57   59 1    
   116   57  180 1    
   117   58  181 1    
   118   58  182 1    
   119   58  183 1    
   120   59   60 am   BACKBONE|DICT|INTERRES
   121   59  184 1    
   122   60   61 2    
   123   60   62 1    
   124   62   63 1    
   125   62   64 1    
   126   62  185 1    
   127   63  186 1    
   128   63  187 1    
   129   63  188 1    
   130   64   65 am   BACKBONE|DICT|INTERRES
   131   64  189 1    
   132   65   66 2    
   133   67   68 2    
   134   67   69 am   BACKBONE|DICT|INTERRES
   135   69   70 1    
   136   69  190 1    
   137   70   71 1    
   138   70   72 1    
   139   70  191 1    
   140   71  192 1    
   141   71  193 1    
   142   71  194 1    
   143   72   73 2    
   144   72   74 am   BACKBONE|DICT|INTERRES
   145   74   75 1    
   146   74  195 1    
   147   75   76 1    
   148   75   77 1    
   149   75  196 1    
   150   76  197 1    
   151   76  198 1    
   152   76  199 1    
   153   77   78 2    
   154   77   79 am   BACKBONE|DICT|INTERRES
   155   79   80 1    
   156   79  200 1    
   157   80   81 1    
   158   80   82 1    
   159   80  201 1    
   160   81  202 1    
   161   81  203 1    
   162   81  204 1    
   163   82   83 2    
   164   82   84 am   BACKBONE|DICT|INTERRES
   165   84   85 1    
   166   84  205 1    
   167   85   86 1    
   168   85   87 1    
   169   85  206 1    
   170   86  207 1    
   171   86  208 1    
   172   86  209 1    
   173   87   88 2    
   174   87   89 am   BACKBONE|DICT|INTERRES
   175   89   90 1    
   176   89  210 1    
   177   90   91 1    
   178   90   92 1    
   179   90  211 1    
   180   91  212 1    
   181   91  213 1    
   182   91  214 1    
   183   92   93 2    
   184   92   94 am   BACKBONE|DICT|INTERRES
   185   94   95 1    
   186   94  215 1    
   187   95   96 1    
   188   95   97 1    
   189   95  216 1    
   190   96  217 1    
   191   96  218 1    
   192   96  219 1    
   193   97   98 2    
   194   97   99 am   BACKBONE|DICT|INTERRES
   195   99  100 1    
   196   99  220 1    
   197  100  101 1    
   198  100  102 1    
   199  100  221 1    
   200  101  222 1    
   201  101  223 1    
   202  101  224 1    
   203  102  103 2    
   204  102  104 am   BACKBONE|DICT|INTERRES
   205  104  105 1    
   206  104  225 1    
   207  105  106 1    
   208  105  107 1    
   209  105  226 1    
   210  106  227 1    
   211  106  228 1    
   212  106  229 1    
   213  107  108 2    
   214  107  109 am   BACKBONE|DICT|INTERRES
   215  109  110 1    
   216  109  230 1    
   217  110  111 1    
   218  110  112 1    
   219  110  231 1    
   220  111  232 1    
   221  111  233 1    
   222  111  234 1    
   223  112  113 2    
   224  112  114 am   BACKBONE|DICT|INTERRES
   225  114  115 1    
   226  114  235 1    
   227  115  116 1    
   228  115  117 1    
   229  115  236 1    
   230  116  237 1    
   231  116  238 1    
   232  116  239 1    
   233  117  118 2    
   234  117  119 am   BACKBONE|DICT|INTERRES
   235  119  120 1    
   236  119  240 1    
   237  120  121 1    
   238  120  124 1    
   239  120  241 1    
   240  121  122 am   BACKBONE|DICT|INTERRES
   241  121  123 2    
   242  122  242 1    
   243  122  243 1    
   244  124  125 1    
   245  124  244 1    
   246  124  245 1    
   247  125  126 1    
   248  126  246 1    
   249  126  247 1    
@<TRIPOS>SUBSTRUCTURE
     1 UNK         1 GROUP             0       ****    0 ROOT    
