@<TRIPOS>MOLECULE
3R540
247   249    1
SMALL
USER_CHARGES


@<TRIPOS>ATOM
      1 CA         -5.2799  -16.5421  -44.7423 C.3       0 UNK        -0.1800 
      2 C          -3.8510  -16.0288  -44.8415 C.2       0 UNK         0.5000 
      3 O          -3.5412  -14.9659  -44.3065 O.2       0 UNK        -0.5000 
      4 N          -2.9734  -16.7915  -45.5058 N.am      1 UNK        -0.5000 
      5 CA         -1.5625  -16.4648  -45.7694 C.3       1 UNK         0.1400 
      6 C6         -0.9126  -17.5182  -46.6989 C.3       23 UNK        -0.0398 
      7 S7         -1.6971  -17.5571  -48.3494 S.3       23 UNK        -0.2404 
      8 C8         -0.4876  -16.6276  -49.3523 C.3       23 UNK        -0.0205 
      9 C9          0.4443  -17.5539  -50.1219 C.ar      23 UNK        -0.0193 
     10 C10         0.4045  -17.5991  -51.5183 C.ar      23 UNK        -0.1150 
     11 C11         1.2426  -18.4670  -52.2258 C.ar      23 UNK        -0.0193 
     12 C12         2.1062  -19.3167  -51.5274 C.ar      23 UNK        -0.1150 
     13 C13         2.1522  -19.2827  -50.1313 C.ar      23 UNK        -0.0193 
     14 C14         1.3434  -18.3766  -49.4409 C.ar      23 UNK        -0.1150 
     15 C15         3.0454  -20.2424  -49.3565 C.3       23 UNK        -0.0205 
     16 S16         2.2023  -21.8195  -48.9890 S.3       23 UNK        -0.2404 
     17 C17         0.7064  -21.2268  -48.1332 C.3       23 UNK        -0.0398 
     18 CA         -0.1282  -22.3507  -47.4896 C.3       11 UNK         0.1400 
     19 N           0.5674  -23.0056  -46.3809 N.am      11 UNK        -0.5000 
     20 C           0.1625  -24.1431  -45.7989 C.2       10 UNK         0.5000 
     21 O          -0.8188  -24.7890  -46.1660 O.2       10 UNK        -0.5000 
     22 CA          0.9519  -24.5912  -44.5551 C.3       10 UNK         0.1400 
     23 CB          2.2410  -25.3200  -44.9624 C.3       10 UNK        -0.1800 
     24 N           1.2839  -23.4655  -43.6785 N.am      10 UNK        -0.5000 
     25 C           0.3777  -22.7078  -43.0433 C.2       9 UNK         0.5000 
     26 O          -0.8310  -22.9319  -43.0700 O.2       9 UNK        -0.5000 
     27 CA          0.8954  -21.4622  -42.3009 C.3       9 UNK         0.1400 
     28 CB          1.1090  -21.7662  -40.8115 C.3       9 UNK        -0.1800 
     29 N           2.1322  -20.9251  -42.8715 N.am      9 UNK        -0.5000 
     30 C           2.2263  -20.3392  -44.0724 C.2       8 UNK         0.5000 
     31 O           1.2697  -20.1728  -44.8340 O.2       8 UNK        -0.5000 
     32 CA          3.6522  -19.9706  -44.5219 C.3       8 UNK         0.1400 
     33 CB          4.2274  -21.0962  -45.3961 C.3       8 UNK        -0.1800 
     34 N           3.7422  -18.7103  -45.2592 N.am      8 UNK        -0.5000 
     35 C           3.4304  -17.5018  -44.7740 C.2       7 UNK         0.5000 
     36 O           2.9646  -17.3144  -43.6462 O.2       7 UNK        -0.5000 
     37 CA          3.7612  -16.3011  -45.6804 C.3       7 UNK         0.1400 
     38 CB          3.1931  -16.4247  -47.1068 C.3       7 UNK        -0.1800 
     39 N           3.2781  -15.0756  -45.0588 N.am      7 UNK        -0.5000 
     40 C           3.7602  -13.8477  -45.2698 C.2       6 UNK         0.5000 
     41 O           4.6524  -13.5895  -46.0793 O.2       6 UNK        -0.5000 
     42 CA          3.1637  -12.7157  -44.4122 C.3       6 UNK         0.1400 
     43 CB          1.9049  -12.1408  -45.0790 C.3       6 UNK        -0.1800 
     44 N           2.8447  -13.1186  -43.0394 N.am      6 UNK        -0.5000 
     45 C           3.7418  -13.5454  -42.1352 C.2       5 UNK         0.5000 
     46 O           4.9447  -13.6656  -42.3758 O.2       5 UNK        -0.5000 
     47 CA          3.2041  -13.8741  -40.7242 C.3       5 UNK         0.1400 
     48 CB          4.3099  -13.9304  -39.6494 C.3       5 UNK        -0.1800 
     49 N           2.1171  -12.9843  -40.3049 N.am      5 UNK        -0.5000 
     50 C           2.1539  -11.6457  -40.1909 C.2       4 UNK         0.5000 
     51 O           3.1813  -10.9785  -40.3231 O.2       4 UNK        -0.5000 
     52 CA          0.8157  -10.9284  -39.8900 C.3       4 UNK         0.1400 
     53 CB          0.7267   -9.5474  -40.5731 C.3       4 UNK        -0.1800 
     54 N          -0.3783  -11.7291  -40.1972 N.am      4 UNK        -0.5000 
     55 C          -0.7286  -12.2357  -41.3883 C.2       3 UNK         0.5000 
     56 O          -0.0911  -12.0688  -42.4299 O.2       3 UNK        -0.5000 
     57 CA         -1.9683  -13.1473  -41.3946 C.3       3 UNK         0.1400 
     58 CB         -3.0953  -12.5263  -42.2326 C.3       3 UNK        -0.1800 
     59 N          -1.6563  -14.4870  -41.8999 N.am      3 UNK        -0.5000 
     60 C          -0.7263  -15.3098  -41.3859 C.2       2 UNK         0.5000 
     61 O          -0.0422  -15.0262  -40.4007 O.2       2 UNK        -0.5000 
     62 CA         -0.5241  -16.6859  -42.0514 C.3       2 UNK         0.1400 
     63 CB         -1.0635  -17.8001  -41.1408 C.3       2 UNK        -0.1800 
     64 N          -1.1637  -16.8045  -43.3599 N.am      2 UNK        -0.5000 
     65 C          -0.7058  -16.2632  -44.4961 C.2       1 UNK         0.5000 
     66 O           0.3358  -15.6112  -44.5652 O.2       1 UNK        -0.5000 
     67 C          -1.4920  -21.7872  -47.0491 C.2       11 UNK         0.5000 
     68 O          -2.4423  -21.8434  -47.8281 O.2       11 UNK        -0.5000 
     69 N          -1.5720  -21.2709  -45.8138 N.am      12 UNK        -0.5000 
     70 CA         -2.8070  -20.7682  -45.2111 C.3       12 UNK         0.1400 
     71 CB         -2.4815  -20.0205  -43.9099 C.3       12 UNK        -0.1800 
     72 C          -3.8274  -21.8924  -44.9609 C.2       12 UNK         0.5000 
     73 O          -5.0042  -21.7201  -45.2751 O.2       12 UNK        -0.5000 
     74 N          -3.3478  -23.0335  -44.4459 N.am      13 UNK        -0.5000 
     75 CA         -4.1298  -24.2506  -44.2215 C.3       13 UNK         0.1400 
     76 CB         -3.2886  -25.2556  -43.4200 C.3       13 UNK        -0.1800 
     77 C          -4.6363  -24.8832  -45.5310 C.2       13 UNK         0.5000 
     78 O          -5.7799  -25.3367  -45.5844 O.2       13 UNK        -0.5000 
     79 N          -3.7900  -24.8719  -46.5705 N.am      14 UNK        -0.5000 
     80 CA         -4.1327  -25.3061  -47.9271 C.3       14 UNK         0.1400 
     81 CB         -2.8341  -25.5173  -48.7215 C.3       14 UNK        -0.1800 
     82 C          -5.0519  -24.3177  -48.6743 C.2       14 UNK         0.5000 
     83 O          -5.6779  -24.7110  -49.6590 O.2       14 UNK        -0.5000 
     84 N          -5.0898  -23.0595  -48.2092 N.am      15 UNK        -0.5000 
     85 CA         -5.7374  -21.8915  -48.8118 C.3       15 UNK         0.1400 
     86 CB         -7.2724  -22.0394  -48.7951 C.3       15 UNK        -0.1800 
     87 C          -5.1683  -21.5898  -50.2125 C.2       15 UNK         0.5000 
     88 O          -5.9283  -21.3668  -51.1550 O.2       15 UNK        -0.5000 
     89 N          -3.8313  -21.6135  -50.3213 N.am      16 UNK        -0.5000 
     90 CA         -3.0577  -21.5857  -51.5679 C.3       16 UNK         0.1400 
     91 CB         -1.5592  -21.5504  -51.2320 C.3       16 UNK        -0.1800 
     92 C          -3.4142  -20.4380  -52.5302 C.2       16 UNK         0.5000 
     93 O          -3.4743  -20.6589  -53.7381 O.2       16 UNK        -0.5000 
     94 N          -3.6812  -19.2502  -51.9721 N.am      17 UNK        -0.5000 
     95 CA         -4.0663  -18.0534  -52.7195 C.3       17 UNK         0.1400 
     96 CB         -3.9296  -16.8329  -51.7967 C.3       17 UNK        -0.1800 
     97 C          -5.4852  -18.1210  -53.3245 C.2       17 UNK         0.5000 
     98 O          -5.7477  -17.4257  -54.3069 O.2       17 UNK        -0.5000 
     99 N          -6.3733  -18.9316  -52.7322 N.am      18 UNK        -0.5000 
    100 CA        -7.7449  -19.1484  -53.1996 C.3       18 UNK         0.1400 
    101 CB        -8.6731  -19.2736  -51.9810 C.3       18 UNK        -0.1800 
    102 C         -7.8560  -20.4012  -54.0881 C.2       18 UNK         0.5000 
    103 O         -8.7094  -20.4434  -54.9759 O.2       18 UNK        -0.5000 
    104 N         -7.0031  -21.3985  -53.8246 N.am      19 UNK        -0.5000 
    105 CA        -6.8842  -22.6563  -54.5580 C.3       19 UNK         0.1400 
    106 CB        -6.0352  -23.6188  -53.7056 C.3       19 UNK        -0.1800 
    107 C         -6.2780  -22.4855  -55.9685 C.2       19 UNK         0.5000 
    108 O         -5.9033  -21.3832  -56.3728 O.2       19 UNK        -0.5000 
    109 N         -6.1590  -23.6105  -56.6868 N.am      20 UNK        -0.5000 
    110 CA        -5.5262  -23.7149  -58.0075 C.3       20 UNK         0.1400 
    111 CB        -5.9927  -25.0235  -58.6673 C.3       20 UNK        -0.1800 
    112 C         -3.9814  -23.6373  -57.9744 C.2       20 UNK         0.5000 
    113 O         -3.3519  -23.6642  -59.0336 O.2       20 UNK        -0.5000 
    114 N         -3.3966  -23.5612  -56.7715 N.am      21 UNK        -0.5000 
    115 CA        -1.9714  -23.3556  -56.5168 C.3       21 UNK         0.1400 
    116 CB        -1.7044  -23.6604  -55.0312 C.3       21 UNK        -0.1800 
    117 C         -1.4949  -21.9336  -56.8918 C.2       21 UNK         0.5000 
    118 O         -2.2965  -21.0843  -57.2882 O.2       21 UNK        -0.5000 
    119 N         -0.1820  -21.7070  -56.7526 N.am      22 UNK        -0.5000 
    120 CA         0.5147  -20.4282  -57.0015 C.3       22 UNK         0.1400 
    121 C          0.6656  -20.0493  -58.5078 C.2       22 UNK         0.5000 
    122 N          0.3884  -20.9418  -59.4505 N.am      22 UNK        -0.7600 
    123 O          1.0760  -18.9382  -58.8331 O.2       22 UNK        -0.5000 
    124 C124       -0.0292  -19.2412  -56.1517 C.3       23 UNK        -0.0398 
    125 S125       -0.0862  -19.5930  -54.3602 S.3       23 UNK        -0.2404 
    126 C126        1.2107  -18.4819  -53.7442 C.3       23 UNK        -0.0205 
    127 H127       -5.5677  -16.6488  -43.6965 H         1 UNK         0.0600 
    128 H128       -5.3982  -17.5110  -45.2282 H         1 UNK         0.0600 
    129 H129       -5.9640  -15.8376  -45.2152 H         1 UNK         0.0600 
    130 H130       -3.3051  -17.6324  -45.9542 H         1 UNK         0.3000 
    131 H131       -1.5520  -15.5048  -46.2902 H         1 UNK         0.0600 
    132 H132        0.1515  -17.3262  -46.8096 H         1 UNK         0.0800 
    133 H133       -0.9817  -18.5139  -46.2604 H         1 UNK         0.0800 
    134 H134       -1.0380  -15.9877  -50.0428 H         1 UNK         0.0800 
    135 H135        0.0969  -15.9529  -48.7255 H         1 UNK         0.0800 
    136 H136       -0.2809  -16.9616  -52.0591 H         1 UNK         0.1150 
    137 H137        2.7335  -20.0109  -52.0688 H         1 UNK         0.1150 
    138 H138        1.3795  -18.3526  -48.3636 H         1 UNK         0.1150 
    139 H139        3.9522  -20.4490  -49.9267 H         1 UNK         0.0800 
    140 H140        3.3712  -19.7831  -48.4226 H         1 UNK         0.0800 
    141 H141        0.1007  -20.7010  -48.8715 H         1 UNK         0.0800 
    142 H142        0.9948  -20.4866  -47.3866 H         1 UNK         0.0800 
    143 H143       -0.3247  -23.1061  -48.2534 H         1 UNK         0.0600 
    144 H144        1.3673  -22.5203  -46.0040 H         1 UNK         0.3000 
    145 H145        0.3250  -25.2870  -43.9934 H         1 UNK         0.0600 
    146 H146        2.7696  -25.7031  -44.0894 H         1 UNK         0.0600 
    147 H147        2.0196  -26.1721  -45.6066 H         1 UNK         0.0600 
    148 H148        2.9222  -24.6649  -45.5072 H         1 UNK         0.0600 
    149 H149        2.2596  -23.2249  -43.5913 H         1 UNK         0.3000 
    150 H150        0.1266  -20.6937  -42.3854 H         1 UNK         0.0600 
    151 H151        1.8870  -22.5155  -40.6599 H         1 UNK         0.0600 
    152 H152        0.1935  -22.1460  -40.3558 H         1 UNK         0.0600 
    153 H153        1.3942  -20.8681  -40.2632 H         1 UNK         0.0600 
    154 H154        2.9657  -21.0318  -42.3111 H         1 UNK         0.3000 
    155 H155        4.2803  -19.8698  -43.6342 H         1 UNK         0.0600 
    156 H156        3.6491  -21.2308  -46.3105 H         1 UNK         0.0600 
    157 H157        4.2254  -22.0488  -44.8647 H         1 UNK         0.0600 
    158 H158        5.2595  -20.8894  -45.6798 H         1 UNK         0.0600 
    159 H159        4.1209  -18.7719  -46.1915 H         1 UNK         0.3000 
    160 H160        4.8504  -16.2551  -45.7409 H         1 UNK         0.0600 
    161 H161        2.1073  -16.3694  -47.1052 H         1 UNK         0.0600 
    162 H162        3.4881  -17.3577  -47.5856 H         1 UNK         0.0600 
    163 H163        3.5565  -15.6181  -47.7435 H         1 UNK         0.0600 
    164 H164        2.5346  -15.2137  -44.3820 H         1 UNK         0.3000 
    165 H165        3.9099  -11.9206  -44.3557 H         1 UNK         0.0600 
    166 H166        1.5449  -11.2603  -44.5466 H         1 UNK         0.0600 
    167 H167        2.1079  -11.8381  -46.1070 H         1 UNK         0.0600 
    168 H168        1.0951  -12.8715  -45.1037 H         1 UNK         0.0600 
    169 H169        1.8782  -13.0058  -42.7557 H         1 UNK         0.3000 
    170 H170        2.7684  -14.8716  -40.7972 H         1 UNK         0.0600 
    171 H171        5.0497  -14.6950  -39.8893 H         1 UNK         0.0600 
    172 H172        4.8385  -12.9810  -39.5604 H         1 UNK         0.0600 
    173 H173        3.8963  -14.1774  -38.6716 H         1 UNK         0.0600 
    174 H174        1.2213  -13.4465  -40.1837 H         1 UNK         0.3000 
    175 H175        0.8015  -10.7641  -38.8117 H         1 UNK         0.0600 
    176 H176        1.5233   -8.8866  -40.2295 H         1 UNK         0.0600 
    177 H177        0.8134   -9.6260  -41.6573 H         1 UNK         0.0600 
    178 H178       -0.2192   -9.0554  -40.3469 H         1 UNK         0.0600 
    179 H179       -0.9530  -11.9590  -39.3980 H         1 UNK         0.3000 
    180 H180       -2.3317  -13.2611  -40.3714 H         1 UNK         0.0600 
    181 H181       -2.8074  -12.4262  -43.2801 H         1 UNK         0.0600 
    182 H182       -3.3538  -11.5322  -41.8659 H         1 UNK         0.0600 
    183 H183       -3.9994  -13.1340  -42.1904 H         1 UNK         0.0600 
    184 H184       -2.1631  -14.7775  -42.7286 H         1 UNK         0.3000 
    185 H185        0.5507  -16.8351  -42.1758 H         1 UNK         0.0600 
    186 H186       -0.5783  -17.7776  -40.1641 H         1 UNK         0.0600 
    187 H187       -2.1373  -17.7019  -40.9769 H         1 UNK         0.0600 
    188 H188       -0.8788  -18.7840  -41.5681 H         1 UNK         0.0600 
    189 H189       -2.0487  -17.2872  -43.3878 H         1 UNK         0.3000 
    190 H190       -0.7339  -21.2333  -45.2486 H         1 UNK         0.3000 
    191 H191       -3.2490  -20.0570  -45.9121 H         1 UNK         0.0600 
    192 H192       -1.6230  -19.3642  -44.0386 H         1 UNK         0.0600 
    193 H193       -3.3272  -19.4098  -43.5923 H         1 UNK         0.0600 
    194 H194       -2.2519  -20.7026  -43.0917 H         1 UNK         0.0600 
    195 H195       -2.3740  -23.0623  -44.1541 H         1 UNK         0.3000 
    196 H196       -5.0022  -23.9818  -43.6225 H         1 UNK         0.0600 
    197 H197       -3.8538  -26.1664  -43.2186 H         1 UNK         0.0600 
    198 H198       -2.9884  -24.8388  -42.4584 H         1 UNK         0.0600 
    199 H199       -2.3831  -25.5413  -43.9563 H         1 UNK         0.0600 
    200 H200       -2.8380  -24.5529  -46.4226 H         1 UNK         0.3000 
    201 H201       -4.6558  -26.2624  -47.8635 H         1 UNK         0.0600 
    202 H202       -3.0445  -25.8812  -49.7279 H         1 UNK         0.0600 
    203 H203       -2.1901  -26.2522  -48.2381 H         1 UNK         0.0600 
    204 H204       -2.2694  -24.5896  -48.8197 H         1 UNK         0.0600 
    205 H205       -4.5031  -22.8515  -47.4123 H         1 UNK         0.3000 
    206 H206       -5.4788  -21.0387  -48.1827 H         1 UNK         0.0600 
    207 H207       -7.6347  -22.2598  -47.7910 H         1 UNK         0.0600 
    208 H208       -7.7550  -21.1169  -49.1192 H         1 UNK         0.0600 
    209 H209       -7.6123  -22.8358  -49.4578 H         1 UNK         0.0600 
    210 H210       -3.2987  -21.7669  -49.4674 H         1 UNK         0.3000 
    211 H211       -3.2649  -22.5240  -52.0849 H         1 UNK         0.0600 
    212 H212       -1.2862  -20.6202  -50.7328 H         1 UNK         0.0600 
    213 H213       -0.9546  -21.6223  -52.1370 H         1 UNK         0.0600 
    214 H214       -1.2748  -22.3806  -50.5856 H         1 UNK         0.0600 
    215 H215       -3.6141  -19.1634  -50.9687 H         1 UNK         0.3000 
    216 H216       -3.3638  -17.9330  -53.5473 H         1 UNK         0.0600 
    217 H217       -4.1823  -15.9123  -52.3242 H         1 UNK         0.0600 
    218 H218       -2.9074  -16.7282  -51.4343 H         1 UNK         0.0600 
    219 H219       -4.5876  -16.9074  -50.9300 H         1 UNK         0.0600 
    220 H220       -6.0639  -19.5208  -51.9674 H         1 UNK         0.3000 
    221 H221       -8.0792  -18.2916  -53.7883 H         1 UNK         0.0600 
    222 H222       -8.4090  -20.1291  -51.3586 H         1 UNK         0.0600 
    223 H223       -8.6296  -18.3796  -51.3587 H         1 UNK         0.0600 
    224 H224       -9.7102  -19.4032  -52.2928 H         1 UNK         0.0600 
    225 H225       -6.3797  -21.2888  -53.0319 H         1 UNK         0.3000 
    226 H226       -7.8848  -23.0779  -54.6720 H         1 UNK         0.0600 
    227 H227       -5.9997  -24.6189  -54.1382 H         1 UNK         0.0600 
    228 H228       -5.0086  -23.2647  -53.6084 H         1 UNK         0.0600 
    229 H229       -6.4457  -23.7234  -52.7005 H         1 UNK         0.0600 
    230 H230       -6.4903  -24.4778  -56.2891 H         1 UNK         0.3000 
    231 H231       -5.8743  -22.8822  -58.6223 H         1 UNK         0.0600 
    232 H232       -5.6690  -25.8970  -58.1000 H         1 UNK         0.0600 
    233 H233       -5.5907  -25.1205  -59.6767 H         1 UNK         0.0600 
    234 H234       -7.0792  -25.0589  -58.7498 H         1 UNK         0.0600 
    235 H235       -4.0018  -23.5004  -55.9681 H         1 UNK         0.3000 
    236 H236       -1.4109  -24.0677  -57.1257 H         1 UNK         0.0600 
    237 H237       -2.0393  -24.6637  -54.7668 H         1 UNK         0.0600 
    238 H238       -0.6415  -23.6059  -54.7947 H         1 UNK         0.0600 
    239 H239       -2.2191  -22.9539  -54.3804 H         1 UNK         0.0600 
    240 H240        0.4084  -22.4606  -56.4316 H         1 UNK         0.3000 
    241 H241        1.5389  -20.6019  -56.6700 H         1 UNK         0.0600 
    242 H242        0.0517  -21.8591  -59.2054 H         1 UNK         0.3800 
    243 H243        0.5007  -20.6911  -60.4205 H         1 UNK         0.3800 
    244 H244        0.5801  -18.3511  -56.3148 H         1 UNK         0.0800 
    245 H245       -1.0345  -18.9668  -56.4731 H         1 UNK         0.0800 
    246 H246        2.1770  -18.7950  -54.1427 H         1 UNK         0.0800 
    247 H247        1.0341  -17.4708  -54.1144 H         1 UNK         0.0800 
@<TRIPOS>BOND
     1    1    2 1    
     2    1  127 1    
     3    1  128 1    
     4    1  129 1    
     5    2    3 2    
     6    2    4 am   BACKBONE|DICT|INTERRES
     7    4    5 1    
     8    4  130 1    
     9    5    6 1    
    10    5   65 1    
    11    5  131 1    
    12    6    7 1    
    13    6  132 1    
    14    6  133 1    
    15    7    8 1    
    16    8    9 1    
    17    8  134 1    
    18    8  135 1    
    19    9   10 ar   
    20    9   14 ar   
    21   10   11 ar   
    22   10  136 1    
    23   11   12 ar   
    24   11  126 1    
    25   12   13 ar   
    26   12  137 1    
    27   13   14 ar   
    28   13   15 1    
    29   14  138 1    
    30   15   16 1    
    31   15  139 1    
    32   15  140 1    
    33   16   17 1    
    34   17   18 1    
    35   17  141 1    
    36   17  142 1    
    37   18   19 1    
    38   18   67 1    
    39   18  143 1    
    40   19   20 am   BACKBONE|DICT|INTERRES
    41   19  144 1    
    42   20   21 2    
    43   20   22 1    
    44   22   23 1    
    45   22   24 1    
    46   22  145 1    
    47   23  146 1    
    48   23  147 1    
    49   23  148 1    
    50   24   25 am   BACKBONE|DICT|INTERRES
    51   24  149 1    
    52   25   26 2    
    53   25   27 1    
    54   27   28 1    
    55   27   29 1    
    56   27  150 1    
    57   28  151 1    
    58   28  152 1    
    59   28  153 1    
    60   29   30 am   BACKBONE|DICT|INTERRES
    61   29  154 1    
    62   30   31 2    
    63   30   32 1    
    64   32   33 1    
    65   32   34 1    
    66   32  155 1    
    67   33  156 1    
    68   33  157 1    
    69   33  158 1    
    70   34   35 am   BACKBONE|DICT|INTERRES
    71   34  159 1    
    72   35   36 2    
    73   35   37 1    
    74   37   38 1    
    75   37   39 1    
    76   37  160 1    
    77   38  161 1    
    78   38  162 1    
    79   38  163 1    
    80   39   40 am   BACKBONE|DICT|INTERRES
    81   39  164 1    
    82   40   41 2    
    83   40   42 1    
    84   42   43 1    
    85   42   44 1    
    86   42  165 1    
    87   43  166 1    
    88   43  167 1    
    89   43  168 1    
    90   44   45 am   BACKBONE|DICT|INTERRES
    91   44  169 1    
    92   45   46 2    
    93   45   47 1    
    94   47   48 1    
    95   47   49 1    
    96   47  170 1    
    97   48  171 1    
    98   48  172 1    
    99   48  173 1    
   100   49   50 am   BACKBONE|DICT|INTERRES
   101   49  174 1    
   102   50   51 2    
   103   50   52 1    
   104   52   53 1    
   105   52   54 1    
   106   52  175 1    
   107   53  176 1    
   108   53  177 1    
   109   53  178 1    
   110   54   55 am   BACKBONE|DICT|INTERRES
   111   54  179 1    
   112   55   56 2    
   113   55   57 1    
   114   57   58 1    
   115   57   59 1    
   116   57  180 1    
   117   58  181 1    
   118   58  182 1    
   119   58  183 1    
   120   59   60 am   BACKBONE|DICT|INTERRES
   121   59  184 1    
   122   60   61 2    
   123   60   62 1    
   124   62   63 1    
   125   62   64 1    
   126   62  185 1    
   127   63  186 1    
   128   63  187 1    
   129   63  188 1    
   130   64   65 am   BACKBONE|DICT|INTERRES
   131   64  189 1    
   132   65   66 2    
   133   67   68 2    
   134   67   69 am   BACKBONE|DICT|INTERRES
   135   69   70 1    
   136   69  190 1    
   137   70   71 1    
   138   70   72 1    
   139   70  191 1    
   140   71  192 1    
   141   71  193 1    
   142   71  194 1    
   143   72   73 2    
   144   72   74 am   BACKBONE|DICT|INTERRES
   145   74   75 1    
   146   74  195 1    
   147   75   76 1    
   148   75   77 1    
   149   75  196 1    
   150   76  197 1    
   151   76  198 1    
   152   76  199 1    
   153   77   78 2    
   154   77   79 am   BACKBONE|DICT|INTERRES
   155   79   80 1    
   156   79  200 1    
   157   80   81 1    
   158   80   82 1    
   159   80  201 1    
   160   81  202 1    
   161   81  203 1    
   162   81  204 1    
   163   82   83 2    
   164   82   84 am   BACKBONE|DICT|INTERRES
   165   84   85 1    
   166   84  205 1    
   167   85   86 1    
   168   85   87 1    
   169   85  206 1    
   170   86  207 1    
   171   86  208 1    
   172   86  209 1    
   173   87   88 2    
   174   87   89 am   BACKBONE|DICT|INTERRES
   175   89   90 1    
   176   89  210 1    
   177   90   91 1    
   178   90   92 1    
   179   90  211 1    
   180   91  212 1    
   181   91  213 1    
   182   91  214 1    
   183   92   93 2    
   184   92   94 am   BACKBONE|DICT|INTERRES
   185   94   95 1    
   186   94  215 1    
   187   95   96 1    
   188   95   97 1    
   189   95  216 1    
   190   96  217 1    
   191   96  218 1    
   192   96  219 1    
   193   97   98 2    
   194   97   99 am   BACKBONE|DICT|INTERRES
   195   99  100 1    
   196   99  220 1    
   197  100  101 1    
   198  100  102 1    
   199  100  221 1    
   200  101  222 1    
   201  101  223 1    
   202  101  224 1    
   203  102  103 2    
   204  102  104 am   BACKBONE|DICT|INTERRES
   205  104  105 1    
   206  104  225 1    
   207  105  106 1    
   208  105  107 1    
   209  105  226 1    
   210  106  227 1    
   211  106  228 1    
   212  106  229 1    
   213  107  108 2    
   214  107  109 am   BACKBONE|DICT|INTERRES
   215  109  110 1    
   216  109  230 1    
   217  110  111 1    
   218  110  112 1    
   219  110  231 1    
   220  111  232 1    
   221  111  233 1    
   222  111  234 1    
   223  112  113 2    
   224  112  114 am   BACKBONE|DICT|INTERRES
   225  114  115 1    
   226  114  235 1    
   227  115  116 1    
   228  115  117 1    
   229  115  236 1    
   230  116  237 1    
   231  116  238 1    
   232  116  239 1    
   233  117  118 2    
   234  117  119 am   BACKBONE|DICT|INTERRES
   235  119  120 1    
   236  119  240 1    
   237  120  121 1    
   238  120  124 1    
   239  120  241 1    
   240  121  122 am   BACKBONE|DICT|INTERRES
   241  121  123 2    
   242  122  242 1    
   243  122  243 1    
   244  124  125 1    
   245  124  244 1    
   246  124  245 1    
   247  125  126 1    
   248  126  246 1    
   249  126  247 1    
@<TRIPOS>SUBSTRUCTURE
     1 UNK         1 GROUP             0       ****    0 ROOT    
