@<TRIPOS>MOLECULE
3R540
247   249    1
SMALL
USER_CHARGES


@<TRIPOS>ATOM
      1 CA         -3.5196  -13.9102  -50.3912 C.3       0 UNK        -0.1800 
      2 C          -2.5017  -12.8360  -50.0314 C.2       0 UNK         0.5000 
      3 O          -2.8012  -11.6456  -50.1298 O.2       0 UNK        -0.5000 
      4 N          -1.2982  -13.2534  -49.6254 N.am      1 UNK        -0.5000 
      5 CA         -0.2071  -12.3935  -49.1579 C.3       1 UNK         0.1400 
      6 C6          1.1693  -13.1156  -49.1940 C.3       23 UNK        -0.0398 
      7 S7          1.1324  -14.8571  -48.6288 S.3       23 UNK        -0.2404 
      8 C8          1.2168  -15.7157  -50.2335 C.3       23 UNK        -0.0205 
      9 C9          0.6736  -17.1320  -50.1445 C.ar      23 UNK        -0.0193 
     10 C10        -0.6438  -17.4041  -50.5254 C.ar      23 UNK        -0.1150 
     11 C11        -1.1508  -18.7053  -50.4565 C.ar      23 UNK        -0.0193 
     12 C12        -0.3206  -19.7412  -50.0158 C.ar      23 UNK        -0.1150 
     13 C13         1.0020  -19.4829  -49.6435 C.ar      23 UNK        -0.0193 
     14 C14         1.4924  -18.1756  -49.7058 C.ar      23 UNK        -0.1150 
     15 C15         1.9110  -20.6173  -49.2002 C.3       23 UNK        -0.0205 
     16 S16         1.9509  -20.7688  -47.3863 S.3       23 UNK        -0.2404 
     17 C17         1.5321  -22.5248  -47.1105 C.3       23 UNK        -0.0398 
     18 CA          0.1452  -22.8063  -46.4770 C.3       11 UNK         0.1400 
     19 N           0.1090  -22.5451  -45.0333 N.am      11 UNK        -0.5000 
     20 C          -0.8080  -23.0838  -44.2147 C.2       10 UNK         0.5000 
     21 O          -1.7029  -23.8369  -44.6015 O.2       10 UNK        -0.5000 
     22 CA         -0.7426  -22.7004  -42.7256 C.3       10 UNK         0.1400 
     23 CB          0.4040  -23.4352  -42.0153 C.3       10 UNK        -0.1800 
     24 N          -0.6179  -21.2590  -42.5153 N.am      10 UNK        -0.5000 
     25 C          -1.5512  -20.3616  -42.8641 C.2       9 UNK         0.5000 
     26 O          -2.6294  -20.6601  -43.3759 O.2       9 UNK        -0.5000 
     27 CA         -1.2065  -18.8776  -42.6486 C.3       9 UNK         0.1400 
     28 CB         -1.4438  -18.4626  -41.1890 C.3       9 UNK        -0.1800 
     29 N           0.1692  -18.5651  -43.0268 N.am      9 UNK        -0.5000 
     30 C           0.6721  -18.6946  -44.2613 C.2       8 UNK         0.5000 
     31 O           0.0085  -19.0475  -45.2324 O.2       8 UNK        -0.5000 
     32 CA          2.1796  -18.4415  -44.4200 C.3       8 UNK         0.1400 
     33 CB          2.4837  -16.9388  -44.4857 C.3       8 UNK        -0.1800 
     34 N           2.9513  -19.0635  -43.3442 N.am      8 UNK        -0.5000 
     35 C           3.0739  -20.3870  -43.1651 C.2       7 UNK         0.5000 
     36 O           2.5684  -21.2321  -43.9047 O.2       7 UNK        -0.5000 
     37 CA          3.8698  -20.8404  -41.9275 C.3       7 UNK         0.1400 
     38 CB          5.3764  -20.8523  -42.2266 C.3       7 UNK        -0.1800 
     39 N           3.6139  -20.0000  -40.7561 N.am      7 UNK        -0.5000 
     40 C           2.4504  -19.9705  -40.0913 C.2       6 UNK         0.5000 
     41 O           1.4795  -20.6705  -40.3806 O.2       6 UNK        -0.5000 
     42 CA          2.3388  -18.9460  -38.9440 C.3       6 UNK         0.1400 
     43 CB          2.9832  -19.4945  -37.6620 C.3       6 UNK        -0.1800 
     44 N           2.9184  -17.6338  -39.2612 N.am      6 UNK        -0.5000 
     45 C           2.5272  -16.8673  -40.2875 C.2       5 UNK         0.5000 
     46 O           1.6771  -17.2239  -41.1047 O.2       5 UNK        -0.5000 
     47 CA          3.2226  -15.5017  -40.4591 C.3       5 UNK         0.1400 
     48 CB          4.6320  -15.6885  -41.0426 C.3       5 UNK        -0.1800 
     49 N           2.4607  -14.6396  -41.3636 N.am      5 UNK        -0.5000 
     50 C           1.2678  -14.0987  -41.0931 C.2       4 UNK         0.5000 
     51 O           0.7845  -14.0561  -39.9596 O.2       4 UNK        -0.5000 
     52 CA          0.4866  -13.5346  -42.3004 C.3       4 UNK         0.1400 
     53 CB         -0.9030  -12.9983  -41.9121 C.3       4 UNK        -0.1800 
     54 N           1.2040  -12.4826  -43.0209 N.am      4 UNK        -0.5000 
     55 C           2.2491  -12.6428  -43.8404 C.2       3 UNK         0.5000 
     56 O           2.7879  -13.7308  -44.0491 O.2       3 UNK        -0.5000 
     57 CA          2.7449  -11.3739  -44.5649 C.3       3 UNK         0.1400 
     58 CB          4.0559  -11.6093  -45.3367 C.3       3 UNK        -0.1800 
     59 N           1.7398  -10.8631  -45.4985 N.am      3 UNK        -0.5000 
     60 C           0.6267  -10.1932  -45.1695 C.2       2 UNK         0.5000 
     61 O           0.3350   -9.8914  -44.0108 O.2       2 UNK        -0.5000 
     62 CA         -0.3202   -9.7894  -46.3169 C.3       2 UNK         0.1400 
     63 CB         -0.1794   -8.2900  -46.6223 C.3       2 UNK        -0.1800 
     64 N          -0.1023  -10.5451  -47.5546 N.am      2 UNK        -0.5000 
     65 C          -0.5165  -11.8023  -47.7651 C.2       1 UNK         0.5000 
     66 O          -1.1040  -12.4797  -46.9182 O.2       1 UNK        -0.5000 
     67 C          -1.0442  -22.1572  -47.2223 C.2       11 UNK         0.5000 
     68 O          -1.5374  -22.7379  -48.1916 O.2       11 UNK        -0.5000 
     69 N          -1.5229  -21.0048  -46.7297 N.am      12 UNK        -0.5000 
     70 CA         -2.7377  -20.3417  -47.1973 C.3       12 UNK         0.1400 
     71 CB         -2.8342  -18.9273  -46.6079 C.3       12 UNK        -0.1800 
     72 C          -4.0034  -21.1541  -46.8853 C.2       12 UNK         0.5000 
     73 O          -4.8281  -21.3426  -47.7775 O.2       12 UNK        -0.5000 
     74 N          -4.1169  -21.6675  -45.6512 N.am      13 UNK        -0.5000 
     75 CA         -5.2142  -22.5352  -45.2104 C.3       13 UNK         0.1400 
     76 CB         -5.0984  -22.7885  -43.6999 C.3       13 UNK        -0.1800 
     77 C          -5.2789  -23.8671  -45.9823 C.2       13 UNK         0.5000 
     78 O          -6.3735  -24.3591  -46.2583 O.2       13 UNK        -0.5000 
     79 N          -4.1076  -24.4025  -46.3505 N.am      14 UNK        -0.5000 
     80 CA         -3.9590  -25.5707  -47.2193 C.3       14 UNK         0.1400 
     81 CB         -2.5361  -26.1269  -47.0506 C.3       14 UNK        -0.1800 
     82 C          -4.2409  -25.2732  -48.7082 C.2       14 UNK         0.5000 
     83 O          -4.4026  -26.2181  -49.4813 O.2       14 UNK        -0.5000 
     84 N          -4.2657  -23.9844  -49.0858 N.am      15 UNK        -0.5000 
     85 CA         -4.3624  -23.4449  -50.4472 C.3       15 UNK         0.1400 
     86 CB         -5.7609  -23.6981  -51.0433 C.3       15 UNK        -0.1800 
     87 C          -3.2117  -23.9384  -51.3487 C.2       15 UNK         0.5000 
     88 O          -3.4290  -24.2970  -52.5081 O.2       15 UNK        -0.5000 
     89 N          -1.9979  -23.9603  -50.7780 N.am      16 UNK        -0.5000 
     90 CA         -0.7944  -24.5703  -51.3494 C.3       16 UNK         0.1400 
     91 CB          0.3009  -24.5950  -50.2766 C.3       16 UNK        -0.1800 
     92 C          -0.2740  -23.9021  -52.6360 C.2       16 UNK         0.5000 
     93 O           0.5127  -24.5174  -53.3570 O.2       16 UNK        -0.5000 
     94 N          -0.7436  -22.6839  -52.9348 N.am      17 UNK        -0.5000 
     95 CA         -0.4948  -21.9369  -54.1704 C.3       17 UNK         0.1400 
     96 CB         -0.8080  -20.4532  -53.9081 C.3       17 UNK        -0.1800 
     97 C          -1.2935  -22.5053  -55.3678 C.2       17 UNK         0.5000 
     98 O          -2.0080  -21.7637  -56.0442 O.2       17 UNK        -0.5000 
     99 N          -1.1975  -23.8275  -55.5758 N.am      18 UNK        -0.5000 
    100 CA        -1.8425  -24.6425  -56.6155 C.3       18 UNK         0.1400 
    101 CB        -1.2131  -24.3258  -57.9879 C.3       18 UNK        -0.1800 
    102 C         -3.3854  -24.5392  -56.6495 C.2       18 UNK         0.5000 
    103 O         -3.9888  -24.8076  -57.6896 O.2       18 UNK        -0.5000 
    104 N         -3.9913  -24.1096  -55.5307 N.am      19 UNK        -0.5000 
    105 CA        -5.3923  -23.7014  -55.3711 C.3       19 UNK         0.1400 
    106 CB        -6.3352  -24.9146  -55.5022 C.3       19 UNK        -0.1800 
    107 C         -5.8148  -22.5166  -56.2753 C.2       19 UNK         0.5000 
    108 O         -7.0119  -22.2836  -56.4505 O.2       19 UNK        -0.5000 
    109 N         -4.8392  -21.7779  -56.8248 N.am      20 UNK        -0.5000 
    110 CA        -5.0473  -20.6169  -57.6921 C.3       20 UNK         0.1400 
    111 CB        -3.8715  -20.5185  -58.6768 C.3       20 UNK        -0.1800 
    112 C         -5.1911  -19.3116  -56.8883 C.2       20 UNK         0.5000 
    113 O         -5.6762  -18.3162  -57.4279 O.2       20 UNK        -0.5000 
    114 N         -4.7796  -19.3421  -55.6175 N.am      21 UNK        -0.5000 
    115 CA        -4.9269  -18.2780  -54.6362 C.3       21 UNK         0.1400 
    116 CB        -3.6079  -17.4943  -54.5290 C.3       21 UNK        -0.1800 
    117 C         -5.3199  -18.9118  -53.2945 C.2       21 UNK         0.5000 
    118 O         -5.1119  -20.1130  -53.0971 O.2       21 UNK        -0.5000 
    119 N         -5.8740  -18.0829  -52.4024 N.am      22 UNK        -0.5000 
    120 CA        -6.3803  -18.4459  -51.0642 C.3       22 UNK         0.1400 
    121 C         -7.7002  -19.2795  -51.0699 C.2       22 UNK         0.5000 
    122 N         -8.3970  -19.4171  -52.1915 N.am      22 UNK        -0.7600 
    123 O         -8.1263  -19.7808  -50.0333 O.2       22 UNK        -0.5000 
    124 C124       -5.3047  -19.0693  -50.1308 C.3       23 UNK        -0.0398 
    125 S125       -3.8054  -18.0445  -49.9371 S.3       23 UNK        -0.2404 
    126 C126       -2.5803  -19.0007  -50.8893 C.3       23 UNK        -0.0205 
    127 H127       -4.4158  -13.7982  -49.7811 H         1 UNK         0.0600 
    128 H128       -3.8054  -13.8221  -51.4393 H         1 UNK         0.0600 
    129 H129       -3.1245  -14.9136  -50.2301 H         1 UNK         0.0600 
    130 H130       -1.1272  -14.2424  -49.5116 H         1 UNK         0.3000 
    131 H131       -0.1442  -11.5535  -49.8535 H         1 UNK         0.0600 
    132 H132        1.9137  -12.5780  -48.6041 H         1 UNK         0.0800 
    133 H133        1.5549  -13.0882  -50.2139 H         1 UNK         0.0800 
    134 H134        2.2518  -15.7328  -50.5784 H         1 UNK         0.0800 
    135 H135        0.6543  -15.1585  -50.9844 H         1 UNK         0.0800 
    136 H136       -1.2798  -16.6037  -50.8760 H         1 UNK         0.1150 
    137 H137       -0.6987  -20.7526  -49.9689 H         1 UNK         0.1150 
    138 H138        2.5133  -17.9707  -49.4155 H         1 UNK         0.1150 
    139 H139        1.5888  -21.5453  -49.6695 H         1 UNK         0.0800 
    140 H140        2.9256  -20.4392  -49.5591 H         1 UNK         0.0800 
    141 H141        1.6280  -23.0749  -48.0445 H         1 UNK         0.0800 
    142 H142        2.3081  -22.9433  -46.4680 H         1 UNK         0.0800 
    143 H143       -0.0021  -23.8831  -46.5865 H         1 UNK         0.0600 
    144 H144        0.8307  -21.9371  -44.6567 H         1 UNK         0.3000 
    145 H145       -1.6793  -23.0199  -42.2639 H         1 UNK         0.0600 
    146 H146        0.3944  -23.2361  -40.9436 H         1 UNK         0.0600 
    147 H147        0.3160  -24.5144  -42.1461 H         1 UNK         0.0600 
    148 H148        1.3784  -23.1363  -42.4012 H         1 UNK         0.0600 
    149 H149        0.2284  -20.9347  -42.0610 H         1 UNK         0.3000 
    150 H150       -1.8683  -18.2850  -43.2830 H         1 UNK         0.0600 
    151 H151       -2.4720  -18.6656  -40.8872 H         1 UNK         0.0600 
    152 H152       -1.2667  -17.3958  -41.0496 H         1 UNK         0.0600 
    153 H153       -0.7866  -19.0011  -40.5055 H         1 UNK         0.0600 
    154 H154        0.7777  -18.2181  -42.2870 H         1 UNK         0.3000 
    155 H155        2.5040  -18.8834  -45.3615 H         1 UNK         0.0600 
    156 H156        3.5499  -16.7526  -44.6144 H         1 UNK         0.0600 
    157 H157        2.1582  -16.4200  -43.5854 H         1 UNK         0.0600 
    158 H158        1.9699  -16.4757  -45.3293 H         1 UNK         0.0600 
    159 H159        3.3468  -18.4444  -42.6538 H         1 UNK         0.3000 
    160 H160        3.5624  -21.8611  -41.6898 H         1 UNK         0.0600 
    161 H161        5.7526  -19.8529  -42.4487 H         1 UNK         0.0600 
    162 H162        5.5975  -21.4852  -43.0871 H         1 UNK         0.0600 
    163 H163        5.9428  -21.2448  -41.3819 H         1 UNK         0.0600 
    164 H164        4.3590  -19.3893  -40.4552 H         1 UNK         0.3000 
    165 H165        1.2751  -18.7940  -38.7489 H         1 UNK         0.0600 
    166 H166        4.0597  -19.6275  -37.7759 H         1 UNK         0.0600 
    167 H167        2.8145  -18.8252  -36.8182 H         1 UNK         0.0600 
    168 H168        2.5588  -20.4636  -37.3956 H         1 UNK         0.0600 
    169 H169        3.6305  -17.2905  -38.6328 H         1 UNK         0.3000 
    170 H170        3.2950  -15.0176  -39.4833 H         1 UNK         0.0600 
    171 H171        5.2543  -16.2996  -40.3877 H         1 UNK         0.0600 
    172 H172        4.6028  -16.1754  -42.0184 H         1 UNK         0.0600 
    173 H173        5.1367  -14.7298  -41.1642 H         1 UNK         0.0600 
    174 H174        2.7741  -14.5988  -42.3289 H         1 UNK         0.3000 
    175 H175        0.3321  -14.3691  -42.9880 H         1 UNK         0.0600 
    176 H176       -1.4612  -12.6782  -42.7924 H         1 UNK         0.0600 
    177 H177       -1.4963  -13.7677  -41.4162 H         1 UNK         0.0600 
    178 H178       -0.8305  -12.1474  -41.2337 H         1 UNK         0.0600 
    179 H179        0.8163  -11.5477  -42.9499 H         1 UNK         0.3000 
    180 H180        2.9382  -10.6153  -43.8034 H         1 UNK         0.0600 
    181 H181        4.4185  -10.6859  -45.7888 H         1 UNK         0.0600 
    182 H182        4.8403  -11.9738  -44.6722 H         1 UNK         0.0600 
    183 H183        3.9300  -12.3454  -46.1319 H         1 UNK         0.0600 
    184 H184        1.8838  -11.0832  -46.4719 H         1 UNK         0.3000 
    185 H185       -1.3413   -9.9709  -45.9743 H         1 UNK         0.0600 
    186 H186       -0.8944   -7.9730  -47.3818 H         1 UNK         0.0600 
    187 H187       -0.3680   -7.6895  -45.7313 H         1 UNK         0.0600 
    188 H188        0.8218   -8.0433  -46.9781 H         1 UNK         0.0600 
    189 H189        0.3657  -10.0492  -48.3002 H         1 UNK         0.3000 
    190 H190       -1.0086  -20.5337  -45.9906 H         1 UNK         0.3000 
    191 H191       -2.6677  -20.2527  -48.2811 H         1 UNK         0.0600 
    192 H192       -3.7594  -18.4370  -46.9122 H         1 UNK         0.0600 
    193 H193       -2.0089  -18.3044  -46.9542 H         1 UNK         0.0600 
    194 H194       -2.8141  -18.9400  -45.5187 H         1 UNK         0.0600 
    195 H195       -3.4180  -21.4322  -44.9512 H         1 UNK         0.3000 
    196 H196       -6.1500  -22.0037  -45.3946 H         1 UNK         0.0600 
    197 H197       -5.9077  -23.4287  -43.3466 H         1 UNK         0.0600 
    198 H198       -5.1543  -21.8555  -43.1391 H         1 UNK         0.0600 
    199 H199       -4.1571  -23.2762  -43.4446 H         1 UNK         0.0600 
    200 H200       -3.2530  -23.9726  -46.0133 H         1 UNK         0.3000 
    201 H201       -4.6666  -26.3367  -46.8957 H         1 UNK         0.0600 
    202 H202       -2.3295  -26.3766  -46.0097 H         1 UNK         0.0600 
    203 H203       -1.7842  -25.4089  -47.3784 H         1 UNK         0.0600 
    204 H204       -2.3981  -27.0360  -47.6371 H         1 UNK         0.0600 
    205 H205       -4.1452  -23.2845  -48.3640 H         1 UNK         0.3000 
    206 H206       -4.2341  -22.3660  -50.3560 H         1 UNK         0.0600 
    207 H207       -6.5433  -23.3468  -50.3704 H         1 UNK         0.0600 
    208 H208       -5.8831  -23.1628  -51.9851 H         1 UNK         0.0600 
    209 H209       -5.9341  -24.7565  -51.2395 H         1 UNK         0.0600 
    210 H210       -1.9100  -23.6112  -49.8258 H         1 UNK         0.3000 
    211 H211       -1.0429  -25.6024  -51.6045 H         1 UNK         0.0600 
    212 H212        0.5806  -23.5835  -49.9907 H         1 UNK         0.0600 
    213 H213        1.1988  -25.0976  -50.6385 H         1 UNK         0.0600 
    214 H214       -0.0301  -25.1211  -49.3809 H         1 UNK         0.0600 
    215 H215       -1.4145  -22.2814  -52.2989 H         1 UNK         0.3000 
    216 H216        0.5646  -22.0181  -54.4216 H         1 UNK         0.0600 
    217 H217       -0.5952  -19.8436  -54.7872 H         1 UNK         0.0600 
    218 H218       -0.2056  -20.0594  -53.0893 H         1 UNK         0.0600 
    219 H219       -1.8585  -20.3099  -53.6540 H         1 UNK         0.0600 
    220 H220       -0.5927  -24.3357  -54.9367 H         1 UNK         0.3000 
    221 H221       -1.6145  -25.6816  -56.3747 H         1 UNK         0.0600 
    222 H222       -1.4564  -23.3151  -58.3180 H         1 UNK         0.0600 
    223 H223       -0.1273  -24.4152  -57.9540 H         1 UNK         0.0600 
    224 H224       -1.5683  -25.0155  -58.7544 H         1 UNK         0.0600 
    225 H225       -3.4173  -23.9716  -54.7070 H         1 UNK         0.3000 
    226 H226       -5.4754  -23.3315  -54.3489 H         1 UNK         0.0600 
    227 H227       -7.3571  -24.6483  -55.2300 H         1 UNK         0.0600 
    228 H228       -6.3594  -25.3019  -56.5210 H         1 UNK         0.0600 
    229 H229       -6.0268  -25.7245  -54.8410 H         1 UNK         0.0600 
    230 H230       -3.8716  -21.9985  -56.6060 H         1 UNK         0.3000 
    231 H231       -5.9632  -20.7552  -58.2702 H         1 UNK         0.0600 
    232 H232       -4.0217  -19.7016  -59.3837 H         1 UNK         0.0600 
    233 H233       -3.7647  -21.4357  -59.2565 H         1 UNK         0.0600 
    234 H234       -2.9278  -20.3363  -58.1615 H         1 UNK         0.0600 
    235 H235       -4.4535  -20.2206  -55.2362 H         1 UNK         0.3000 
    236 H236       -5.7288  -17.6000  -54.9359 H         1 UNK         0.0600 
    237 H237       -2.7696  -18.1458  -54.2837 H         1 UNK         0.0600 
    238 H238       -3.3736  -16.9951  -55.4693 H         1 UNK         0.0600 
    239 H239       -3.6646  -16.7248  -53.7580 H         1 UNK         0.0600 
    240 H240       -5.9976  -17.1131  -52.6553 H         1 UNK         0.3000 
    241 H241       -6.6698  -17.4967  -50.6121 H         1 UNK         0.0600 
    242 H242       -9.2549  -19.9459  -52.1784 H         1 UNK         0.3800 
    243 H243       -8.0778  -19.0014  -53.0510 H         1 UNK         0.3800 
    244 H244       -5.0407  -20.0724  -50.4645 H         1 UNK         0.0800 
    245 H245       -5.7180  -19.1972  -49.1294 H         1 UNK         0.0800 
    246 H246       -2.7876  -20.0671  -50.7936 H         1 UNK         0.0800 
    247 H247       -2.6859  -18.7585  -51.9453 H         1 UNK         0.0800 
@<TRIPOS>BOND
     1    1    2 1    
     2    1  127 1    
     3    1  128 1    
     4    1  129 1    
     5    2    3 2    
     6    2    4 am   BACKBONE|DICT|INTERRES
     7    4    5 1    
     8    4  130 1    
     9    5    6 1    
    10    5   65 1    
    11    5  131 1    
    12    6    7 1    
    13    6  132 1    
    14    6  133 1    
    15    7    8 1    
    16    8    9 1    
    17    8  134 1    
    18    8  135 1    
    19    9   10 ar   
    20    9   14 ar   
    21   10   11 ar   
    22   10  136 1    
    23   11   12 ar   
    24   11  126 1    
    25   12   13 ar   
    26   12  137 1    
    27   13   14 ar   
    28   13   15 1    
    29   14  138 1    
    30   15   16 1    
    31   15  139 1    
    32   15  140 1    
    33   16   17 1    
    34   17   18 1    
    35   17  141 1    
    36   17  142 1    
    37   18   19 1    
    38   18   67 1    
    39   18  143 1    
    40   19   20 am   BACKBONE|DICT|INTERRES
    41   19  144 1    
    42   20   21 2    
    43   20   22 1    
    44   22   23 1    
    45   22   24 1    
    46   22  145 1    
    47   23  146 1    
    48   23  147 1    
    49   23  148 1    
    50   24   25 am   BACKBONE|DICT|INTERRES
    51   24  149 1    
    52   25   26 2    
    53   25   27 1    
    54   27   28 1    
    55   27   29 1    
    56   27  150 1    
    57   28  151 1    
    58   28  152 1    
    59   28  153 1    
    60   29   30 am   BACKBONE|DICT|INTERRES
    61   29  154 1    
    62   30   31 2    
    63   30   32 1    
    64   32   33 1    
    65   32   34 1    
    66   32  155 1    
    67   33  156 1    
    68   33  157 1    
    69   33  158 1    
    70   34   35 am   BACKBONE|DICT|INTERRES
    71   34  159 1    
    72   35   36 2    
    73   35   37 1    
    74   37   38 1    
    75   37   39 1    
    76   37  160 1    
    77   38  161 1    
    78   38  162 1    
    79   38  163 1    
    80   39   40 am   BACKBONE|DICT|INTERRES
    81   39  164 1    
    82   40   41 2    
    83   40   42 1    
    84   42   43 1    
    85   42   44 1    
    86   42  165 1    
    87   43  166 1    
    88   43  167 1    
    89   43  168 1    
    90   44   45 am   BACKBONE|DICT|INTERRES
    91   44  169 1    
    92   45   46 2    
    93   45   47 1    
    94   47   48 1    
    95   47   49 1    
    96   47  170 1    
    97   48  171 1    
    98   48  172 1    
    99   48  173 1    
   100   49   50 am   BACKBONE|DICT|INTERRES
   101   49  174 1    
   102   50   51 2    
   103   50   52 1    
   104   52   53 1    
   105   52   54 1    
   106   52  175 1    
   107   53  176 1    
   108   53  177 1    
   109   53  178 1    
   110   54   55 am   BACKBONE|DICT|INTERRES
   111   54  179 1    
   112   55   56 2    
   113   55   57 1    
   114   57   58 1    
   115   57   59 1    
   116   57  180 1    
   117   58  181 1    
   118   58  182 1    
   119   58  183 1    
   120   59   60 am   BACKBONE|DICT|INTERRES
   121   59  184 1    
   122   60   61 2    
   123   60   62 1    
   124   62   63 1    
   125   62   64 1    
   126   62  185 1    
   127   63  186 1    
   128   63  187 1    
   129   63  188 1    
   130   64   65 am   BACKBONE|DICT|INTERRES
   131   64  189 1    
   132   65   66 2    
   133   67   68 2    
   134   67   69 am   BACKBONE|DICT|INTERRES
   135   69   70 1    
   136   69  190 1    
   137   70   71 1    
   138   70   72 1    
   139   70  191 1    
   140   71  192 1    
   141   71  193 1    
   142   71  194 1    
   143   72   73 2    
   144   72   74 am   BACKBONE|DICT|INTERRES
   145   74   75 1    
   146   74  195 1    
   147   75   76 1    
   148   75   77 1    
   149   75  196 1    
   150   76  197 1    
   151   76  198 1    
   152   76  199 1    
   153   77   78 2    
   154   77   79 am   BACKBONE|DICT|INTERRES
   155   79   80 1    
   156   79  200 1    
   157   80   81 1    
   158   80   82 1    
   159   80  201 1    
   160   81  202 1    
   161   81  203 1    
   162   81  204 1    
   163   82   83 2    
   164   82   84 am   BACKBONE|DICT|INTERRES
   165   84   85 1    
   166   84  205 1    
   167   85   86 1    
   168   85   87 1    
   169   85  206 1    
   170   86  207 1    
   171   86  208 1    
   172   86  209 1    
   173   87   88 2    
   174   87   89 am   BACKBONE|DICT|INTERRES
   175   89   90 1    
   176   89  210 1    
   177   90   91 1    
   178   90   92 1    
   179   90  211 1    
   180   91  212 1    
   181   91  213 1    
   182   91  214 1    
   183   92   93 2    
   184   92   94 am   BACKBONE|DICT|INTERRES
   185   94   95 1    
   186   94  215 1    
   187   95   96 1    
   188   95   97 1    
   189   95  216 1    
   190   96  217 1    
   191   96  218 1    
   192   96  219 1    
   193   97   98 2    
   194   97   99 am   BACKBONE|DICT|INTERRES
   195   99  100 1    
   196   99  220 1    
   197  100  101 1    
   198  100  102 1    
   199  100  221 1    
   200  101  222 1    
   201  101  223 1    
   202  101  224 1    
   203  102  103 2    
   204  102  104 am   BACKBONE|DICT|INTERRES
   205  104  105 1    
   206  104  225 1    
   207  105  106 1    
   208  105  107 1    
   209  105  226 1    
   210  106  227 1    
   211  106  228 1    
   212  106  229 1    
   213  107  108 2    
   214  107  109 am   BACKBONE|DICT|INTERRES
   215  109  110 1    
   216  109  230 1    
   217  110  111 1    
   218  110  112 1    
   219  110  231 1    
   220  111  232 1    
   221  111  233 1    
   222  111  234 1    
   223  112  113 2    
   224  112  114 am   BACKBONE|DICT|INTERRES
   225  114  115 1    
   226  114  235 1    
   227  115  116 1    
   228  115  117 1    
   229  115  236 1    
   230  116  237 1    
   231  116  238 1    
   232  116  239 1    
   233  117  118 2    
   234  117  119 am   BACKBONE|DICT|INTERRES
   235  119  120 1    
   236  119  240 1    
   237  120  121 1    
   238  120  124 1    
   239  120  241 1    
   240  121  122 am   BACKBONE|DICT|INTERRES
   241  121  123 2    
   242  122  242 1    
   243  122  243 1    
   244  124  125 1    
   245  124  244 1    
   246  124  245 1    
   247  125  126 1    
   248  126  246 1    
   249  126  247 1    
@<TRIPOS>SUBSTRUCTURE
     1 UNK         1 GROUP             0       ****    0 ROOT    
