@<TRIPOS>MOLECULE
3R540
247   249    1
SMALL
USER_CHARGES


@<TRIPOS>ATOM
      1 CA         -0.5175  -16.7637  -49.5738 C.3       0 UNK        -0.1800 
      2 C           0.4135  -15.5637  -49.5384 C.2       0 UNK         0.5000 
      3 O           0.0479  -14.5226  -48.9926 O.2       0 UNK        -0.5000 
      4 N           1.6192  -15.6967  -50.1076 N.am      1 UNK        -0.5000 
      5 CA          2.6285  -14.6273  -50.1352 C.3       1 UNK         0.1400 
      6 C6          3.7839  -14.9008  -51.1267 C.3       23 UNK        -0.0398 
      7 S7          3.1980  -15.3041  -52.8092 S.3       23 UNK        -0.2404 
      8 C8          4.1346  -16.8214  -53.1785 C.3       23 UNK        -0.0205 
      9 C9          3.6682  -18.0114  -52.3518 C.ar      23 UNK        -0.0193 
     10 C10         2.5401  -18.7379  -52.7417 C.ar      23 UNK        -0.1150 
     11 C11         2.1293  -19.8557  -52.0104 C.ar      23 UNK        -0.0193 
     12 C12         2.8563  -20.2452  -50.8822 C.ar      23 UNK        -0.1150 
     13 C13         3.9890  -19.5296  -50.4810 C.ar      23 UNK        -0.0193 
     14 C14         4.3872  -18.4133  -51.2220 C.ar      23 UNK        -0.1150 
     15 C15         4.8156  -19.9783  -49.2816 C.3       23 UNK        -0.0205 
     16 S16         3.9132  -19.8097  -47.7094 S.3       23 UNK        -0.2404 
     17 C17         3.1918  -21.4737  -47.5120 C.3       23 UNK        -0.0398 
     18 CA          3.8102  -22.2665  -46.3326 C.3       11 UNK         0.1400 
     19 N           3.6120  -21.5826  -45.0482 N.am      11 UNK        -0.5000 
     20 C           4.5889  -21.3204  -44.1715 C.2       10 UNK         0.5000 
     21 O           5.7657  -21.6445  -44.3361 O.2       10 UNK        -0.5000 
     22 CA          4.1920  -20.5730  -42.8859 C.3       10 UNK         0.1400 
     23 CB          4.2234  -19.0532  -43.1076 C.3       10 UNK        -0.1800 
     24 N           2.8844  -20.9594  -42.3514 N.am      10 UNK        -0.5000 
     25 C           2.6321  -22.1396  -41.7651 C.2       9 UNK         0.5000 
     26 O           3.4376  -23.0695  -41.7270 O.2       9 UNK        -0.5000 
     27 CA          1.2570  -22.3107  -41.1021 C.3       9 UNK         0.1400 
     28 CB          1.2040  -21.5491  -39.7681 C.3       9 UNK        -0.1800 
     29 N           0.1926  -21.8222  -41.9722 N.am      9 UNK        -0.5000 
     30 C          -0.6502  -22.6004  -42.6646 C.2       8 UNK         0.5000 
     31 O          -0.6528  -23.8301  -42.6195 O.2       8 UNK        -0.5000 
     32 CA         -1.6564  -21.8809  -43.5821 C.3       8 UNK         0.1400 
     33 CB         -2.9378  -21.5762  -42.7920 C.3       8 UNK        -0.1800 
     34 N          -1.1288  -20.6394  -44.1500 N.am      8 UNK        -0.5000 
     35 C          -0.0269  -20.5452  -44.9105 C.2       7 UNK         0.5000 
     36 O           0.6026  -21.5239  -45.3149 O.2       7 UNK        -0.5000 
     37 CA          0.5144  -19.1333  -45.2103 C.3       7 UNK         0.1400 
     38 CB          0.2402  -18.7427  -46.6677 C.3       7 UNK        -0.1800 
     39 N          -0.0108  -18.1036  -44.3080 N.am      7 UNK        -0.5000 
     40 C           0.2130  -18.0575  -42.9834 C.2       6 UNK         0.5000 
     41 O           0.9284  -18.8720  -42.3952 O.2       6 UNK        -0.5000 
     42 CA         -0.5498  -17.0003  -42.1562 C.3       6 UNK         0.1400 
     43 CB          0.3633  -15.8471  -41.7218 C.3       6 UNK        -0.1800 
     44 N          -1.7327  -16.4633  -42.8332 N.am      6 UNK        -0.5000 
     45 C          -2.8385  -17.1792  -43.0851 C.2       5 UNK         0.5000 
     46 O          -2.9805  -18.3471  -42.7253 O.2       5 UNK        -0.5000 
     47 CA         -3.9572  -16.5074  -43.9053 C.3       5 UNK         0.1400 
     48 CB         -5.0472  -15.9550  -42.9747 C.3       5 UNK        -0.1800 
     49 N          -3.4992  -15.4346  -44.7908 N.am      5 UNK        -0.5000 
     50 C          -2.6103  -15.5708  -45.7841 C.2       4 UNK         0.5000 
     51 O          -2.0448  -16.6300  -46.0487 O.2       4 UNK        -0.5000 
     52 CA         -2.2801  -14.3177  -46.6157 C.3       4 UNK         0.1400 
     53 CB         -3.3242  -13.1855  -46.4889 C.3       4 UNK        -0.1800 
     54 N          -0.9358  -13.8039  -46.3374 N.am      4 UNK        -0.5000 
     55 C          -0.4484  -13.4064  -45.1525 C.2       3 UNK         0.5000 
     56 O          -1.0602  -13.5184  -44.0869 O.2       3 UNK        -0.5000 
     57 CA          0.9445  -12.7395  -45.1827 C.3       3 UNK         0.1400 
     58 CB          1.4549  -12.3300  -43.7849 C.3       3 UNK        -0.1800 
     59 N           1.9670  -13.5159  -45.8905 N.am      3 UNK        -0.5000 
     60 C           2.3907  -14.7554  -45.6087 C.2       2 UNK         0.5000 
     61 O           1.8949  -15.4714  -44.7408 O.2       2 UNK        -0.5000 
     62 CA          3.5737  -15.2736  -46.4518 C.3       2 UNK         0.1400 
     63 CB          4.0726  -16.6508  -45.9829 C.3       2 UNK        -0.1800 
     64 N           3.2144  -15.3585  -47.8647 N.am      2 UNK        -0.5000 
     65 C           3.1862  -14.3324  -48.7265 C.2       1 UNK         0.5000 
     66 O           3.5358  -13.1881  -48.4327 O.2       1 UNK        -0.5000 
     67 C           3.2181  -23.6899  -46.3068 C.2       11 UNK         0.5000 
     68 O           3.5105  -24.4706  -47.2130 O.2       11 UNK        -0.5000 
     69 N           2.3673  -23.9857  -45.3097 N.am      12 UNK        -0.5000 
     70 CA          1.4820  -25.1539  -45.2210 C.3       12 UNK         0.1400 
     71 CB          2.2892  -26.4599  -45.0687 C.3       12 UNK        -0.1800 
     72 C           0.4618  -25.1956  -46.3827 C.2       12 UNK         0.5000 
     73 O           0.1063  -26.2732  -46.8619 O.2       12 UNK        -0.5000 
     74 N           0.0229  -24.0086  -46.8270 N.am      13 UNK        -0.5000 
     75 CA         -0.8088  -23.8059  -48.0162 C.3       13 UNK         0.1400 
     76 CB         -0.4471  -22.4444  -48.6314 C.3       13 UNK        -0.1800 
     77 C          -2.3236  -23.9159  -47.7478 C.2       13 UNK         0.5000 
     78 O          -3.1122  -23.7344  -48.6779 O.2       13 UNK        -0.5000 
     79 N          -2.7069  -24.2024  -46.4942 N.am      14 UNK        -0.5000 
     80 CA         -4.0789  -24.3107  -45.9891 C.3       14 UNK         0.1400 
     81 CB         -4.7650  -25.5759  -46.5522 C.3       14 UNK        -0.1800 
     82 C          -4.8644  -23.0036  -46.2237 C.2       14 UNK         0.5000 
     83 O          -4.5028  -21.9808  -45.6445 O.2       14 UNK        -0.5000 
     84 N          -5.8984  -23.0426  -47.0741 N.am      15 UNK        -0.5000 
     85 CA         -6.6956  -21.8796  -47.4716 C.3       15 UNK         0.1400 
     86 CB         -7.9230  -22.3658  -48.2530 C.3       15 UNK        -0.1800 
     87 C          -5.9087  -20.8347  -48.2892 C.2       15 UNK         0.5000 
     88 O          -6.2743  -19.6587  -48.2652 O.2       15 UNK        -0.5000 
     89 N          -4.8419  -21.2712  -48.9772 N.am      16 UNK        -0.5000 
     90 CA         -3.8813  -20.4525  -49.7178 C.3       16 UNK         0.1400 
     91 CB         -2.9810  -19.6943  -48.7141 C.3       16 UNK        -0.1800 
     92 C          -4.5689  -19.5421  -50.7589 C.2       16 UNK         0.5000 
     93 O          -5.2233  -20.0448  -51.6761 O.2       16 UNK        -0.5000 
     94 N          -4.4380  -18.2208  -50.5873 N.am      17 UNK        -0.5000 
     95 CA         -5.0381  -17.1909  -51.4330 C.3       17 UNK         0.1400 
     96 CB         -4.4915  -15.8185  -51.0122 C.3       17 UNK        -0.1800 
     97 C          -6.5795  -17.1856  -51.4283 C.2       17 UNK         0.5000 
     98 O          -7.1704  -16.7683  -52.4238 O.2       17 UNK        -0.5000 
     99 N          -7.2138  -17.6751  -50.3505 N.am      18 UNK        -0.5000 
    100 CA        -8.6751  -17.7601  -50.2359 C.3       18 UNK         0.1400 
    101 CB        -9.0732  -17.9970  -48.7712 C.3       18 UNK        -0.1800 
    102 C         -9.2862  -18.8421  -51.1476 C.2       18 UNK         0.5000 
    103 O        -10.4364  -18.7026  -51.5642 O.2       18 UNK        -0.5000 
    104 N         -8.4984  -19.8782  -51.4652 N.am      19 UNK        -0.5000 
    105 CA        -8.8375  -20.9221  -52.4355 C.3       19 UNK         0.1400 
    106 CB        -8.3117  -22.2677  -51.9108 C.3       19 UNK        -0.1800 
    107 C         -8.2664  -20.6252  -53.8365 C.2       19 UNK         0.5000 
    108 O         -8.4759  -21.4236  -54.7504 O.2       19 UNK        -0.5000 
    109 N         -7.5331  -19.5089  -53.9743 N.am      20 UNK        -0.5000 
    110 CA        -6.7602  -19.0849  -55.1466 C.3       20 UNK         0.1400 
    111 CB        -7.6870  -18.7680  -56.3385 C.3       20 UNK        -0.1800 
    112 C         -5.6211  -20.0644  -55.5083 C.2       20 UNK         0.5000 
    113 O         -5.2129  -20.1328  -56.6689 O.2       20 UNK        -0.5000 
    114 N         -5.1130  -20.7953  -54.5049 N.am      21 UNK        -0.5000 
    115 CA        -3.9769  -21.7095  -54.6323 C.3       21 UNK         0.1400 
    116 CB        -4.0312  -22.7368  -53.4902 C.3       21 UNK        -0.1800 
    117 C         -2.6316  -20.9601  -54.6224 C.2       21 UNK         0.5000 
    118 O         -1.6368  -21.4906  -55.1181 O.2       21 UNK        -0.5000 
    119 N         -2.6364  -19.7442  -54.0666 N.am      22 UNK        -0.5000 
    120 CA        -1.5047  -18.8171  -53.9977 C.3       22 UNK         0.1400 
    121 C         -1.8995  -17.4587  -54.6322 C.2       22 UNK         0.5000 
    122 N         -0.9575  -16.7516  -55.2403 N.am      22 UNK        -0.7600 
    123 O         -3.0464  -17.0233  -54.5506 O.2       22 UNK        -0.5000 
    124 C124       -1.0240  -18.6064  -52.5390 C.3       23 UNK        -0.0398 
    125 S125       -0.6116  -20.1472  -51.6496 S.3       23 UNK        -0.2404 
    126 C126        0.9292  -20.6742  -52.4596 C.3       23 UNK        -0.0205 
    127 H127       -0.9814  -16.9073  -48.5990 H         1 UNK         0.0600 
    128 H128        0.0127  -17.6792  -49.8372 H         1 UNK         0.0600 
    129 H129       -1.3097  -16.5923  -50.2995 H         1 UNK         0.0600 
    130 H130        1.8727  -16.5578  -50.5718 H         1 UNK         0.3000 
    131 H131        2.1246  -13.7181  -50.4710 H         1 UNK         0.0600 
    132 H132        4.4240  -14.0201  -51.2049 H         1 UNK         0.0800 
    133 H133        4.4251  -15.6983  -50.7535 H         1 UNK         0.0800 
    134 H134        5.1992  -16.6381  -53.0245 H         1 UNK         0.0800 
    135 H135        4.0205  -17.0527  -54.2385 H         1 UNK         0.0800 
    136 H136        1.9920  -18.4406  -53.6244 H         1 UNK         0.1150 
    137 H137        2.5413  -21.1161  -50.3283 H         1 UNK         0.1150 
    138 H138        5.2736  -17.8681  -50.9302 H         1 UNK         0.1150 
    139 H139        5.1492  -21.0066  -49.4259 H         1 UNK         0.0800 
    140 H140        5.7255  -19.3809  -49.2077 H         1 UNK         0.0800 
    141 H141        2.1172  -21.3580  -47.3812 H         1 UNK         0.0800 
    142 H142        3.3172  -22.0323  -48.4398 H         1 UNK         0.0800 
    143 H143        4.8761  -22.3820  -46.5396 H         1 UNK         0.0600 
    144 H144        2.6664  -21.2895  -44.8434 H         1 UNK         0.3000 
    145 H145        4.9430  -20.8105  -42.1292 H         1 UNK         0.0600 
    146 H146        3.4746  -18.7339  -43.8309 H         1 UNK         0.0600 
    147 H147        5.1967  -18.7318  -43.4803 H         1 UNK         0.0600 
    148 H148        4.0369  -18.5151  -42.1781 H         1 UNK         0.0600 
    149 H149        2.1771  -20.2286  -42.3246 H         1 UNK         0.3000 
    150 H150        1.1193  -23.3726  -40.8873 H         1 UNK         0.0600 
    151 H151        1.9946  -21.8837  -39.0952 H         1 UNK         0.0600 
    152 H152        0.2536  -21.7145  -39.2604 H         1 UNK         0.0600 
    153 H153        1.3240  -20.4740  -39.9089 H         1 UNK         0.0600 
    154 H154        0.1399  -20.8184  -42.0973 H         1 UNK         0.3000 
    155 H155       -1.9029  -22.5450  -44.4105 H         1 UNK         0.0600 
    156 H156       -3.4276  -22.4972  -42.4740 H         1 UNK         0.0600 
    157 H157       -3.6545  -21.0156  -43.3909 H         1 UNK         0.0600 
    158 H158       -2.7288  -20.9883  -41.8972 H         1 UNK         0.0600 
    159 H159       -1.5922  -19.7869  -43.8616 H         1 UNK         0.3000 
    160 H160        1.5958  -19.1672  -45.0773 H         1 UNK         0.0600 
    161 H161       -0.8257  -18.7628  -46.8928 H         1 UNK         0.0600 
    162 H162        0.7296  -19.4266  -47.3609 H         1 UNK         0.0600 
    163 H163        0.6154  -17.7418  -46.8816 H         1 UNK         0.0600 
    164 H164       -0.6305  -17.4181  -44.7265 H         1 UNK         0.3000 
    165 H165       -0.8866  -17.5062  -41.2489 H         1 UNK         0.0600 
    166 H166       -0.1237  -15.2224  -40.9731 H         1 UNK         0.0600 
    167 H167        1.2913  -16.2183  -41.2851 H         1 UNK         0.0600 
    168 H168        0.6250  -15.2091  -42.5625 H         1 UNK         0.0600 
    169 H169       -1.6682  -15.5162  -43.1885 H         1 UNK         0.3000 
    170 H170       -4.4033  -17.2811  -44.5336 H         1 UNK         0.0600 
    171 H171       -5.4324  -16.7356  -42.3172 H         1 UNK         0.0600 
    172 H172       -4.6661  -15.1517  -42.3428 H         1 UNK         0.0600 
    173 H173       -5.8920  -15.5652  -43.5429 H         1 UNK         0.0600 
    174 H174       -3.8820  -14.5165  -44.6192 H         1 UNK         0.3000 
    175 H175       -2.2810  -14.6423  -47.6568 H         1 UNK         0.0600 
    176 H176       -3.3513  -12.7538  -45.4879 H         1 UNK         0.0600 
    177 H177       -3.1034  -12.3778  -47.1868 H         1 UNK         0.0600 
    178 H178       -4.3263  -13.5456  -46.7256 H         1 UNK         0.0600 
    179 H179       -0.3315  -13.7645  -47.1522 H         1 UNK         0.3000 
    180 H180        0.8156  -11.8205  -45.7562 H         1 UNK         0.0600 
    181 H181        2.3878  -11.7710  -43.8567 H         1 UNK         0.0600 
    182 H182        1.6343  -13.1942  -43.1463 H         1 UNK         0.0600 
    183 H183        0.7341  -11.6895  -43.2752 H         1 UNK         0.0600 
    184 H184        2.4220  -13.0440  -46.6645 H         1 UNK         0.3000 
    185 H185        4.3970  -14.5661  -46.3335 H         1 UNK         0.0600 
    186 H186        3.2859  -17.4035  -46.0418 H         1 UNK         0.0600 
    187 H187        4.9141  -16.9947  -46.5846 H         1 UNK         0.0600 
    188 H188        4.4103  -16.6088  -44.9469 H         1 UNK         0.0600 
    189 H189        2.8694  -16.2524  -48.1824 H         1 UNK         0.3000 
    190 H190        2.1984  -23.2659  -44.6227 H         1 UNK         0.3000 
    191 H191        0.8997  -25.0280  -44.3095 H         1 UNK         0.0600 
    192 H192        1.6306  -27.3001  -44.8461 H         1 UNK         0.0600 
    193 H193        3.0066  -26.3858  -44.2514 H         1 UNK         0.0600 
    194 H194        2.8384  -26.7099  -45.9766 H         1 UNK         0.0600 
    195 H195        0.3320  -23.1677  -46.3477 H         1 UNK         0.3000 
    196 H196       -0.5689  -24.5747  -48.7536 H         1 UNK         0.0600 
    197 H197       -0.5677  -21.6330  -47.9144 H         1 UNK         0.0600 
    198 H198       -1.0735  -22.2201  -49.4949 H         1 UNK         0.0600 
    199 H199        0.5857  -22.4336  -48.9784 H         1 UNK         0.0600 
    200 H200       -1.9754  -24.3267  -45.8108 H         1 UNK         0.3000 
    201 H201       -4.0040  -24.4302  -44.9072 H         1 UNK         0.0600 
    202 H202       -4.8519  -25.5545  -47.6389 H         1 UNK         0.0600 
    203 H203       -5.7669  -25.6978  -46.1384 H         1 UNK         0.0600 
    204 H204       -4.2008  -26.4704  -46.2881 H         1 UNK         0.0600 
    205 H205       -6.1183  -23.9193  -47.5236 H         1 UNK         0.3000 
    206 H206       -7.0441  -21.3808  -46.5648 H         1 UNK         0.0600 
    207 H207       -8.5792  -22.9647  -47.6213 H         1 UNK         0.0600 
    208 H208       -8.5116  -21.5288  -48.6314 H         1 UNK         0.0600 
    209 H209       -7.6282  -22.9792  -49.1041 H         1 UNK         0.0600 
    210 H210       -4.6082  -22.2565  -48.9225 H         1 UNK         0.3000 
    211 H211       -3.2521  -21.1441  -50.2791 H         1 UNK         0.0600 
    212 H212       -3.5341  -18.9574  -48.1303 H         1 UNK         0.0600 
    213 H213       -2.1650  -19.1803  -49.2216 H         1 UNK         0.0600 
    214 H214       -2.5313  -20.3856  -48.0026 H         1 UNK         0.0600 
    215 H215       -3.9207  -17.8974  -49.7835 H         1 UNK         0.3000 
    216 H216       -4.7228  -17.3826  -52.4601 H         1 UNK         0.0600 
    217 H217       -4.7184  -15.5959  -49.9689 H         1 UNK         0.0600 
    218 H218       -3.4108  -15.7679  -51.1421 H         1 UNK         0.0600 
    219 H219       -4.9239  -15.0224  -51.6200 H         1 UNK         0.0600 
    220 H220       -6.6750  -18.0661  -49.5846 H         1 UNK         0.3000 
    221 H221       -9.0920  -16.7982  -50.5421 H         1 UNK         0.0600 
    222 H222      -10.1545  -17.9245  -48.6487 H         1 UNK         0.0600 
    223 H223       -8.7756  -18.9858  -48.4236 H         1 UNK         0.0600 
    224 H224       -8.6208  -17.2566  -48.1113 H         1 UNK         0.0600 
    225 H225       -7.5578  -19.9013  -51.0933 H         1 UNK         0.3000 
    226 H226       -9.9210  -21.0025  -52.5430 H         1 UNK         0.0600 
    227 H227       -8.8476  -22.5615  -51.0098 H         1 UNK         0.0600 
    228 H228       -8.4597  -23.0665  -52.6386 H         1 UNK         0.0600 
    229 H229       -7.2461  -22.2253  -51.6804 H         1 UNK         0.0600 
    230 H230       -7.4555  -18.9014  -53.1700 H         1 UNK         0.3000 
    231 H231       -6.2692  -18.1539  -54.8595 H         1 UNK         0.0600 
    232 H232       -7.1312  -18.3000  -57.1517 H         1 UNK         0.0600 
    233 H233       -8.4782  -18.0766  -56.0489 H         1 UNK         0.0600 
    234 H234       -8.1557  -19.6667  -56.7401 H         1 UNK         0.0600 
    235 H235       -5.4664  -20.6502  -53.5642 H         1 UNK         0.3000 
    236 H236       -4.0567  -22.2464  -55.5798 H         1 UNK         0.0600 
    237 H237       -4.9777  -23.2776  -53.4897 H         1 UNK         0.0600 
    238 H238       -3.2342  -23.4742  -53.5925 H         1 UNK         0.0600 
    239 H239       -3.9143  -22.2648  -52.5145 H         1 UNK         0.0600 
    240 H240       -3.5160  -19.3755  -53.7365 H         1 UNK         0.3000 
    241 H241       -0.6747  -19.2126  -54.5847 H         1 UNK         0.0600 
    242 H242       -1.2052  -15.8619  -55.6448 H         1 UNK         0.3800 
    243 H243       -0.0088  -17.0815  -55.3233 H         1 UNK         0.3800 
    244 H244       -1.8110  -18.1148  -51.9666 H         1 UNK         0.0800 
    245 H245       -0.1643  -17.9364  -52.5054 H         1 UNK         0.0800 
    246 H246        1.0977  -21.7249  -52.2196 H         1 UNK         0.0800 
    247 H247        0.8199  -20.6350  -53.5436 H         1 UNK         0.0800 
@<TRIPOS>BOND
     1    1    2 1    
     2    1  127 1    
     3    1  128 1    
     4    1  129 1    
     5    2    3 2    
     6    2    4 am   BACKBONE|DICT|INTERRES
     7    4    5 1    
     8    4  130 1    
     9    5    6 1    
    10    5   65 1    
    11    5  131 1    
    12    6    7 1    
    13    6  132 1    
    14    6  133 1    
    15    7    8 1    
    16    8    9 1    
    17    8  134 1    
    18    8  135 1    
    19    9   10 ar   
    20    9   14 ar   
    21   10   11 ar   
    22   10  136 1    
    23   11   12 ar   
    24   11  126 1    
    25   12   13 ar   
    26   12  137 1    
    27   13   14 ar   
    28   13   15 1    
    29   14  138 1    
    30   15   16 1    
    31   15  139 1    
    32   15  140 1    
    33   16   17 1    
    34   17   18 1    
    35   17  141 1    
    36   17  142 1    
    37   18   19 1    
    38   18   67 1    
    39   18  143 1    
    40   19   20 am   BACKBONE|DICT|INTERRES
    41   19  144 1    
    42   20   21 2    
    43   20   22 1    
    44   22   23 1    
    45   22   24 1    
    46   22  145 1    
    47   23  146 1    
    48   23  147 1    
    49   23  148 1    
    50   24   25 am   BACKBONE|DICT|INTERRES
    51   24  149 1    
    52   25   26 2    
    53   25   27 1    
    54   27   28 1    
    55   27   29 1    
    56   27  150 1    
    57   28  151 1    
    58   28  152 1    
    59   28  153 1    
    60   29   30 am   BACKBONE|DICT|INTERRES
    61   29  154 1    
    62   30   31 2    
    63   30   32 1    
    64   32   33 1    
    65   32   34 1    
    66   32  155 1    
    67   33  156 1    
    68   33  157 1    
    69   33  158 1    
    70   34   35 am   BACKBONE|DICT|INTERRES
    71   34  159 1    
    72   35   36 2    
    73   35   37 1    
    74   37   38 1    
    75   37   39 1    
    76   37  160 1    
    77   38  161 1    
    78   38  162 1    
    79   38  163 1    
    80   39   40 am   BACKBONE|DICT|INTERRES
    81   39  164 1    
    82   40   41 2    
    83   40   42 1    
    84   42   43 1    
    85   42   44 1    
    86   42  165 1    
    87   43  166 1    
    88   43  167 1    
    89   43  168 1    
    90   44   45 am   BACKBONE|DICT|INTERRES
    91   44  169 1    
    92   45   46 2    
    93   45   47 1    
    94   47   48 1    
    95   47   49 1    
    96   47  170 1    
    97   48  171 1    
    98   48  172 1    
    99   48  173 1    
   100   49   50 am   BACKBONE|DICT|INTERRES
   101   49  174 1    
   102   50   51 2    
   103   50   52 1    
   104   52   53 1    
   105   52   54 1    
   106   52  175 1    
   107   53  176 1    
   108   53  177 1    
   109   53  178 1    
   110   54   55 am   BACKBONE|DICT|INTERRES
   111   54  179 1    
   112   55   56 2    
   113   55   57 1    
   114   57   58 1    
   115   57   59 1    
   116   57  180 1    
   117   58  181 1    
   118   58  182 1    
   119   58  183 1    
   120   59   60 am   BACKBONE|DICT|INTERRES
   121   59  184 1    
   122   60   61 2    
   123   60   62 1    
   124   62   63 1    
   125   62   64 1    
   126   62  185 1    
   127   63  186 1    
   128   63  187 1    
   129   63  188 1    
   130   64   65 am   BACKBONE|DICT|INTERRES
   131   64  189 1    
   132   65   66 2    
   133   67   68 2    
   134   67   69 am   BACKBONE|DICT|INTERRES
   135   69   70 1    
   136   69  190 1    
   137   70   71 1    
   138   70   72 1    
   139   70  191 1    
   140   71  192 1    
   141   71  193 1    
   142   71  194 1    
   143   72   73 2    
   144   72   74 am   BACKBONE|DICT|INTERRES
   145   74   75 1    
   146   74  195 1    
   147   75   76 1    
   148   75   77 1    
   149   75  196 1    
   150   76  197 1    
   151   76  198 1    
   152   76  199 1    
   153   77   78 2    
   154   77   79 am   BACKBONE|DICT|INTERRES
   155   79   80 1    
   156   79  200 1    
   157   80   81 1    
   158   80   82 1    
   159   80  201 1    
   160   81  202 1    
   161   81  203 1    
   162   81  204 1    
   163   82   83 2    
   164   82   84 am   BACKBONE|DICT|INTERRES
   165   84   85 1    
   166   84  205 1    
   167   85   86 1    
   168   85   87 1    
   169   85  206 1    
   170   86  207 1    
   171   86  208 1    
   172   86  209 1    
   173   87   88 2    
   174   87   89 am   BACKBONE|DICT|INTERRES
   175   89   90 1    
   176   89  210 1    
   177   90   91 1    
   178   90   92 1    
   179   90  211 1    
   180   91  212 1    
   181   91  213 1    
   182   91  214 1    
   183   92   93 2    
   184   92   94 am   BACKBONE|DICT|INTERRES
   185   94   95 1    
   186   94  215 1    
   187   95   96 1    
   188   95   97 1    
   189   95  216 1    
   190   96  217 1    
   191   96  218 1    
   192   96  219 1    
   193   97   98 2    
   194   97   99 am   BACKBONE|DICT|INTERRES
   195   99  100 1    
   196   99  220 1    
   197  100  101 1    
   198  100  102 1    
   199  100  221 1    
   200  101  222 1    
   201  101  223 1    
   202  101  224 1    
   203  102  103 2    
   204  102  104 am   BACKBONE|DICT|INTERRES
   205  104  105 1    
   206  104  225 1    
   207  105  106 1    
   208  105  107 1    
   209  105  226 1    
   210  106  227 1    
   211  106  228 1    
   212  106  229 1    
   213  107  108 2    
   214  107  109 am   BACKBONE|DICT|INTERRES
   215  109  110 1    
   216  109  230 1    
   217  110  111 1    
   218  110  112 1    
   219  110  231 1    
   220  111  232 1    
   221  111  233 1    
   222  111  234 1    
   223  112  113 2    
   224  112  114 am   BACKBONE|DICT|INTERRES
   225  114  115 1    
   226  114  235 1    
   227  115  116 1    
   228  115  117 1    
   229  115  236 1    
   230  116  237 1    
   231  116  238 1    
   232  116  239 1    
   233  117  118 2    
   234  117  119 am   BACKBONE|DICT|INTERRES
   235  119  120 1    
   236  119  240 1    
   237  120  121 1    
   238  120  124 1    
   239  120  241 1    
   240  121  122 am   BACKBONE|DICT|INTERRES
   241  121  123 2    
   242  122  242 1    
   243  122  243 1    
   244  124  125 1    
   245  124  244 1    
   246  124  245 1    
   247  125  126 1    
   248  126  246 1    
   249  126  247 1    
@<TRIPOS>SUBSTRUCTURE
     1 UNK         1 GROUP             0       ****    0 ROOT    
