@<TRIPOS>MOLECULE
3R540
247   249    1
SMALL
USER_CHARGES


@<TRIPOS>ATOM
      1 CA          5.2552  -14.0153  -44.4661 C.3       0 UNK        -0.1800 
      2 C           3.7317  -13.9568  -44.5486 C.2       0 UNK         0.5000 
      3 O           3.0693  -14.4660  -43.6464 O.2       0 UNK        -0.5000 
      4 N           3.1135  -13.3832  -45.5915 N.am      1 UNK        -0.5000 
      5 CA          3.6745  -12.7757  -46.8098 C.3       1 UNK         0.1400 
      6 C6          4.5159  -13.7414  -47.6917 C.3       23 UNK        -0.0398 
      7 S7          3.6196  -15.2835  -48.0731 S.3       23 UNK        -0.2404 
      8 C8          3.4813  -15.2166  -49.8823 C.3       23 UNK        -0.0205 
      9 C9          2.5672  -16.3262  -50.3716 C.ar      23 UNK        -0.0193 
     10 C10         1.2293  -16.0538  -50.6637 C.ar      23 UNK        -0.1150 
     11 C11         0.3623  -17.0809  -51.0447 C.ar      23 UNK        -0.0193 
     12 C12         0.8505  -18.3857  -51.1615 C.ar      23 UNK        -0.1150 
     13 C13         2.1911  -18.6703  -50.8760 C.ar      23 UNK        -0.0193 
     14 C14         3.0444  -17.6344  -50.4859 C.ar      23 UNK        -0.1150 
     15 C15         2.7228  -20.0938  -50.9695 C.3       23 UNK        -0.0205 
     16 S16         2.5296  -20.9975  -49.3971 S.3       23 UNK        -0.2404 
     17 C17         0.7362  -21.2977  -49.4214 C.3       23 UNK        -0.0398 
     18 CA          0.2700  -22.4043  -48.4475 C.3       11 UNK         0.1400 
     19 N           0.2981  -21.9816  -47.0413 N.am      11 UNK        -0.5000 
     20 C          -0.0282  -22.7634  -45.9996 C.2       10 UNK         0.5000 
     21 O          -0.3109  -23.9566  -46.1013 O.2       10 UNK        -0.5000 
     22 CA         -0.1173  -22.0972  -44.6146 C.3       10 UNK         0.1400 
     23 CB          1.2729  -21.9527  -43.9791 C.3       10 UNK        -0.1800 
     24 N          -0.7987  -20.8020  -44.6520 N.am      10 UNK        -0.5000 
     25 C          -2.0815  -20.6336  -45.0079 C.2       9 UNK         0.5000 
     26 O          -2.8356  -21.5608  -45.2985 O.2       9 UNK        -0.5000 
     27 CA         -2.6038  -19.1889  -45.0992 C.3       9 UNK         0.1400 
     28 CB         -3.0160  -18.6642  -43.7161 C.3       9 UNK        -0.1800 
     29 N          -1.6298  -18.2803  -45.6994 N.am      9 UNK        -0.5000 
     30 C          -1.1809  -18.3682  -46.9595 C.2       8 UNK         0.5000 
     31 O          -1.5996  -19.1855  -47.7806 O.2       8 UNK        -0.5000 
     32 CA         -0.0298  -17.4187  -47.3381 C.3       8 UNK         0.1400 
     33 CB         -0.5538  -16.0059  -47.6383 C.3       8 UNK        -0.1800 
     34 N           0.9893  -17.3498  -46.2898 N.am      8 UNK        -0.5000 
     35 C           1.7673  -18.3784  -45.9245 C.2       7 UNK         0.5000 
     36 O           1.7324  -19.4835  -46.4624 O.2       7 UNK        -0.5000 
     37 CA          2.6923  -18.1587  -44.7132 C.3       7 UNK         0.1400 
     38 CB          4.0579  -17.6104  -45.1433 C.3       7 UNK        -0.1800 
     39 N           2.0927  -17.2802  -43.7063 N.am      7 UNK        -0.5000 
     40 C           1.0777  -17.6590  -42.9174 C.2       6 UNK         0.5000 
     41 O           0.5646  -18.7772  -42.9574 O.2       6 UNK        -0.5000 
     42 CA          0.5146  -16.6037  -41.9512 C.3       6 UNK         0.1400 
     43 CB          1.4133  -16.4627  -40.7135 C.3       6 UNK        -0.1800 
     44 N           0.3377  -15.2905  -42.5702 N.am      6 UNK        -0.5000 
     45 C          -0.4832  -15.0194  -43.5939 C.2       5 UNK         0.5000 
     46 O          -1.1561  -15.8784  -44.1628 O.2       5 UNK        -0.5000 
     47 CA         -0.5717  -13.5485  -44.0466 C.3       5 UNK         0.1400 
     48 CB         -1.9722  -13.1844  -44.5706 C.3       5 UNK        -0.1800 
     49 N          -0.2233  -12.6474  -42.9458 N.am      5 UNK        -0.5000 
     50 C           0.7375  -11.7196  -42.9769 C.2       4 UNK         0.5000 
     51 O           1.4248  -11.4683  -43.9711 O.2       4 UNK        -0.5000 
     52 CA          1.0036  -10.9925  -41.6465 C.3       4 UNK         0.1400 
     53 CB          1.8456  -11.8833  -40.7178 C.3       4 UNK        -0.1800 
     54 N           1.7330   -9.7515  -41.8827 N.am      4 UNK        -0.5000 
     55 C           1.1765   -8.5675  -42.1702 C.2       3 UNK         0.5000 
     56 O          -0.0318   -8.3384  -42.1026 O.2       3 UNK        -0.5000 
     57 CA          2.1436   -7.4629  -42.6451 C.3       3 UNK         0.1400 
     58 CB          2.6701   -6.6502  -41.4524 C.3       3 UNK        -0.1800 
     59 N           3.2765   -8.0213  -43.3900 N.am      3 UNK        -0.5000 
     60 C           3.1733   -8.5636  -44.6114 C.2       2 UNK         0.5000 
     61 O           2.1616   -8.4723  -45.3101 O.2       2 UNK        -0.5000 
     62 CA          4.3703   -9.3749  -45.1331 C.3       2 UNK         0.1400 
     63 CB          5.5217   -9.5545  -44.1194 C.3       2 UNK        -0.1800 
     64 N           3.8708  -10.6831  -45.5444 N.am      2 UNK        -0.5000 
     65 C           4.3798  -11.4299  -46.5302 C.2       1 UNK         0.5000 
     66 O           5.3658  -11.0993  -47.1913 O.2       1 UNK        -0.5000 
     67 C          -1.1311  -22.8909  -48.8656 C.2       11 UNK         0.5000 
     68 O          -1.2520  -23.9927  -49.4030 O.2       11 UNK        -0.5000 
     69 N          -2.1573  -22.0735  -48.5871 N.am      12 UNK        -0.5000 
     70 CA         -3.5562  -22.3754  -48.8873 C.3       12 UNK         0.1400 
     71 CB         -4.4318  -21.1641  -48.5330 C.3       12 UNK        -0.1800 
     72 C          -4.0563  -23.6421  -48.1702 C.2       12 UNK         0.5000 
     73 O          -4.7106  -24.4721  -48.7999 O.2       12 UNK        -0.5000 
     74 N          -3.7094  -23.7844  -46.8832 N.am      13 UNK        -0.5000 
     75 CA         -4.0283  -24.9455  -46.0542 C.3       13 UNK         0.1400 
     76 CB         -3.6672  -24.6528  -44.5903 C.3       13 UNK        -0.1800 
     77 C          -3.3411  -26.2337  -46.5387 C.2       13 UNK         0.5000 
     78 O          -4.0064  -27.2640  -46.6466 O.2       13 UNK        -0.5000 
     79 N          -2.0401  -26.1533  -46.8551 N.am      14 UNK        -0.5000 
     80 CA         -1.2378  -27.2684  -47.3682 C.3       14 UNK         0.1400 
     81 CB          0.2388  -26.8512  -47.4398 C.3       14 UNK        -0.1800 
     82 C          -1.7215  -27.7791  -48.7378 C.2       14 UNK         0.5000 
     83 O          -1.7156  -28.9871  -48.9767 O.2       14 UNK        -0.5000 
     84 N          -2.1655  -26.8515  -49.5937 N.am      15 UNK        -0.5000 
     85 CA         -2.7638  -27.1285  -50.8988 C.3       15 UNK         0.1400 
     86 CB         -2.5156  -25.9139  -51.8018 C.3       15 UNK        -0.1800 
     87 C          -4.2694  -27.4652  -50.8270 C.2       15 UNK         0.5000 
     88 O          -4.8783  -27.6976  -51.8723 O.2       15 UNK        -0.5000 
     89 N          -4.8560  -27.4607  -49.6187 N.am      16 UNK        -0.5000 
     90 CA         -6.2648  -27.7344  -49.3027 C.3       16 UNK         0.1400 
     91 CB         -6.5730  -29.2314  -49.5093 C.3       16 UNK        -0.1800 
     92 C          -7.2577  -26.8131  -50.0473 C.2       16 UNK         0.5000 
     93 O          -8.3646  -27.2381  -50.3824 O.2       16 UNK        -0.5000 
     94 N          -6.8197  -25.5756  -50.3206 N.am      17 UNK        -0.5000 
     95 CA         -7.4783  -24.5231  -51.1005 C.3       17 UNK         0.1400 
     96 CB         -8.7472  -24.0256  -50.3797 C.3       17 UNK        -0.1800 
     97 C          -7.7460  -24.8768  -52.5826 C.2       17 UNK         0.5000 
     98 O          -8.4446  -24.1214  -53.2602 O.2       17 UNK        -0.5000 
     99 N          -7.1770  -25.9844  -53.0838 N.am      18 UNK        -0.5000 
    100 CA        -7.2665  -26.3987  -54.4883 C.3       18 UNK         0.1400 
    101 CB        -6.9752  -27.9036  -54.5894 C.3       18 UNK        -0.1800 
    102 C         -6.3087  -25.5981  -55.3922 C.2       18 UNK         0.5000 
    103 O         -6.5286  -25.5135  -56.6010 O.2       18 UNK        -0.5000 
    104 N         -5.2771  -25.0146  -54.7788 N.am      19 UNK        -0.5000 
    105 CA        -4.3069  -24.0952  -55.3499 C.3       19 UNK         0.1400 
    106 CB        -3.1536  -24.8896  -55.9879 C.3       19 UNK        -0.1800 
    107 C         -3.8124  -23.1954  -54.2071 C.2       19 UNK         0.5000 
    108 O         -4.1199  -23.4674  -53.0431 O.2       19 UNK        -0.5000 
    109 N         -3.0625  -22.1403  -54.5559 N.am      20 UNK        -0.5000 
    110 CA        -2.3740  -21.2133  -53.6432 C.3       20 UNK         0.1400 
    111 CB        -1.1942  -21.9306  -52.9571 C.3       20 UNK        -0.1800 
    112 C         -3.2974  -20.5097  -52.6222 C.2       20 UNK         0.5000 
    113 O         -2.8430  -20.1096  -51.5507 O.2       20 UNK        -0.5000 
    114 N         -4.5787  -20.3504  -52.9799 N.am      21 UNK        -0.5000 
    115 CA        -5.6565  -19.8344  -52.1313 C.3       21 UNK         0.1400 
    116 CB        -6.9945  -20.3800  -52.6608 C.3       21 UNK        -0.1800 
    117 C         -5.6671  -18.2952  -51.9901 C.2       21 UNK         0.5000 
    118 O         -6.6997  -17.7198  -51.6439 O.2       21 UNK        -0.5000 
    119 N         -4.5263  -17.6523  -52.2607 N.am      22 UNK        -0.5000 
    120 CA        -4.2897  -16.2085  -52.1311 C.3       22 UNK         0.1400 
    121 C         -4.2183  -15.6716  -50.6688 C.2       22 UNK         0.5000 
    122 N         -4.1779  -16.5158  -49.6445 N.am      22 UNK        -0.7600 
    123 O         -4.2080  -14.4618  -50.4609 O.2       22 UNK        -0.5000 
    124 C124       -3.0868  -15.7410  -53.0032 C.3       23 UNK        -0.0398 
    125 S125       -1.5952  -16.8093  -53.0022 S.3       23 UNK        -0.2404 
    126 C126       -1.1136  -16.7841  -51.2512 C.3       23 UNK        -0.0205 
    127 H127        5.6335  -14.8682  -45.0283 H         1 UNK         0.0600 
    128 H128        5.7314  -13.1098  -44.8359 H         1 UNK         0.0600 
    129 H129        5.5652  -14.1400  -43.4286 H         1 UNK         0.0600 
    130 H130        2.1090  -13.3148  -45.5387 H         1 UNK         0.3000 
    131 H131        2.8024  -12.5025  -47.4059 H         1 UNK         0.0600 
    132 H132        4.7883  -13.2531  -48.6288 H         1 UNK         0.0800 
    133 H133        5.4594  -13.9990  -47.2120 H         1 UNK         0.0800 
    134 H134        3.0947  -14.2428  -50.1868 H         1 UNK         0.0800 
    135 H135        4.4704  -15.3189  -50.3313 H         1 UNK         0.0800 
    136 H136        0.8539  -15.0459  -50.5552 H         1 UNK         0.1150 
    137 H137        0.1758  -19.1793  -51.4484 H         1 UNK         0.1150 
    138 H138        4.0759  -17.8496  -50.2444 H         1 UNK         0.1150 
    139 H139        2.2253  -20.6329  -51.7770 H         1 UNK         0.0800 
    140 H140        3.7818  -20.0739  -51.2311 H         1 UNK         0.0800 
    141 H141        0.4792  -21.5696  -50.4453 H         1 UNK         0.0800 
    142 H142        0.2208  -20.3599  -49.2146 H         1 UNK         0.0800 
    143 H143        0.9459  -23.2566  -48.5446 H         1 UNK         0.0600 
    144 H144        0.5834  -21.0224  -46.8635 H         1 UNK         0.3000 
    145 H145       -0.7075  -22.7538  -43.9721 H         1 UNK         0.0600 
    146 H146        1.2099  -21.5119  -42.9841 H         1 UNK         0.0600 
    147 H147        1.7527  -22.9264  -43.8736 H         1 UNK         0.0600 
    148 H148        1.9322  -21.3304  -44.5823 H         1 UNK         0.0600 
    149 H149       -0.2587  -19.9919  -44.3671 H         1 UNK         0.3000 
    150 H150       -3.4895  -19.1958  -45.7378 H         1 UNK         0.0600 
    151 H151       -3.7606  -19.3158  -43.2574 H         1 UNK         0.0600 
    152 H152       -3.4537  -17.6683  -43.7879 H         1 UNK         0.0600 
    153 H153       -2.1658  -18.6058  -43.0363 H         1 UNK         0.0600 
    154 H154       -1.2741  -17.5383  -45.1025 H         1 UNK         0.3000 
    155 H155        0.4439  -17.8111  -48.2397 H         1 UNK         0.0600 
    156 H156        0.2500  -15.3506  -47.9737 H         1 UNK         0.0600 
    157 H157       -1.0156  -15.5476  -46.7651 H         1 UNK         0.0600 
    158 H158       -1.3080  -16.0299  -48.4245 H         1 UNK         0.0600 
    159 H159        1.0594  -16.4869  -45.7737 H         1 UNK         0.3000 
    160 H160        2.8652  -19.1329  -44.2518 H         1 UNK         0.0600 
    161 H161        3.9655  -16.6265  -45.5955 H         1 UNK         0.0600 
    162 H162        4.5284  -18.2654  -45.8777 H         1 UNK         0.0600 
    163 H163        4.7366  -17.5273  -44.2944 H         1 UNK         0.0600 
    164 H164        2.4523  -16.3325  -43.6292 H         1 UNK         0.3000 
    165 H165       -0.4674  -16.9499  -41.6220 H         1 UNK         0.0600 
    166 H166        2.3989  -16.0742  -40.9739 H         1 UNK         0.0600 
    167 H167        0.9707  -15.7889  -39.9797 H         1 UNK         0.0600 
    168 H168        1.5579  -17.4265  -40.2236 H         1 UNK         0.0600 
    169 H169        0.9253  -14.5463  -42.2234 H         1 UNK         0.3000 
    170 H170        0.1359  -13.4406  -44.8700 H         1 UNK         0.0600 
    171 H171       -2.2463  -13.7982  -45.4294 H         1 UNK         0.0600 
    172 H172       -2.7363  -13.3278  -43.8058 H         1 UNK         0.0600 
    173 H173       -2.0118  -12.1439  -44.8932 H         1 UNK         0.0600 
    174 H174       -0.7301  -12.7970  -42.0839 H         1 UNK         0.3000 
    175 H175        0.0498  -10.7738  -41.1617 H         1 UNK         0.0600 
    176 H176        2.0720  -11.3730  -39.7814 H         1 UNK         0.0600 
    177 H177        1.3152  -12.8017  -40.4635 H         1 UNK         0.0600 
    178 H178        2.7913  -12.1692  -41.1811 H         1 UNK         0.0600 
    179 H179        2.7279   -9.8467  -42.0150 H         1 UNK         0.3000 
    180 H180        1.5894   -6.7889  -43.3019 H         1 UNK         0.0600 
    181 H181        3.2418   -7.2707  -40.7610 H         1 UNK         0.0600 
    182 H182        1.8474   -6.2056  -40.8909 H         1 UNK         0.0600 
    183 H183        3.3138   -5.8354  -41.7841 H         1 UNK         0.0600 
    184 H184        4.1501   -8.1092  -42.8913 H         1 UNK         0.3000 
    185 H185        4.7512   -8.8378  -46.0041 H         1 UNK         0.0600 
    186 H186        6.3423  -10.1217  -44.5591 H         1 UNK         0.0600 
    187 H187        5.9342   -8.5935  -43.8100 H         1 UNK         0.0600 
    188 H188        5.1966  -10.0900  -43.2264 H         1 UNK         0.0600 
    189 H189        3.0272  -10.9980  -45.0691 H         1 UNK         0.3000 
    190 H190       -1.9680  -21.1695  -48.1655 H         1 UNK         0.3000 
    191 H191       -3.6318  -22.5483  -49.9633 H         1 UNK         0.0600 
    192 H192       -4.1026  -20.2720  -49.0658 H         1 UNK         0.0600 
    193 H193       -5.4730  -21.3437  -48.8031 H         1 UNK         0.0600 
    194 H194       -4.4019  -20.9421  -47.4662 H         1 UNK         0.0600 
    195 H195       -3.2075  -23.0268  -46.4262 H         1 UNK         0.3000 
    196 H196       -5.1071  -25.1051  -46.1100 H         1 UNK         0.0600 
    197 H197       -3.9057  -25.5031  -43.9503 H         1 UNK         0.0600 
    198 H198       -4.2234  -23.7949  -44.2121 H         1 UNK         0.0600 
    199 H199       -2.6043  -24.4394  -44.4725 H         1 UNK         0.0600 
    200 H200       -1.5501  -25.2728  -46.7146 H         1 UNK         0.3000 
    201 H201       -1.3238  -28.0941  -46.6590 H         1 UNK         0.0600 
    202 H202        0.6202  -26.5837  -46.4543 H         1 UNK         0.0600 
    203 H203        0.3819  -25.9932  -48.0980 H         1 UNK         0.0600 
    204 H204        0.8588  -27.6648  -47.8183 H         1 UNK         0.0600 
    205 H205       -2.0852  -25.8724  -49.3352 H         1 UNK         0.3000 
    206 H206       -2.2645  -27.9895  -51.3476 H         1 UNK         0.0600 
    207 H207       -1.4496  -25.7290  -51.9337 H         1 UNK         0.0600 
    208 H208       -2.9462  -26.0578  -52.7931 H         1 UNK         0.0600 
    209 H209       -2.9566  -25.0144  -51.3719 H         1 UNK         0.0600 
    210 H210       -4.2796  -27.2290  -48.8192 H         1 UNK         0.3000 
    211 H211       -6.3865  -27.5133  -48.2415 H         1 UNK         0.0600 
    212 H212       -6.5221  -29.5122  -50.5619 H         1 UNK         0.0600 
    213 H213       -7.5726  -29.4801  -49.1513 H         1 UNK         0.0600 
    214 H214       -5.8690  -29.8570  -48.9606 H         1 UNK         0.0600 
    215 H215       -5.9134  -25.3141  -49.9354 H         1 UNK         0.3000 
    216 H216       -6.7694  -23.6938  -51.1225 H         1 UNK         0.0600 
    217 H217       -8.5308  -23.7505  -49.3473 H         1 UNK         0.0600 
    218 H218       -9.5302  -24.7841  -50.3689 H         1 UNK         0.0600 
    219 H219       -9.1560  -23.1411  -50.8695 H         1 UNK         0.0600 
    220 H220       -6.5961  -26.5565  -52.4806 H         1 UNK         0.3000 
    221 H221       -8.2846  -26.2254  -54.8431 H         1 UNK         0.0600 
    222 H222       -5.9509  -28.1367  -54.2967 H         1 UNK         0.0600 
    223 H223       -7.6460  -28.4800  -53.9520 H         1 UNK         0.0600 
    224 H224       -7.1113  -28.2583  -55.6117 H         1 UNK         0.0600 
    225 H225       -5.2090  -25.0880  -53.7708 H         1 UNK         0.3000 
    226 H226       -4.7927  -23.4688  -56.1008 H         1 UNK         0.0600 
    227 H227       -3.5171  -25.5479  -56.7771 H         1 UNK         0.0600 
    228 H228       -2.4162  -24.2238  -56.4374 H         1 UNK         0.0600 
    229 H229       -2.6354  -25.5056  -55.2521 H         1 UNK         0.0600 
    230 H230       -2.8896  -21.9829  -55.5392 H         1 UNK         0.3000 
    231 H231       -1.9596  -20.4210  -54.2683 H         1 UNK         0.0600 
    232 H232       -0.5524  -21.2117  -52.4505 H         1 UNK         0.0600 
    233 H233       -0.5746  -22.4595  -53.6810 H         1 UNK         0.0600 
    234 H234       -1.5363  -22.6534  -52.2147 H         1 UNK         0.0600 
    235 H235       -4.8533  -20.6796  -53.8932 H         1 UNK         0.3000 
    236 H236       -5.5155  -20.2359  -51.1268 H         1 UNK         0.0600 
    237 H237       -7.8214  -20.1071  -52.0040 H         1 UNK         0.0600 
    238 H238       -7.2206  -19.9919  -53.6545 H         1 UNK         0.0600 
    239 H239       -6.9807  -21.4688  -52.7206 H         1 UNK         0.0600 
    240 H240       -3.7126  -18.2089  -52.4836 H         1 UNK         0.3000 
    241 H241       -5.1724  -15.7182  -52.5461 H         1 UNK         0.0600 
    242 H242       -4.1863  -17.5108  -49.7976 H         1 UNK         0.3800 
    243 H243       -4.1531  -16.1504  -48.7065 H         1 UNK         0.3800 
    244 H244       -3.4194  -15.6896  -54.0406 H         1 UNK         0.0800 
    245 H245       -2.7886  -14.7205  -52.7561 H         1 UNK         0.0800 
    246 H246       -1.3518  -15.8072  -50.8292 H         1 UNK         0.0800 
    247 H247       -1.7069  -17.5173  -50.7024 H         1 UNK         0.0800 
@<TRIPOS>BOND
     1    1    2 1    
     2    1  127 1    
     3    1  128 1    
     4    1  129 1    
     5    2    3 2    
     6    2    4 am   BACKBONE|DICT|INTERRES
     7    4    5 1    
     8    4  130 1    
     9    5    6 1    
    10    5   65 1    
    11    5  131 1    
    12    6    7 1    
    13    6  132 1    
    14    6  133 1    
    15    7    8 1    
    16    8    9 1    
    17    8  134 1    
    18    8  135 1    
    19    9   10 ar   
    20    9   14 ar   
    21   10   11 ar   
    22   10  136 1    
    23   11   12 ar   
    24   11  126 1    
    25   12   13 ar   
    26   12  137 1    
    27   13   14 ar   
    28   13   15 1    
    29   14  138 1    
    30   15   16 1    
    31   15  139 1    
    32   15  140 1    
    33   16   17 1    
    34   17   18 1    
    35   17  141 1    
    36   17  142 1    
    37   18   19 1    
    38   18   67 1    
    39   18  143 1    
    40   19   20 am   BACKBONE|DICT|INTERRES
    41   19  144 1    
    42   20   21 2    
    43   20   22 1    
    44   22   23 1    
    45   22   24 1    
    46   22  145 1    
    47   23  146 1    
    48   23  147 1    
    49   23  148 1    
    50   24   25 am   BACKBONE|DICT|INTERRES
    51   24  149 1    
    52   25   26 2    
    53   25   27 1    
    54   27   28 1    
    55   27   29 1    
    56   27  150 1    
    57   28  151 1    
    58   28  152 1    
    59   28  153 1    
    60   29   30 am   BACKBONE|DICT|INTERRES
    61   29  154 1    
    62   30   31 2    
    63   30   32 1    
    64   32   33 1    
    65   32   34 1    
    66   32  155 1    
    67   33  156 1    
    68   33  157 1    
    69   33  158 1    
    70   34   35 am   BACKBONE|DICT|INTERRES
    71   34  159 1    
    72   35   36 2    
    73   35   37 1    
    74   37   38 1    
    75   37   39 1    
    76   37  160 1    
    77   38  161 1    
    78   38  162 1    
    79   38  163 1    
    80   39   40 am   BACKBONE|DICT|INTERRES
    81   39  164 1    
    82   40   41 2    
    83   40   42 1    
    84   42   43 1    
    85   42   44 1    
    86   42  165 1    
    87   43  166 1    
    88   43  167 1    
    89   43  168 1    
    90   44   45 am   BACKBONE|DICT|INTERRES
    91   44  169 1    
    92   45   46 2    
    93   45   47 1    
    94   47   48 1    
    95   47   49 1    
    96   47  170 1    
    97   48  171 1    
    98   48  172 1    
    99   48  173 1    
   100   49   50 am   BACKBONE|DICT|INTERRES
   101   49  174 1    
   102   50   51 2    
   103   50   52 1    
   104   52   53 1    
   105   52   54 1    
   106   52  175 1    
   107   53  176 1    
   108   53  177 1    
   109   53  178 1    
   110   54   55 am   BACKBONE|DICT|INTERRES
   111   54  179 1    
   112   55   56 2    
   113   55   57 1    
   114   57   58 1    
   115   57   59 1    
   116   57  180 1    
   117   58  181 1    
   118   58  182 1    
   119   58  183 1    
   120   59   60 am   BACKBONE|DICT|INTERRES
   121   59  184 1    
   122   60   61 2    
   123   60   62 1    
   124   62   63 1    
   125   62   64 1    
   126   62  185 1    
   127   63  186 1    
   128   63  187 1    
   129   63  188 1    
   130   64   65 am   BACKBONE|DICT|INTERRES
   131   64  189 1    
   132   65   66 2    
   133   67   68 2    
   134   67   69 am   BACKBONE|DICT|INTERRES
   135   69   70 1    
   136   69  190 1    
   137   70   71 1    
   138   70   72 1    
   139   70  191 1    
   140   71  192 1    
   141   71  193 1    
   142   71  194 1    
   143   72   73 2    
   144   72   74 am   BACKBONE|DICT|INTERRES
   145   74   75 1    
   146   74  195 1    
   147   75   76 1    
   148   75   77 1    
   149   75  196 1    
   150   76  197 1    
   151   76  198 1    
   152   76  199 1    
   153   77   78 2    
   154   77   79 am   BACKBONE|DICT|INTERRES
   155   79   80 1    
   156   79  200 1    
   157   80   81 1    
   158   80   82 1    
   159   80  201 1    
   160   81  202 1    
   161   81  203 1    
   162   81  204 1    
   163   82   83 2    
   164   82   84 am   BACKBONE|DICT|INTERRES
   165   84   85 1    
   166   84  205 1    
   167   85   86 1    
   168   85   87 1    
   169   85  206 1    
   170   86  207 1    
   171   86  208 1    
   172   86  209 1    
   173   87   88 2    
   174   87   89 am   BACKBONE|DICT|INTERRES
   175   89   90 1    
   176   89  210 1    
   177   90   91 1    
   178   90   92 1    
   179   90  211 1    
   180   91  212 1    
   181   91  213 1    
   182   91  214 1    
   183   92   93 2    
   184   92   94 am   BACKBONE|DICT|INTERRES
   185   94   95 1    
   186   94  215 1    
   187   95   96 1    
   188   95   97 1    
   189   95  216 1    
   190   96  217 1    
   191   96  218 1    
   192   96  219 1    
   193   97   98 2    
   194   97   99 am   BACKBONE|DICT|INTERRES
   195   99  100 1    
   196   99  220 1    
   197  100  101 1    
   198  100  102 1    
   199  100  221 1    
   200  101  222 1    
   201  101  223 1    
   202  101  224 1    
   203  102  103 2    
   204  102  104 am   BACKBONE|DICT|INTERRES
   205  104  105 1    
   206  104  225 1    
   207  105  106 1    
   208  105  107 1    
   209  105  226 1    
   210  106  227 1    
   211  106  228 1    
   212  106  229 1    
   213  107  108 2    
   214  107  109 am   BACKBONE|DICT|INTERRES
   215  109  110 1    
   216  109  230 1    
   217  110  111 1    
   218  110  112 1    
   219  110  231 1    
   220  111  232 1    
   221  111  233 1    
   222  111  234 1    
   223  112  113 2    
   224  112  114 am   BACKBONE|DICT|INTERRES
   225  114  115 1    
   226  114  235 1    
   227  115  116 1    
   228  115  117 1    
   229  115  236 1    
   230  116  237 1    
   231  116  238 1    
   232  116  239 1    
   233  117  118 2    
   234  117  119 am   BACKBONE|DICT|INTERRES
   235  119  120 1    
   236  119  240 1    
   237  120  121 1    
   238  120  124 1    
   239  120  241 1    
   240  121  122 am   BACKBONE|DICT|INTERRES
   241  121  123 2    
   242  122  242 1    
   243  122  243 1    
   244  124  125 1    
   245  124  244 1    
   246  124  245 1    
   247  125  126 1    
   248  126  246 1    
   249  126  247 1    
@<TRIPOS>SUBSTRUCTURE
     1 UNK         1 GROUP             0       ****    0 ROOT    
