@<TRIPOS>MOLECULE
3R540
247   249    1
SMALL
USER_CHARGES


@<TRIPOS>ATOM
      1 CA         -2.9549  -13.4328  -41.0734 C.3       0 UNK        -0.1800 
      2 C          -3.0810  -12.7049  -42.4047 C.2       0 UNK         0.5000 
      3 O          -2.9934  -11.4778  -42.4448 O.2       0 UNK        -0.5000 
      4 N          -3.2968  -13.4570  -43.4899 N.am      1 UNK        -0.5000 
      5 CA         -3.3982  -12.9452  -44.8571 C.3       1 UNK         0.1400 
      6 C6         -4.0631  -13.9833  -45.7944 C.3       23 UNK        -0.0398 
      7 S7         -4.7330  -13.2256  -47.3138 S.3       23 UNK        -0.2404 
      8 C8         -3.4480  -13.6652  -48.5373 C.3       23 UNK        -0.0205 
      9 C9         -3.4665  -15.1015  -49.0656 C.ar      23 UNK        -0.0193 
     10 C10        -2.6158  -15.4135  -50.1296 C.ar      23 UNK        -0.1150 
     11 C11        -2.5853  -16.6995  -50.6715 C.ar      23 UNK        -0.0193 
     12 C12        -3.4101  -17.6895  -50.1347 C.ar      23 UNK        -0.1150 
     13 C13        -4.2709  -17.4041  -49.0682 C.ar      23 UNK        -0.0193 
     14 C14        -4.2926  -16.1077  -48.5444 C.ar      23 UNK        -0.1150 
     15 C15        -5.2195  -18.4515  -48.4811 C.3       23 UNK        -0.0205 
     16 S16        -4.6611  -20.1833  -48.6248 S.3       23 UNK        -0.2404 
     17 C17        -3.1576  -20.1390  -47.5975 C.3       23 UNK        -0.0398 
     18 CA         -2.3790  -21.4729  -47.6547 C.3       11 UNK         0.1400 
     19 N          -0.9355  -21.2750  -47.5061 N.am      11 UNK        -0.5000 
     20 C          -0.0134  -22.2346  -47.6623 C.2       10 UNK         0.5000 
     21 O          -0.2785  -23.3956  -47.9662 O.2       10 UNK        -0.5000 
     22 CA          1.4474  -21.8451  -47.3957 C.3       10 UNK         0.1400 
     23 CB          2.0450  -21.1327  -48.6187 C.3       10 UNK        -0.1800 
     24 N           1.5849  -21.0134  -46.1995 N.am      10 UNK        -0.5000 
     25 C           1.2888  -21.4303  -44.9584 C.2       9 UNK         0.5000 
     26 O           0.9295  -22.5783  -44.6912 O.2       9 UNK        -0.5000 
     27 CA          1.3506  -20.3789  -43.8348 C.3       9 UNK         0.1400 
     28 CB          2.8050  -20.0683  -43.4529 C.3       9 UNK        -0.1800 
     29 N           0.6616  -19.1362  -44.1824 N.am      9 UNK        -0.5000 
     30 C          -0.6399  -19.0349  -44.4874 C.2       8 UNK         0.5000 
     31 O          -1.4289  -19.9777  -44.4532 O.2       8 UNK        -0.5000 
     32 CA         -1.1366  -17.6594  -44.9666 C.3       8 UNK         0.1400 
     33 CB         -1.5518  -16.7766  -43.7814 C.3       8 UNK        -0.1800 
     34 N          -0.1498  -16.9619  -45.7940 N.am      8 UNK        -0.5000 
     35 C           0.2567  -17.4007  -46.9933 C.2       7 UNK         0.5000 
     36 O          -0.1426  -18.4449  -47.5093 O.2       7 UNK        -0.5000 
     37 CA          1.3062  -16.5445  -47.7177 C.3       7 UNK         0.1400 
     38 CB          0.7753  -15.1323  -48.0160 C.3       7 UNK        -0.1800 
     39 N           2.5707  -16.4451  -46.9879 N.am      7 UNK        -0.5000 
     40 C           3.4068  -17.4641  -46.7457 C.2       6 UNK         0.5000 
     41 O           3.1356  -18.6417  -46.9694 O.2       6 UNK        -0.5000 
     42 CA          4.7825  -17.1102  -46.1620 C.3       6 UNK         0.1400 
     43 CB          5.5746  -16.1933  -47.1101 C.3       6 UNK        -0.1800 
     44 N           4.6250  -16.4502  -44.8728 N.am      6 UNK        -0.5000 
     45 C           5.0139  -16.9546  -43.6948 C.2       5 UNK         0.5000 
     46 O           5.6367  -18.0100  -43.5728 O.2       5 UNK        -0.5000 
     47 CA          4.6478  -16.1534  -42.4271 C.3       5 UNK         0.1400 
     48 CB          5.8751  -15.3952  -41.8984 C.3       5 UNK        -0.1800 
     49 N           3.5525  -15.1996  -42.6166 N.am      5 UNK        -0.5000 
     50 C           2.2931  -15.5247  -42.9359 C.2       4 UNK         0.5000 
     51 O           1.8976  -16.6810  -43.0810 O.2       4 UNK        -0.5000 
     52 CA          1.3237  -14.3594  -43.1962 C.3       4 UNK         0.1400 
     53 CB          0.5972  -13.9653  -41.9038 C.3       4 UNK        -0.1800 
     54 N           1.9233  -13.1596  -43.7878 N.am      4 UNK        -0.5000 
     55 C           2.6467  -13.1023  -44.9136 C.2       3 UNK         0.5000 
     56 O           3.0493  -14.0927  -45.5260 O.2       3 UNK        -0.5000 
     57 CA          2.8887  -11.6942  -45.4859 C.3       3 UNK         0.1400 
     58 CB          4.0600  -11.6624  -46.4835 C.3       3 UNK        -0.1800 
     59 N           1.6747  -11.2479  -46.1655 N.am      3 UNK        -0.5000 
     60 C           0.5694  -10.8012  -45.5545 C.2       2 UNK         0.5000 
     61 O           0.5225  -10.5372  -44.3504 O.2       2 UNK        -0.5000 
     62 CA         -0.7031  -10.6411  -46.4168 C.3       2 UNK         0.1400 
     63 CB         -0.5499  -11.1519  -47.8683 C.3       2 UNK        -0.1800 
     64 N          -1.8810  -11.2591  -45.7959 N.am      2 UNK        -0.5000 
     65 C          -2.0089  -12.5297  -45.3824 C.2       1 UNK         0.5000 
     66 O          -1.1144  -13.3763  -45.4371 O.2       1 UNK        -0.5000 
     67 C          -2.9377  -22.5105  -46.6605 C.2       11 UNK         0.5000 
     68 O          -3.7088  -23.3811  -47.0641 O.2       11 UNK        -0.5000 
     69 N          -2.5026  -22.4339  -45.3956 N.am      12 UNK        -0.5000 
     70 CA         -2.8308  -23.3948  -44.3442 C.3       12 UNK         0.1400 
     71 CB         -2.3188  -22.8764  -42.9920 C.3       12 UNK        -0.1800 
     72 C          -2.2807  -24.8011  -44.6407 C.2       12 UNK         0.5000 
     73 O          -3.0196  -25.7769  -44.5072 O.2       12 UNK        -0.5000 
     74 N          -1.0159  -24.8783  -45.0805 N.am      13 UNK        -0.5000 
     75 CA         -0.3477  -26.1221  -45.4752 C.3       13 UNK         0.1400 
     76 CB          1.1424  -25.8453  -45.7253 C.3       13 UNK        -0.1800 
     77 C          -0.9934  -26.7946  -46.7033 C.2       13 UNK         0.5000 
     78 O          -1.1050  -28.0203  -46.7390 O.2       13 UNK        -0.5000 
     79 N          -1.4364  -25.9788  -47.6682 N.am      14 UNK        -0.5000 
     80 CA         -2.1465  -26.3987  -48.8775 C.3       14 UNK         0.1400 
     81 CB         -1.9870  -25.3028  -49.9414 C.3       14 UNK        -0.1800 
     82 C          -3.6402  -26.7134  -48.6463 C.2       14 UNK         0.5000 
     83 O          -4.3043  -27.1554  -49.5840 O.2       14 UNK        -0.5000 
     84 N          -4.1417  -26.4790  -47.4244 N.am      15 UNK        -0.5000 
     85 CA         -5.5209  -26.6774  -46.9716 C.3       15 UNK         0.1400 
     86 CB         -5.9123  -28.1699  -47.0165 C.3       15 UNK        -0.1800 
     87 C          -6.5238  -25.7551  -47.6957 C.2       15 UNK         0.5000 
     88 O          -7.5514  -26.2193  -48.1934 O.2       15 UNK        -0.5000 
     89 N          -6.2007  -24.4542  -47.7142 N.am      16 UNK        -0.5000 
     90 CA         -6.9919  -23.3419  -48.2477 C.3       16 UNK         0.1400 
     91 CB         -8.3279  -23.1905  -47.4897 C.3       16 UNK        -0.1800 
     92 C          -7.1572  -23.4000  -49.7792 C.2       16 UNK         0.5000 
     93 O          -8.2552  -23.1894  -50.2972 O.2       16 UNK        -0.5000 
     94 N          -6.0482  -23.6699  -50.4818 N.am      17 UNK        -0.5000 
     95 CA         -5.9865  -23.7433  -51.9464 C.3       17 UNK         0.1400 
     96 CB         -4.7568  -24.5687  -52.3551 C.3       17 UNK        -0.1800 
     97 C          -5.9810  -22.3669  -52.6488 C.2       17 UNK         0.5000 
     98 O          -6.0360  -22.3258  -53.8789 O.2       17 UNK        -0.5000 
     99 N          -5.9086  -21.2735  -51.8738 N.am      18 UNK        -0.5000 
    100 CA        -5.8587  -19.8774  -52.3174 C.3       18 UNK         0.1400 
    101 CB        -7.1838  -19.4628  -52.9954 C.3       18 UNK        -0.1800 
    102 C         -4.5953  -19.6049  -53.1575 C.2       18 UNK         0.5000 
    103 O         -3.5078  -19.9962  -52.7335 O.2       18 UNK        -0.5000 
    104 N         -4.7363  -18.9579  -54.3232 N.am      19 UNK        -0.5000 
    105 CA        -3.6421  -18.5652  -55.2208 C.3       19 UNK         0.1400 
    106 CB        -4.2321  -17.8687  -56.4556 C.3       19 UNK        -0.1800 
    107 C         -2.7111  -19.7183  -55.6482 C.2       19 UNK         0.5000 
    108 O         -1.5188  -19.4884  -55.8556 O.2       19 UNK        -0.5000 
    109 N         -3.2544  -20.9415  -55.7194 N.am      20 UNK        -0.5000 
    110 CA        -2.5118  -22.1692  -56.0054 C.3       20 UNK         0.1400 
    111 CB        -3.5086  -23.3045  -56.2815 C.3       20 UNK        -0.1800 
    112 C         -1.5207  -22.5731  -54.8937 C.2       20 UNK         0.5000 
    113 O         -0.5839  -23.3201  -55.1785 O.2       20 UNK        -0.5000 
    114 N         -1.7242  -22.0804  -53.6621 N.am      21 UNK        -0.5000 
    115 CA        -0.8043  -22.2797  -52.5437 C.3       21 UNK         0.1400 
    116 CB        -1.5227  -21.9856  -51.2199 C.3       21 UNK        -0.1800 
    117 C          0.4416  -21.3886  -52.6726 C.2       21 UNK         0.5000 
    118 O          1.5558  -21.8649  -52.4529 O.2       21 UNK        -0.5000 
    119 N          0.2236  -20.1137  -53.0199 N.am      22 UNK        -0.5000 
    120 CA         1.2880  -19.1143  -53.1937 C.3       22 UNK         0.1400 
    121 C          2.0283  -19.2409  -54.5537 C.2       22 UNK         0.5000 
    122 N          1.3552  -19.6129  -55.6359 N.am      22 UNK        -0.7600 
    123 O          3.2302  -19.0009  -54.6270 O.2       22 UNK        -0.5000 
    124 C124        0.7789  -17.6658  -52.9908 C.3       23 UNK        -0.0398 
    125 S125        0.0097  -17.3945  -51.3554 S.3       23 UNK        -0.2404 
    126 C126       -1.6906  -17.0043  -51.8614 C.3       23 UNK        -0.0205 
    127 H127       -2.0904  -13.0647  -40.5209 H         1 UNK         0.0600 
    128 H128       -2.8353  -14.5080  -41.2103 H         1 UNK         0.0600 
    129 H129       -3.8441  -13.2611  -40.4671 H         1 UNK         0.0600 
    130 H130       -3.3458  -14.4598  -43.3912 H         1 UNK         0.3000 
    131 H131       -4.0418  -12.0629  -44.8224 H         1 UNK         0.0600 
    132 H132       -4.9084  -14.4490  -45.2858 H         1 UNK         0.0800 
    133 H133       -3.3804  -14.7995  -46.0399 H         1 UNK         0.0800 
    134 H134       -3.5597  -12.9865  -49.3842 H         1 UNK         0.0800 
    135 H135       -2.4637  -13.4640  -48.1150 H         1 UNK         0.0800 
    136 H136       -1.9764  -14.6477  -50.5465 H         1 UNK         0.1150 
    137 H137       -3.3786  -18.6826  -50.5553 H         1 UNK         0.1150 
    138 H138       -4.9689  -15.8936  -47.7310 H         1 UNK         0.1150 
    139 H139       -5.4001  -18.2403  -47.4259 H         1 UNK         0.0800 
    140 H140       -6.1836  -18.3579  -48.9822 H         1 UNK         0.0800 
    141 H141       -3.4116  -19.8557  -46.5744 H         1 UNK         0.0800 
    142 H142       -2.5346  -19.3330  -47.9840 H         1 UNK         0.0800 
    143 H143       -2.5151  -21.8994  -48.6488 H         1 UNK         0.0600 
    144 H144       -0.6215  -20.3300  -47.3021 H         1 UNK         0.3000 
    145 H145        2.0124  -22.7647  -47.2310 H         1 UNK         0.0600 
    146 H146        1.9381  -21.7418  -49.5173 H         1 UNK         0.0600 
    147 H147        1.5547  -20.1776  -48.8113 H         1 UNK         0.0600 
    148 H148        3.1091  -20.9414  -48.4817 H         1 UNK         0.0600 
    149 H149        1.9002  -20.0593  -46.3492 H         1 UNK         0.3000 
    150 H150        0.8506  -20.7986  -42.9596 H         1 UNK         0.0600 
    151 H151        3.3361  -20.9757  -43.1633 H         1 UNK         0.0600 
    152 H152        2.8536  -19.3792  -42.6096 H         1 UNK         0.0600 
    153 H153        3.3514  -19.6186  -44.2825 H         1 UNK         0.0600 
    154 H154        1.2166  -18.2875  -44.1644 H         1 UNK         0.3000 
    155 H155       -2.0212  -17.8234  -45.5858 H         1 UNK         0.0600 
    156 H156       -0.7479  -16.6654  -43.0550 H         1 UNK         0.0600 
    157 H157       -1.8444  -15.7829  -44.1161 H         1 UNK         0.0600 
    158 H158       -2.4032  -17.2114  -43.2566 H         1 UNK         0.0600 
    159 H159        0.2293  -16.0985  -45.4367 H         1 UNK         0.3000 
    160 H160        1.5149  -17.0305  -48.6729 H         1 UNK         0.0600 
    161 H161        0.6429  -14.5470  -47.1060 H         1 UNK         0.0600 
    162 H162       -0.1890  -15.1760  -48.5231 H         1 UNK         0.0600 
    163 H163        1.4590  -14.5855  -48.6653 H         1 UNK         0.0600 
    164 H164        2.8393  -15.5141  -46.6798 H         1 UNK         0.3000 
    165 H165        5.3409  -18.0426  -46.0558 H         1 UNK         0.0600 
    166 H166        6.5841  -16.0247  -46.7350 H         1 UNK         0.0600 
    167 H167        5.6661  -16.6407  -48.1006 H         1 UNK         0.0600 
    168 H168        5.0994  -15.2189  -47.2301 H         1 UNK         0.0600 
    169 H169        4.0954  -15.5839  -44.8815 H         1 UNK         0.3000 
    170 H170        4.3345  -16.8738  -41.6687 H         1 UNK         0.0600 
    171 H171        6.7060  -16.0770  -41.7118 H         1 UNK         0.0600 
    172 H172        6.2203  -14.6443  -42.6103 H         1 UNK         0.0600 
    173 H173        5.6535  -14.8913  -40.9574 H         1 UNK         0.0600 
    174 H174        3.7855  -14.2205  -42.5402 H         1 UNK         0.3000 
    175 H175        0.5791  -14.7171  -43.9071 H         1 UNK         0.0600 
    176 H176        1.2918  -13.5951  -41.1488 H         1 UNK         0.0600 
    177 H177       -0.1362  -13.1827  -42.0945 H         1 UNK         0.0600 
    178 H178        0.0652  -14.8156  -41.4751 H         1 UNK         0.0600 
    179 H179        1.5881  -12.2780  -43.4196 H         1 UNK         0.3000 
    180 H180        3.1229  -11.0174  -44.6615 H         1 UNK         0.0600 
    181 H181        3.8731  -12.2961  -47.3516 H         1 UNK         0.0600 
    182 H182        4.9805  -12.0120  -46.0143 H         1 UNK         0.0600 
    183 H183        4.2426  -10.6495  -46.8427 H         1 UNK         0.0600 
    184 H184        1.6173  -11.4607  -47.1505 H         1 UNK         0.3000 
    185 H185       -0.9042   -9.5699  -46.4618 H         1 UNK         0.0600 
    186 H186        0.2319  -10.6094  -48.4012 H         1 UNK         0.0600 
    187 H187       -0.3072  -12.2146  -47.9048 H         1 UNK         0.0600 
    188 H188       -1.4725  -11.0067  -48.4305 H         1 UNK         0.0600 
    189 H189       -2.6668  -10.6383  -45.6635 H         1 UNK         0.3000 
    190 H190       -1.9077  -21.6533  -45.1270 H         1 UNK         0.3000 
    191 H191       -3.9189  -23.4685  -44.2887 H         1 UNK         0.0600 
    192 H192       -1.2369  -22.7408  -42.9944 H         1 UNK         0.0600 
    193 H193       -2.5623  -23.5724  -42.1884 H         1 UNK         0.0600 
    194 H194       -2.7732  -21.9176  -42.7416 H         1 UNK         0.0600 
    195 H195       -0.4659  -24.0272  -45.1419 H         1 UNK         0.3000 
    196 H196       -0.4262  -26.8195  -44.6387 H         1 UNK         0.0600 
    197 H197        1.6718  -26.7624  -45.9862 H         1 UNK         0.0600 
    198 H198        1.6214  -25.4338  -44.8367 H         1 UNK         0.0600 
    199 H199        1.2893  -25.1376  -46.5414 H         1 UNK         0.0600 
    200 H200       -1.2296  -24.9854  -47.5936 H         1 UNK         0.3000 
    201 H201       -1.6773  -27.3090  -49.2560 H         1 UNK         0.0600 
    202 H202       -0.9368  -25.0681  -50.1158 H         1 UNK         0.0600 
    203 H203       -2.4918  -24.3844  -49.6408 H         1 UNK         0.0600 
    204 H204       -2.4067  -25.6203  -50.8957 H         1 UNK         0.0600 
    205 H205       -3.5137  -26.0923  -46.7314 H         1 UNK         0.3000 
    206 H206       -5.5367  -26.3732  -45.9240 H         1 UNK         0.0600 
    207 H207       -6.8874  -28.3296  -46.5550 H         1 UNK         0.0600 
    208 H208       -5.9705  -28.5474  -48.0376 H         1 UNK         0.0600 
    209 H209       -5.1924  -28.7817  -46.4729 H         1 UNK         0.0600 
    210 H210       -5.2918  -24.1840  -47.3389 H         1 UNK         0.3000 
    211 H211       -6.4103  -22.4439  -48.0423 H         1 UNK         0.0600 
    212 H212       -9.0032  -24.0246  -47.6811 H         1 UNK         0.0600 
    213 H213       -8.8444  -22.2783  -47.7908 H         1 UNK         0.0600 
    214 H214       -8.1655  -23.1294  -46.4136 H         1 UNK         0.0600 
    215 H215       -5.1916  -23.8503  -49.9793 H         1 UNK         0.3000 
    216 H216       -6.8730  -24.2755  -52.2976 H         1 UNK         0.0600 
    217 H217       -3.8272  -24.0585  -52.1092 H         1 UNK         0.0600 
    218 H218       -4.7510  -24.7542  -53.4293 H         1 UNK         0.0600 
    219 H219       -4.7521  -25.5414  -51.8631 H         1 UNK         0.0600 
    220 H220       -5.8136  -21.4147  -50.8790 H         1 UNK         0.3000 
    221 H221       -5.7529  -19.2740  -51.4158 H         1 UNK         0.0600 
    222 H222       -7.3471  -19.9834  -53.9395 H         1 UNK         0.0600 
    223 H223       -8.0338  -19.6819  -52.3489 H         1 UNK         0.0600 
    224 H224       -7.2066  -18.3909  -53.1957 H         1 UNK         0.0600 
    225 H225       -5.6666  -18.6906  -54.6100 H         1 UNK         0.3000 
    226 H226       -3.0279  -17.8394  -54.6852 H         1 UNK         0.0600 
    227 H227       -4.8036  -16.9837  -56.1751 H         1 UNK         0.0600 
    228 H228       -3.4434  -17.5419  -57.1348 H         1 UNK         0.0600 
    229 H229       -4.8924  -18.5331  -57.0144 H         1 UNK         0.0600 
    230 H230       -4.2334  -21.0478  -55.4917 H         1 UNK         0.3000 
    231 H231       -1.9283  -22.0027  -56.9133 H         1 UNK         0.0600 
    232 H232       -2.9889  -24.2290  -56.5365 H         1 UNK         0.0600 
    233 H233       -4.1648  -23.0601  -57.1170 H         1 UNK         0.0600 
    234 H234       -4.1335  -23.5089  -55.4127 H         1 UNK         0.0600 
    235 H235       -2.4981  -21.4429  -53.4981 H         1 UNK         0.3000 
    236 H236       -0.4884  -23.3252  -52.5331 H         1 UNK         0.0600 
    237 H237       -2.4848  -22.4896  -51.1575 H         1 UNK         0.0600 
    238 H238       -0.9141  -22.3321  -50.3873 H         1 UNK         0.0600 
    239 H239       -1.6991  -20.9196  -51.0701 H         1 UNK         0.0600 
    240 H240       -0.7228  -19.8090  -53.1910 H         1 UNK         0.3000 
    241 H241        2.0360  -19.2938  -52.4183 H         1 UNK         0.0600 
    242 H242        0.3451  -19.7264  -55.6129 H         1 UNK         0.3800 
    243 H243        1.8419  -19.6982  -56.5136 H         1 UNK         0.3800 
    244 H244        1.6077  -16.9610  -53.0786 H         1 UNK         0.0800 
    245 H245        0.0750  -17.3998  -53.7815 H         1 UNK         0.0800 
    246 H246       -2.0919  -17.8430  -52.4283 H         1 UNK         0.0800 
    247 H247       -1.6815  -16.1495  -52.5394 H         1 UNK         0.0800 
@<TRIPOS>BOND
     1    1    2 1    
     2    1  127 1    
     3    1  128 1    
     4    1  129 1    
     5    2    3 2    
     6    2    4 am   BACKBONE|DICT|INTERRES
     7    4    5 1    
     8    4  130 1    
     9    5    6 1    
    10    5   65 1    
    11    5  131 1    
    12    6    7 1    
    13    6  132 1    
    14    6  133 1    
    15    7    8 1    
    16    8    9 1    
    17    8  134 1    
    18    8  135 1    
    19    9   10 ar   
    20    9   14 ar   
    21   10   11 ar   
    22   10  136 1    
    23   11   12 ar   
    24   11  126 1    
    25   12   13 ar   
    26   12  137 1    
    27   13   14 ar   
    28   13   15 1    
    29   14  138 1    
    30   15   16 1    
    31   15  139 1    
    32   15  140 1    
    33   16   17 1    
    34   17   18 1    
    35   17  141 1    
    36   17  142 1    
    37   18   19 1    
    38   18   67 1    
    39   18  143 1    
    40   19   20 am   BACKBONE|DICT|INTERRES
    41   19  144 1    
    42   20   21 2    
    43   20   22 1    
    44   22   23 1    
    45   22   24 1    
    46   22  145 1    
    47   23  146 1    
    48   23  147 1    
    49   23  148 1    
    50   24   25 am   BACKBONE|DICT|INTERRES
    51   24  149 1    
    52   25   26 2    
    53   25   27 1    
    54   27   28 1    
    55   27   29 1    
    56   27  150 1    
    57   28  151 1    
    58   28  152 1    
    59   28  153 1    
    60   29   30 am   BACKBONE|DICT|INTERRES
    61   29  154 1    
    62   30   31 2    
    63   30   32 1    
    64   32   33 1    
    65   32   34 1    
    66   32  155 1    
    67   33  156 1    
    68   33  157 1    
    69   33  158 1    
    70   34   35 am   BACKBONE|DICT|INTERRES
    71   34  159 1    
    72   35   36 2    
    73   35   37 1    
    74   37   38 1    
    75   37   39 1    
    76   37  160 1    
    77   38  161 1    
    78   38  162 1    
    79   38  163 1    
    80   39   40 am   BACKBONE|DICT|INTERRES
    81   39  164 1    
    82   40   41 2    
    83   40   42 1    
    84   42   43 1    
    85   42   44 1    
    86   42  165 1    
    87   43  166 1    
    88   43  167 1    
    89   43  168 1    
    90   44   45 am   BACKBONE|DICT|INTERRES
    91   44  169 1    
    92   45   46 2    
    93   45   47 1    
    94   47   48 1    
    95   47   49 1    
    96   47  170 1    
    97   48  171 1    
    98   48  172 1    
    99   48  173 1    
   100   49   50 am   BACKBONE|DICT|INTERRES
   101   49  174 1    
   102   50   51 2    
   103   50   52 1    
   104   52   53 1    
   105   52   54 1    
   106   52  175 1    
   107   53  176 1    
   108   53  177 1    
   109   53  178 1    
   110   54   55 am   BACKBONE|DICT|INTERRES
   111   54  179 1    
   112   55   56 2    
   113   55   57 1    
   114   57   58 1    
   115   57   59 1    
   116   57  180 1    
   117   58  181 1    
   118   58  182 1    
   119   58  183 1    
   120   59   60 am   BACKBONE|DICT|INTERRES
   121   59  184 1    
   122   60   61 2    
   123   60   62 1    
   124   62   63 1    
   125   62   64 1    
   126   62  185 1    
   127   63  186 1    
   128   63  187 1    
   129   63  188 1    
   130   64   65 am   BACKBONE|DICT|INTERRES
   131   64  189 1    
   132   65   66 2    
   133   67   68 2    
   134   67   69 am   BACKBONE|DICT|INTERRES
   135   69   70 1    
   136   69  190 1    
   137   70   71 1    
   138   70   72 1    
   139   70  191 1    
   140   71  192 1    
   141   71  193 1    
   142   71  194 1    
   143   72   73 2    
   144   72   74 am   BACKBONE|DICT|INTERRES
   145   74   75 1    
   146   74  195 1    
   147   75   76 1    
   148   75   77 1    
   149   75  196 1    
   150   76  197 1    
   151   76  198 1    
   152   76  199 1    
   153   77   78 2    
   154   77   79 am   BACKBONE|DICT|INTERRES
   155   79   80 1    
   156   79  200 1    
   157   80   81 1    
   158   80   82 1    
   159   80  201 1    
   160   81  202 1    
   161   81  203 1    
   162   81  204 1    
   163   82   83 2    
   164   82   84 am   BACKBONE|DICT|INTERRES
   165   84   85 1    
   166   84  205 1    
   167   85   86 1    
   168   85   87 1    
   169   85  206 1    
   170   86  207 1    
   171   86  208 1    
   172   86  209 1    
   173   87   88 2    
   174   87   89 am   BACKBONE|DICT|INTERRES
   175   89   90 1    
   176   89  210 1    
   177   90   91 1    
   178   90   92 1    
   179   90  211 1    
   180   91  212 1    
   181   91  213 1    
   182   91  214 1    
   183   92   93 2    
   184   92   94 am   BACKBONE|DICT|INTERRES
   185   94   95 1    
   186   94  215 1    
   187   95   96 1    
   188   95   97 1    
   189   95  216 1    
   190   96  217 1    
   191   96  218 1    
   192   96  219 1    
   193   97   98 2    
   194   97   99 am   BACKBONE|DICT|INTERRES
   195   99  100 1    
   196   99  220 1    
   197  100  101 1    
   198  100  102 1    
   199  100  221 1    
   200  101  222 1    
   201  101  223 1    
   202  101  224 1    
   203  102  103 2    
   204  102  104 am   BACKBONE|DICT|INTERRES
   205  104  105 1    
   206  104  225 1    
   207  105  106 1    
   208  105  107 1    
   209  105  226 1    
   210  106  227 1    
   211  106  228 1    
   212  106  229 1    
   213  107  108 2    
   214  107  109 am   BACKBONE|DICT|INTERRES
   215  109  110 1    
   216  109  230 1    
   217  110  111 1    
   218  110  112 1    
   219  110  231 1    
   220  111  232 1    
   221  111  233 1    
   222  111  234 1    
   223  112  113 2    
   224  112  114 am   BACKBONE|DICT|INTERRES
   225  114  115 1    
   226  114  235 1    
   227  115  116 1    
   228  115  117 1    
   229  115  236 1    
   230  116  237 1    
   231  116  238 1    
   232  116  239 1    
   233  117  118 2    
   234  117  119 am   BACKBONE|DICT|INTERRES
   235  119  120 1    
   236  119  240 1    
   237  120  121 1    
   238  120  124 1    
   239  120  241 1    
   240  121  122 am   BACKBONE|DICT|INTERRES
   241  121  123 2    
   242  122  242 1    
   243  122  243 1    
   244  124  125 1    
   245  124  244 1    
   246  124  245 1    
   247  125  126 1    
   248  126  246 1    
   249  126  247 1    
@<TRIPOS>SUBSTRUCTURE
     1 UNK         1 GROUP             0       ****    0 ROOT    
