@<TRIPOS>MOLECULE
3R540
247   249    1
SMALL
USER_CHARGES


@<TRIPOS>ATOM
      1 CA          4.2472  -10.2590  -51.1427 C.3       0 UNK        -0.1800 
      2 C           3.8758  -11.0800  -49.9164 C.2       0 UNK         0.5000 
      3 O           3.4812  -10.5130  -48.8974 O.2       0 UNK        -0.5000 
      4 N           3.9878  -12.4130  -50.0143 N.am      1 UNK        -0.5000 
      5 CA          3.6889  -13.3723  -48.9407 C.3       1 UNK         0.1400 
      6 C6          4.0957  -14.8143  -49.3370 C.3       23 UNK        -0.0398 
      7 S7          4.4045  -15.9228  -47.9137 S.3       23 UNK        -0.2404 
      8 C8          2.7936  -16.7282  -47.6057 C.3       23 UNK        -0.0205 
      9 C9          2.2895  -17.5343  -48.7897 C.ar      23 UNK        -0.0193 
     10 C10         1.3913  -16.9720  -49.7001 C.ar      23 UNK        -0.1150 
     11 C11         0.9427  -17.7034  -50.8031 C.ar      23 UNK        -0.0193 
     12 C12         1.3810  -19.0224  -50.9734 C.ar      23 UNK        -0.1150 
     13 C13         2.2622  -19.6032  -50.0540 C.ar      23 UNK        -0.0193 
     14 C14         2.7143  -18.8512  -48.9672 C.ar      23 UNK        -0.1150 
     15 C15         2.7615  -21.0300  -50.2415 C.3       23 UNK        -0.0205 
     16 S16         1.5208  -22.2824  -49.7859 S.3       23 UNK        -0.2404 
     17 C17         1.0616  -21.7882  -48.0896 C.3       23 UNK        -0.0398 
     18 CA          0.5838  -22.9499  -47.1850 C.3       11 UNK         0.1400 
     19 N           0.3767  -22.4869  -45.8104 N.am      11 UNK        -0.5000 
     20 C           0.1671  -23.2793  -44.7508 C.2       10 UNK         0.5000 
     21 O           0.2181  -24.5071  -44.7970 O.2       10 UNK        -0.5000 
     22 CA         -0.2138  -22.5861  -43.4283 C.3       10 UNK         0.1400 
     23 CB          1.0389  -22.1445  -42.6579 C.3       10 UNK        -0.1800 
     24 N          -1.1103  -21.4439  -43.6281 N.am      10 UNK        -0.5000 
     25 C          -2.3586  -21.5461  -44.1080 C.2       9 UNK         0.5000 
     26 O          -2.8967  -22.6209  -44.3678 O.2       9 UNK        -0.5000 
     27 CA         -3.1238  -20.2396  -44.3878 C.3       9 UNK         0.1400 
     28 CB         -3.7954  -19.7192  -43.1090 C.3       9 UNK        -0.1800 
     29 N          -2.2792  -19.1953  -44.9695 N.am      9 UNK        -0.5000 
     30 C          -1.6803  -19.2805  -46.1668 C.2       8 UNK         0.5000 
     31 O          -1.8224  -20.2398  -46.9246 O.2       8 UNK        -0.5000 
     32 CA         -0.6910  -18.1543  -46.5344 C.3       8 UNK         0.1400 
     33 CB         -1.4089  -16.8947  -47.0391 C.3       8 UNK        -0.1800 
     34 N           0.1671  -17.7938  -45.4060 N.am      8 UNK        -0.5000 
     35 C           1.0580  -18.6182  -44.8393 C.2       7 UNK         0.5000 
     36 O           1.3084  -19.7467  -45.2622 O.2       7 UNK        -0.5000 
     37 CA          1.7455  -18.1142  -43.5591 C.3       7 UNK         0.1400 
     38 CB          2.9766  -17.2559  -43.8860 C.3       7 UNK        -0.1800 
     39 N           0.8222  -17.3517  -42.7184 N.am      7 UNK        -0.5000 
     40 C          -0.1510  -17.9046  -41.9812 C.2       6 UNK         0.5000 
     41 O          -0.3461  -19.1177  -41.9142 O.2       6 UNK        -0.5000 
     42 CA         -1.0810  -16.9432  -41.2165 C.3       6 UNK         0.1400 
     43 CB         -0.4595  -16.5496  -39.8683 C.3       6 UNK        -0.1800 
     44 N          -1.3988  -15.7321  -41.9747 N.am      6 UNK        -0.5000 
     45 C          -2.1269  -15.7136  -43.0999 C.2       5 UNK         0.5000 
     46 O          -2.6395  -16.7153  -43.5946 O.2       5 UNK        -0.5000 
     47 CA         -2.2675  -14.3609  -43.8235 C.3       5 UNK         0.1400 
     48 CB         -3.4956  -13.5980  -43.3063 C.3       5 UNK        -0.1800 
     49 N          -1.0871  -13.4980  -43.7259 N.am      5 UNK        -0.5000 
     50 C           0.1533  -13.8354  -44.1020 C.2       4 UNK         0.5000 
     51 O           0.4603  -14.9530  -44.5222 O.2       4 UNK        -0.5000 
     52 CA          1.2030  -12.7174  -44.0158 C.3       4 UNK         0.1400 
     53 CB          2.6431  -13.2609  -43.9836 C.3       4 UNK        -0.1800 
     54 N           1.0384  -11.8489  -45.1760 N.am      4 UNK        -0.5000 
     55 C           0.2628  -10.7571  -45.2227 C.2       3 UNK         0.5000 
     56 O          -0.3339  -10.3084  -44.2428 O.2       3 UNK        -0.5000 
     57 CA          0.1050  -10.0553  -46.5885 C.3       3 UNK         0.1400 
     58 CB          1.1090   -8.9001  -46.7178 C.3       3 UNK        -0.1800 
     59 N           0.2741  -10.9616  -47.7253 N.am      3 UNK        -0.5000 
     60 C          -0.5864  -11.9344  -48.0617 C.2       2 UNK         0.5000 
     61 O          -1.6781  -12.0933  -47.5149 O.2       2 UNK        -0.5000 
     62 CA         -0.1529  -12.9123  -49.1771 C.3       2 UNK         0.1400 
     63 CB         -0.8370  -12.5507  -50.5037 C.3       2 UNK        -0.1800 
     64 N           1.2948  -12.9952  -49.4052 N.am      2 UNK        -0.5000 
     65 C           2.2160  -13.3154  -48.4840 C.2       1 UNK         0.5000 
     66 O           1.9451  -13.5184  -47.3039 O.2       1 UNK        -0.5000 
     67 C          -0.6714  -23.6767  -47.7257 C.2       11 UNK         0.5000 
     68 O          -0.5481  -24.7703  -48.2794 O.2       11 UNK        -0.5000 
     69 N          -1.8626  -23.1057  -47.4903 N.am      12 UNK        -0.5000 
     70 CA         -3.1480  -23.7133  -47.8452 C.3       12 UNK         0.1400 
     71 CB         -4.2867  -22.7109  -47.6083 C.3       12 UNK        -0.1800 
     72 C          -3.4057  -25.0410  -47.1066 C.2       12 UNK         0.5000 
     73 O          -3.8405  -26.0102  -47.7301 O.2       12 UNK        -0.5000 
     74 N          -3.0767  -25.0797  -45.8073 N.am      13 UNK        -0.5000 
     75 CA         -3.1370  -26.2685  -44.9519 C.3       13 UNK         0.1400 
     76 CB         -2.9111  -25.8558  -43.4900 C.3       13 UNK        -0.1800 
     77 C          -2.1466  -27.3777  -45.3622 C.2       13 UNK         0.5000 
     78 O          -2.4144  -28.5506  -45.1014 O.2       13 UNK        -0.5000 
     79 N          -1.0516  -27.0028  -46.0383 N.am      14 UNK        -0.5000 
     80 CA         -0.0710  -27.9047  -46.6500 C.3       14 UNK         0.1400 
     81 CB          1.2972  -27.2028  -46.7071 C.3       14 UNK        -0.1800 
     82 C          -0.5112  -28.4297  -48.0373 C.2       14 UNK         0.5000 
     83 O           0.3136  -28.9887  -48.7609 O.2       14 UNK        -0.5000 
     84 N          -1.7976  -28.2555  -48.3743 N.am      15 UNK        -0.5000 
     85 CA         -2.5190  -28.7384  -49.5553 C.3       15 UNK         0.1400 
     86 CB         -2.3260  -30.2525  -49.7824 C.3       15 UNK        -0.1800 
     87 C          -2.2909  -27.9124  -50.8336 C.2       15 UNK         0.5000 
     88 O          -2.8549  -28.2577  -51.8736 O.2       15 UNK        -0.5000 
     89 N          -1.5539  -26.7966  -50.7470 N.am      16 UNK        -0.5000 
     90 CA         -1.4542  -25.7929  -51.8086 C.3       16 UNK         0.1400 
     91 CB         -0.0775  -25.1133  -51.7411 C.3       16 UNK        -0.1800 
     92 C          -2.6267  -24.8026  -51.6735 C.2       16 UNK         0.5000 
     93 O          -2.4198  -23.6197  -51.4031 O.2       16 UNK        -0.5000 
     94 N          -3.8509  -25.3319  -51.8161 N.am      17 UNK        -0.5000 
     95 CA         -5.1339  -24.7048  -51.4774 C.3       17 UNK         0.1400 
     96 CB         -6.2665  -25.6876  -51.8078 C.3       17 UNK        -0.1800 
     97 C          -5.4060  -23.3337  -52.1236 C.2       17 UNK         0.5000 
     98 O          -6.1586  -22.5426  -51.5557 O.2       17 UNK        -0.5000 
     99 N          -4.7584  -23.0493  -53.2624 N.am      18 UNK        -0.5000 
    100 CA        -4.7601  -21.7453  -53.9309 C.3       18 UNK         0.1400 
    101 CB        -3.9364  -21.8411  -55.2230 C.3       18 UNK        -0.1800 
    102 C         -4.2354  -20.5967  -53.0452 C.2       18 UNK         0.5000 
    103 O         -4.6734  -19.4577  -53.2119 O.2       18 UNK        -0.5000 
    104 N         -3.3598  -20.9136  -52.0792 N.am      19 UNK        -0.5000 
    105 CA        -2.8239  -19.9820  -51.0851 C.3       19 UNK         0.1400 
    106 CB        -1.6677  -20.6530  -50.3393 C.3       19 UNK        -0.1800 
    107 C         -3.8702  -19.4358  -50.0914 C.2       19 UNK         0.5000 
    108 O         -3.5741  -18.4847  -49.3721 O.2       19 UNK        -0.5000 
    109 N         -5.0904  -19.9949  -50.0849 N.am      20 UNK        -0.5000 
    110 CA        -6.2378  -19.4243  -49.3762 C.3       20 UNK         0.1400 
    111 CB        -7.3914  -20.4376  -49.3789 C.3       20 UNK        -0.1800 
    112 C         -6.6975  -18.0745  -49.9713 C.2       20 UNK         0.5000 
    113 O         -7.3250  -17.2897  -49.2590 O.2       20 UNK        -0.5000 
    114 N         -6.3731  -17.8281  -51.2493 N.am      21 UNK        -0.5000 
    115 CA        -6.6316  -16.5761  -51.9583 C.3       21 UNK         0.1400 
    116 CB        -7.5586  -16.8621  -53.1506 C.3       21 UNK        -0.1800 
    117 C         -5.3309  -15.9083  -52.4407 C.2       21 UNK         0.5000 
    118 O         -5.2589  -14.6791  -52.4402 O.2       21 UNK        -0.5000 
    119 N         -4.3446  -16.7143  -52.8634 N.am      22 UNK        -0.5000 
    120 CA        -3.0821  -16.2951  -53.5039 C.3       22 UNK         0.1400 
    121 C         -3.2637  -15.6514  -54.9158 C.2       22 UNK         0.5000 
    122 N         -4.3912  -15.8421  -55.5907 N.am      22 UNK        -0.7600 
    123 O         -2.3606  -14.9977  -55.4310 O.2       22 UNK        -0.5000 
    124 C124       -2.1490  -15.4618  -52.5763 C.3       23 UNK        -0.0398 
    125 S125       -1.5138  -16.4078  -51.1504 S.3       23 UNK        -0.2404 
    126 C126        0.0503  -17.0387  -51.8441 C.3       23 UNK        -0.0205 
    127 H127        4.5626  -10.8901  -51.9739 H         1 UNK         0.0600 
    128 H128        5.0637   -9.5775  -50.9039 H         1 UNK         0.0600 
    129 H129        3.3924   -9.6670  -51.4702 H         1 UNK         0.0600 
    130 H130        4.3170  -12.8119  -50.8821 H         1 UNK         0.3000 
    131 H131        4.2984  -13.0720  -48.0854 H         1 UNK         0.0600 
    132 H132        3.3884  -15.2549  -50.0380 H         1 UNK         0.0800 
    133 H133        5.0404  -14.7792  -49.8812 H         1 UNK         0.0800 
    134 H134        2.0434  -16.0048  -47.2912 H         1 UNK         0.0800 
    135 H135        2.9192  -17.3997  -46.7580 H         1 UNK         0.0800 
    136 H136        1.0562  -15.9537  -49.5650 H         1 UNK         0.1150 
    137 H137        1.0479  -19.5969  -51.8262 H         1 UNK         0.1150 
    138 H138        3.4047  -19.2877  -48.2591 H         1 UNK         0.1150 
    139 H139        3.0440  -21.1789  -51.2845 H         1 UNK         0.0800 
    140 H140        3.6665  -21.2000  -49.6562 H         1 UNK         0.0800 
    141 H141        0.3040  -21.0091  -48.1543 H         1 UNK         0.0800 
    142 H142        1.9308  -21.3195  -47.6267 H         1 UNK         0.0800 
    143 H143        1.3879  -23.6881  -47.1515 H         1 UNK         0.0600 
    144 H144        0.3760  -21.4821  -45.6663 H         1 UNK         0.3000 
    145 H145       -0.7426  -23.3165  -42.8130 H         1 UNK         0.0600 
    146 H146        0.7758  -21.6986  -41.6986 H         1 UNK         0.0600 
    147 H147        1.6888  -22.9961  -42.4532 H         1 UNK         0.0600 
    148 H148        1.6237  -21.4156  -43.2177 H         1 UNK         0.0600 
    149 H149       -0.7552  -20.5303  -43.3689 H         1 UNK         0.3000 
    150 H150       -3.9093  -20.4670  -45.1112 H         1 UNK         0.0600 
    151 H151       -4.4388  -20.4813  -42.6676 H         1 UNK         0.0600 
    152 H152       -4.4185  -18.8496  -43.3176 H         1 UNK         0.0600 
    153 H153       -3.0613  -19.4324  -42.3560 H         1 UNK         0.0600 
    154 H154       -2.1678  -18.3464  -44.4215 H         1 UNK         0.3000 
    155 H155       -0.0507  -18.5231  -47.3381 H         1 UNK         0.0600 
    156 H156       -2.1418  -16.5299  -46.3202 H         1 UNK         0.0600 
    157 H157       -1.9340  -17.0961  -47.9714 H         1 UNK         0.0600 
    158 H158       -0.7019  -16.0887  -47.2381 H         1 UNK         0.0600 
    159 H159        0.0610  -16.8596  -45.0229 H         1 UNK         0.3000 
    160 H160        2.0861  -18.9856  -42.9961 H         1 UNK         0.0600 
    161 H161        2.7157  -16.3771  -44.4758 H         1 UNK         0.0600 
    162 H162        3.7087  -17.8288  -44.4564 H         1 UNK         0.0600 
    163 H163        3.4710  -16.9132  -42.9771 H         1 UNK         0.0600 
    164 H164        0.8648  -16.3450  -42.7991 H         1 UNK         0.3000 
    165 H165       -2.0150  -17.4732  -41.0186 H         1 UNK         0.0600 
    166 H166       -1.1434  -15.9343  -39.2835 H         1 UNK         0.0600 
    167 H167       -0.2291  -17.4337  -39.2723 H         1 UNK         0.0600 
    168 H168        0.4681  -15.9907  -39.9988 H         1 UNK         0.0600 
    169 H169       -1.0115  -14.8633  -41.6374 H         1 UNK         0.3000 
    170 H170       -2.4223  -14.5732  -44.8830 H         1 UNK         0.0600 
    171 H171       -4.3970  -14.2070  -43.3882 H         1 UNK         0.0600 
    172 H172       -3.3829  -13.3164  -42.2586 H         1 UNK         0.0600 
    173 H173       -3.6663  -12.6886  -43.8829 H         1 UNK         0.0600 
    174 H174       -1.2506  -12.5461  -43.4274 H         1 UNK         0.3000 
    175 H175        1.0384  -12.1570  -43.0932 H         1 UNK         0.0600 
    176 H176        2.8842  -13.8402  -44.8752 H         1 UNK         0.0600 
    177 H177        3.3670  -12.4495  -43.9093 H         1 UNK         0.0600 
    178 H178        2.7932  -13.9122  -43.1219 H         1 UNK         0.0600 
    179 H179        1.4162  -12.2223  -46.0433 H         1 UNK         0.3000 
    180 H180       -0.9032   -9.6381  -46.6315 H         1 UNK         0.0600 
    181 H181        0.9685   -8.3571  -47.6525 H         1 UNK         0.0600 
    182 H182        2.1389   -9.2586  -46.6900 H         1 UNK         0.0600 
    183 H183        0.9880   -8.1839  -45.9040 H         1 UNK         0.0600 
    184 H184        1.1565  -10.9080  -48.2171 H         1 UNK         0.3000 
    185 H185       -0.4899  -13.9075  -48.8793 H         1 UNK         0.0600 
    186 H186       -0.5859  -13.2676  -51.2850 H         1 UNK         0.0600 
    187 H187       -1.9226  -12.5542  -50.3976 H         1 UNK         0.0600 
    188 H188       -0.5423  -11.5593  -50.8500 H         1 UNK         0.0600 
    189 H189        1.6111  -12.8040  -50.3445 H         1 UNK         0.3000 
    190 H190       -1.8894  -22.1821  -47.0670 H         1 UNK         0.3000 
    191 H191       -3.1179  -23.9343  -48.9112 H         1 UNK         0.0600 
    192 H192       -5.2331  -23.1023  -47.9831 H         1 UNK         0.0600 
    193 H193       -4.0959  -21.7703  -48.1231 H         1 UNK         0.0600 
    194 H194       -4.4196  -22.4888  -46.5501 H         1 UNK         0.0600 
    195 H195       -2.7867  -24.2144  -45.3573 H         1 UNK         0.3000 
    196 H196       -4.1435  -26.6834  -45.0352 H         1 UNK         0.0600 
    197 H197       -1.9190  -25.4296  -43.3424 H         1 UNK         0.0600 
    198 H198       -3.6450  -25.1159  -43.1702 H         1 UNK         0.0600 
    199 H199       -3.0020  -26.7138  -42.8229 H         1 UNK         0.0600 
    200 H200       -0.8958  -26.0132  -46.1865 H         1 UNK         0.3000 
    201 H201        0.0392  -28.7801  -46.0070 H         1 UNK         0.0600 
    202 H202        1.2927  -26.3573  -47.3937 H         1 UNK         0.0600 
    203 H203        2.0761  -27.8889  -47.0414 H         1 UNK         0.0600 
    204 H204        1.5929  -26.8344  -45.7247 H         1 UNK         0.0600 
    205 H205       -2.3679  -27.7147  -47.7361 H         1 UNK         0.3000 
    206 H206       -3.5720  -28.5910  -49.3110 H         1 UNK         0.0600 
    207 H207       -2.5027  -30.8163  -48.8665 H         1 UNK         0.0600 
    208 H208       -3.0260  -30.6256  -50.5309 H         1 UNK         0.0600 
    209 H209       -1.3224  -30.4880  -50.1369 H         1 UNK         0.0600 
    210 H210       -1.1687  -26.5363  -49.8477 H         1 UNK         0.3000 
    211 H211       -1.5344  -26.2700  -52.7874 H         1 UNK         0.0600 
    212 H212        0.0272  -24.3605  -52.5233 H         1 UNK         0.0600 
    213 H213        0.7268  -25.8369  -51.8731 H         1 UNK         0.0600 
    214 H214        0.0765  -24.6150  -50.7862 H         1 UNK         0.0600 
    215 H215       -3.8931  -26.3175  -52.0452 H         1 UNK         0.3000 
    216 H216       -5.1308  -24.5461  -50.3973 H         1 UNK         0.0600 
    217 H217       -6.2923  -25.9264  -52.8717 H         1 UNK         0.0600 
    218 H218       -7.2387  -25.2709  -51.5403 H         1 UNK         0.0600 
    219 H219       -6.1528  -26.6210  -51.2559 H         1 UNK         0.0600 
    220 H220       -4.1492  -23.7556  -53.6475 H         1 UNK         0.3000 
    221 H221       -5.7926  -21.5086  -54.1954 H         1 UNK         0.0600 
    222 H222       -4.3470  -22.5917  -55.8987 H         1 UNK         0.0600 
    223 H223       -2.8975  -22.1037  -55.0186 H         1 UNK         0.0600 
    224 H224       -3.9360  -20.8900  -55.7574 H         1 UNK         0.0600 
    225 H225       -3.0673  -21.8825  -51.9779 H         1 UNK         0.3000 
    226 H226       -2.4202  -19.1281  -51.6298 H         1 UNK         0.0600 
    227 H227       -2.0135  -21.4915  -49.7363 H         1 UNK         0.0600 
    228 H228       -0.9150  -21.0264  -51.0327 H         1 UNK         0.0600 
    229 H229       -1.1770  -19.9444  -49.6714 H         1 UNK         0.0600 
    230 H230       -5.2767  -20.7917  -50.6829 H         1 UNK         0.3000 
    231 H231       -5.9423  -19.2474  -48.3399 H         1 UNK         0.0600 
    232 H232       -7.7491  -20.6356  -50.3901 H         1 UNK         0.0600 
    233 H233       -8.2373  -20.0673  -48.7986 H         1 UNK         0.0600 
    234 H234       -7.0852  -21.3870  -48.9391 H         1 UNK         0.0600 
    235 H235       -5.8505  -18.5323  -51.7559 H         1 UNK         0.3000 
    236 H236       -7.1343  -15.8612  -51.3036 H         1 UNK         0.0600 
    237 H237       -8.5173  -17.2577  -52.8148 H         1 UNK         0.0600 
    238 H238       -7.7628  -15.9519  -53.7160 H         1 UNK         0.0600 
    239 H239       -7.1206  -17.5876  -53.8374 H         1 UNK         0.0600 
    240 H240       -4.5100  -17.7174  -52.8898 H         1 UNK         0.3000 
    241 H241       -2.5581  -17.2270  -53.7185 H         1 UNK         0.0600 
    242 H242       -4.4951  -15.4330  -56.5062 H         1 UNK         0.3800 
    243 H243       -5.1363  -16.3960  -55.2014 H         1 UNK         0.3800 
    244 H244       -2.6673  -14.5794  -52.2016 H         1 UNK         0.0800 
    245 H245       -1.2891  -15.0774  -53.1261 H         1 UNK         0.0800 
    246 H246        0.6082  -16.2141  -52.2897 H         1 UNK         0.0800 
    247 H247       -0.1791  -17.7327  -52.6540 H         1 UNK         0.0800 
@<TRIPOS>BOND
     1    1    2 1    
     2    1  127 1    
     3    1  128 1    
     4    1  129 1    
     5    2    3 2    
     6    2    4 am   BACKBONE|DICT|INTERRES
     7    4    5 1    
     8    4  130 1    
     9    5    6 1    
    10    5   65 1    
    11    5  131 1    
    12    6    7 1    
    13    6  132 1    
    14    6  133 1    
    15    7    8 1    
    16    8    9 1    
    17    8  134 1    
    18    8  135 1    
    19    9   10 ar   
    20    9   14 ar   
    21   10   11 ar   
    22   10  136 1    
    23   11   12 ar   
    24   11  126 1    
    25   12   13 ar   
    26   12  137 1    
    27   13   14 ar   
    28   13   15 1    
    29   14  138 1    
    30   15   16 1    
    31   15  139 1    
    32   15  140 1    
    33   16   17 1    
    34   17   18 1    
    35   17  141 1    
    36   17  142 1    
    37   18   19 1    
    38   18   67 1    
    39   18  143 1    
    40   19   20 am   BACKBONE|DICT|INTERRES
    41   19  144 1    
    42   20   21 2    
    43   20   22 1    
    44   22   23 1    
    45   22   24 1    
    46   22  145 1    
    47   23  146 1    
    48   23  147 1    
    49   23  148 1    
    50   24   25 am   BACKBONE|DICT|INTERRES
    51   24  149 1    
    52   25   26 2    
    53   25   27 1    
    54   27   28 1    
    55   27   29 1    
    56   27  150 1    
    57   28  151 1    
    58   28  152 1    
    59   28  153 1    
    60   29   30 am   BACKBONE|DICT|INTERRES
    61   29  154 1    
    62   30   31 2    
    63   30   32 1    
    64   32   33 1    
    65   32   34 1    
    66   32  155 1    
    67   33  156 1    
    68   33  157 1    
    69   33  158 1    
    70   34   35 am   BACKBONE|DICT|INTERRES
    71   34  159 1    
    72   35   36 2    
    73   35   37 1    
    74   37   38 1    
    75   37   39 1    
    76   37  160 1    
    77   38  161 1    
    78   38  162 1    
    79   38  163 1    
    80   39   40 am   BACKBONE|DICT|INTERRES
    81   39  164 1    
    82   40   41 2    
    83   40   42 1    
    84   42   43 1    
    85   42   44 1    
    86   42  165 1    
    87   43  166 1    
    88   43  167 1    
    89   43  168 1    
    90   44   45 am   BACKBONE|DICT|INTERRES
    91   44  169 1    
    92   45   46 2    
    93   45   47 1    
    94   47   48 1    
    95   47   49 1    
    96   47  170 1    
    97   48  171 1    
    98   48  172 1    
    99   48  173 1    
   100   49   50 am   BACKBONE|DICT|INTERRES
   101   49  174 1    
   102   50   51 2    
   103   50   52 1    
   104   52   53 1    
   105   52   54 1    
   106   52  175 1    
   107   53  176 1    
   108   53  177 1    
   109   53  178 1    
   110   54   55 am   BACKBONE|DICT|INTERRES
   111   54  179 1    
   112   55   56 2    
   113   55   57 1    
   114   57   58 1    
   115   57   59 1    
   116   57  180 1    
   117   58  181 1    
   118   58  182 1    
   119   58  183 1    
   120   59   60 am   BACKBONE|DICT|INTERRES
   121   59  184 1    
   122   60   61 2    
   123   60   62 1    
   124   62   63 1    
   125   62   64 1    
   126   62  185 1    
   127   63  186 1    
   128   63  187 1    
   129   63  188 1    
   130   64   65 am   BACKBONE|DICT|INTERRES
   131   64  189 1    
   132   65   66 2    
   133   67   68 2    
   134   67   69 am   BACKBONE|DICT|INTERRES
   135   69   70 1    
   136   69  190 1    
   137   70   71 1    
   138   70   72 1    
   139   70  191 1    
   140   71  192 1    
   141   71  193 1    
   142   71  194 1    
   143   72   73 2    
   144   72   74 am   BACKBONE|DICT|INTERRES
   145   74   75 1    
   146   74  195 1    
   147   75   76 1    
   148   75   77 1    
   149   75  196 1    
   150   76  197 1    
   151   76  198 1    
   152   76  199 1    
   153   77   78 2    
   154   77   79 am   BACKBONE|DICT|INTERRES
   155   79   80 1    
   156   79  200 1    
   157   80   81 1    
   158   80   82 1    
   159   80  201 1    
   160   81  202 1    
   161   81  203 1    
   162   81  204 1    
   163   82   83 2    
   164   82   84 am   BACKBONE|DICT|INTERRES
   165   84   85 1    
   166   84  205 1    
   167   85   86 1    
   168   85   87 1    
   169   85  206 1    
   170   86  207 1    
   171   86  208 1    
   172   86  209 1    
   173   87   88 2    
   174   87   89 am   BACKBONE|DICT|INTERRES
   175   89   90 1    
   176   89  210 1    
   177   90   91 1    
   178   90   92 1    
   179   90  211 1    
   180   91  212 1    
   181   91  213 1    
   182   91  214 1    
   183   92   93 2    
   184   92   94 am   BACKBONE|DICT|INTERRES
   185   94   95 1    
   186   94  215 1    
   187   95   96 1    
   188   95   97 1    
   189   95  216 1    
   190   96  217 1    
   191   96  218 1    
   192   96  219 1    
   193   97   98 2    
   194   97   99 am   BACKBONE|DICT|INTERRES
   195   99  100 1    
   196   99  220 1    
   197  100  101 1    
   198  100  102 1    
   199  100  221 1    
   200  101  222 1    
   201  101  223 1    
   202  101  224 1    
   203  102  103 2    
   204  102  104 am   BACKBONE|DICT|INTERRES
   205  104  105 1    
   206  104  225 1    
   207  105  106 1    
   208  105  107 1    
   209  105  226 1    
   210  106  227 1    
   211  106  228 1    
   212  106  229 1    
   213  107  108 2    
   214  107  109 am   BACKBONE|DICT|INTERRES
   215  109  110 1    
   216  109  230 1    
   217  110  111 1    
   218  110  112 1    
   219  110  231 1    
   220  111  232 1    
   221  111  233 1    
   222  111  234 1    
   223  112  113 2    
   224  112  114 am   BACKBONE|DICT|INTERRES
   225  114  115 1    
   226  114  235 1    
   227  115  116 1    
   228  115  117 1    
   229  115  236 1    
   230  116  237 1    
   231  116  238 1    
   232  116  239 1    
   233  117  118 2    
   234  117  119 am   BACKBONE|DICT|INTERRES
   235  119  120 1    
   236  119  240 1    
   237  120  121 1    
   238  120  124 1    
   239  120  241 1    
   240  121  122 am   BACKBONE|DICT|INTERRES
   241  121  123 2    
   242  122  242 1    
   243  122  243 1    
   244  124  125 1    
   245  124  244 1    
   246  124  245 1    
   247  125  126 1    
   248  126  246 1    
   249  126  247 1    
@<TRIPOS>SUBSTRUCTURE
     1 UNK         1 GROUP             0       ****    0 ROOT    
