@<TRIPOS>MOLECULE
3R540
247   249    1
SMALL
USER_CHARGES


@<TRIPOS>ATOM
      1 CA          2.3429  -16.0264  -42.4019 C.3       0 UNK        -0.1800 
      2 C           1.3329  -15.0184  -41.8695 C.2       0 UNK         0.5000 
      3 O           1.3206  -14.7391  -40.6712 O.2       0 UNK        -0.5000 
      4 N           0.4851  -14.4784  -42.7571 N.am      1 UNK        -0.5000 
      5 CA         -0.5472  -13.4721  -42.4584 C.3       1 UNK         0.1400 
      6 C6         -1.4542  -13.1743  -43.6833 C.3       23 UNK        -0.0398 
      7 S7         -2.0197  -14.6538  -44.5869 S.3       23 UNK        -0.2404 
      8 C8         -3.7198  -14.8521  -43.9795 C.3       23 UNK        -0.0205 
      9 C9         -4.4884  -15.8825  -44.7962 C.ar      23 UNK        -0.0193 
     10 C10        -4.9964  -15.5322  -46.0507 C.ar      23 UNK        -0.1150 
     11 C11        -5.7629  -16.4393  -46.7868 C.ar      23 UNK        -0.0193 
     12 C12        -6.0188  -17.7077  -46.2602 C.ar      23 UNK        -0.1150 
     13 C13        -5.5081  -18.0802  -45.0121 C.ar      23 UNK        -0.0193 
     14 C14        -4.7366  -17.1628  -44.2877 C.ar      23 UNK        -0.1150 
     15 C15        -5.8508  -19.4422  -44.4133 C.3       23 UNK        -0.0205 
     16 S16        -5.5358  -20.8411  -45.5427 S.3       23 UNK        -0.2404 
     17 C17        -3.7182  -20.8415  -45.5686 C.3       23 UNK        -0.0398 
     18 CA         -3.1131  -22.0761  -46.2765 C.3       11 UNK         0.1400 
     19 N          -1.7825  -21.7825  -46.8253 N.am      11 UNK        -0.5000 
     20 C          -0.9877  -22.6302  -47.4951 C.2       10 UNK         0.5000 
     21 O          -1.2942  -23.7936  -47.7520 O.2       10 UNK        -0.5000 
     22 CA          0.3852  -22.1005  -47.9329 C.3       10 UNK         0.1400 
     23 CB          0.2669  -21.3094  -49.2435 C.3       10 UNK        -0.1800 
     24 N           0.9792  -21.2644  -46.8915 N.am      10 UNK        -0.5000 
     25 C           1.6100  -21.7489  -45.8120 C.2       9 UNK         0.5000 
     26 O           1.8535  -22.9435  -45.6413 O.2       9 UNK        -0.5000 
     27 CA          2.0041  -20.7338  -44.7219 C.3       9 UNK         0.1400 
     28 CB          3.3891  -20.1362  -45.0104 C.3       9 UNK        -0.1800 
     29 N           1.0304  -19.6508  -44.5773 N.am      9 UNK        -0.5000 
     30 C          -0.2232  -19.8148  -44.1270 C.2       8 UNK         0.5000 
     31 O          -0.6814  -20.8964  -43.7573 O.2       8 UNK        -0.5000 
     32 CA         -1.1384  -18.5740  -44.1391 C.3       8 UNK         0.1400 
     33 CB         -1.0762  -17.8552  -42.7851 C.3       8 UNK        -0.1800 
     34 N          -0.8449  -17.6310  -45.2212 N.am      8 UNK        -0.5000 
     35 C          -0.8360  -17.9233  -46.5297 C.2       7 UNK         0.5000 
     36 O          -1.0920  -19.0412  -46.9748 O.2       7 UNK        -0.5000 
     37 CA         -0.4151  -16.8091  -47.5064 C.3       7 UNK         0.1400 
     38 CB         -1.6500  -16.1341  -48.1212 C.3       7 UNK        -0.1800 
     39 N           0.4748  -15.7858  -46.9438 N.am      7 UNK        -0.5000 
     40 C           1.6841  -16.0094  -46.4053 C.2       6 UNK         0.5000 
     41 O           2.1264  -17.1367  -46.1759 O.2       6 UNK        -0.5000 
     42 CA          2.5250  -14.7599  -46.0521 C.3       6 UNK         0.1400 
     43 CB          4.0278  -15.0713  -45.9051 C.3       6 UNK        -0.1800 
     44 N           2.3210  -13.6311  -46.9678 N.am      6 UNK        -0.5000 
     45 C           2.5106  -13.6040  -48.2945 C.2       5 UNK         0.5000 
     46 O           2.8993  -14.5668  -48.9562 O.2       5 UNK        -0.5000 
     47 CA          2.2095  -12.2733  -49.0116 C.3       5 UNK         0.1400 
     48 CB          0.6934  -11.9964  -49.0603 C.3       5 UNK        -0.1800 
     49 N           2.9556  -11.1177  -48.4927 N.am      5 UNK        -0.5000 
     50 C           2.8693  -10.5308  -47.2914 C.2       4 UNK         0.5000 
     51 O           2.1000  -10.8909  -46.3958 O.2       4 UNK        -0.5000 
     52 CA          3.7765   -9.3088  -47.0691 C.3       4 UNK         0.1400 
     53 CB          2.9992   -8.0110  -47.3373 C.3       4 UNK        -0.1800 
     54 N           4.2633   -9.2913  -45.6937 N.am      4 UNK        -0.5000 
     55 C           5.3487   -9.9427  -45.2554 C.2       3 UNK         0.5000 
     56 O           6.1455  -10.5231  -45.9938 O.2       3 UNK        -0.5000 
     57 CA          5.5670   -9.9649  -43.7274 C.3       3 UNK         0.1400 
     58 CB          6.4518   -8.7875  -43.2899 C.3       3 UNK        -0.1800 
     59 N           4.3076   -9.9285  -42.9761 N.am      3 UNK        -0.5000 
     60 C           3.4081  -10.9208  -42.9816 C.2       2 UNK         0.5000 
     61 O           3.6055  -12.0143  -43.5241 O.2       2 UNK        -0.5000 
     62 CA          2.0580  -10.6386  -42.2980 C.3       2 UNK         0.1400 
     63 CB          1.3702   -9.3899  -42.8896 C.3       2 UNK        -0.1800 
     64 N           1.2337  -11.8159  -42.5170 N.am      2 UNK        -0.5000 
     65 C           0.0646  -12.1435  -41.9608 C.2       1 UNK         0.5000 
     66 O          -0.5227  -11.4621  -41.1197 O.2       1 UNK        -0.5000 
     67 C          -3.1147  -23.3150  -45.3542 C.2       11 UNK         0.5000 
     68 O          -4.0025  -24.1604  -45.4706 O.2       11 UNK        -0.5000 
     69 N          -2.0689  -23.4410  -44.5242 N.am      12 UNK        -0.5000 
     70 CA         -1.7936  -24.5932  -43.6609 C.3       12 UNK         0.1400 
     71 CB         -0.5682  -24.2697  -42.7927 C.3       12 UNK        -0.1800 
     72 C          -1.5798  -25.9255  -44.4147 C.2       12 UNK         0.5000 
     73 O          -1.7631  -26.9875  -43.8195 O.2       12 UNK        -0.5000 
     74 N          -1.2223  -25.8515  -45.7031 N.am      13 UNK        -0.5000 
     75 CA         -1.0576  -26.9780  -46.6213 C.3       13 UNK         0.1400 
     76 CB          0.3059  -26.8419  -47.3239 C.3       13 UNK        -0.1800 
     77 C          -2.2252  -27.0449  -47.6290 C.2       13 UNK         0.5000 
     78 O          -2.0304  -27.4900  -48.7613 O.2       13 UNK        -0.5000 
     79 N          -3.4141  -26.5772  -47.2157 N.am      14 UNK        -0.5000 
     80 CA         -4.6593  -26.5076  -47.9902 C.3       14 UNK         0.1400 
     81 CB         -5.1824  -27.9216  -48.3204 C.3       14 UNK        -0.1800 
     82 C          -4.5197  -25.6092  -49.2348 C.2       14 UNK         0.5000 
     83 O          -4.8974  -26.0070  -50.3377 O.2       14 UNK        -0.5000 
     84 N          -3.9263  -24.4246  -49.0299 N.am      15 UNK        -0.5000 
     85 CA         -3.5559  -23.4347  -50.0489 C.3       15 UNK         0.1400 
     86 CB         -4.8089  -22.8318  -50.7119 C.3       15 UNK        -0.1800 
     87 C          -2.5359  -24.0053  -51.0548 C.2       15 UNK         0.5000 
     88 O          -2.6767  -23.8063  -52.2610 O.2       15 UNK        -0.5000 
     89 N          -1.5531  -24.7492  -50.5238 N.am      16 UNK        -0.5000 
     90 CA         -0.5559  -25.5549  -51.2371 C.3       16 UNK         0.1400 
     91 CB          0.4670  -24.6443  -51.9458 C.3       16 UNK        -0.1800 
     92 C          -1.2181  -26.5713  -52.1914 C.2       16 UNK         0.5000 
     93 O          -0.8912  -26.6113  -53.3773 O.2       16 UNK        -0.5000 
     94 N          -2.1902  -27.3290  -51.6623 N.am      17 UNK        -0.5000 
     95 CA         -3.0964  -28.2294  -52.3875 C.3       17 UNK         0.1400 
     96 CB         -2.3383  -29.4782  -52.8825 C.3       17 UNK        -0.1800 
     97 C          -3.8711  -27.5014  -53.5112 C.2       17 UNK         0.5000 
     98 O          -3.9398  -27.9860  -54.6420 O.2       17 UNK        -0.5000 
     99 N          -4.4056  -26.3222  -53.1657 N.am      18 UNK        -0.5000 
    100 CA        -5.1329  -25.3603  -54.0012 C.3       18 UNK         0.1400 
    101 CB        -6.4356  -25.9820  -54.5448 C.3       18 UNK        -0.1800 
    102 C         -4.3036  -24.6798  -55.1148 C.2       18 UNK         0.5000 
    103 O         -4.8818  -23.9469  -55.9194 O.2       18 UNK        -0.5000 
    104 N         -2.9800  -24.8917  -55.1528 N.am      19 UNK        -0.5000 
    105 CA        -2.0834  -24.2921  -56.1449 C.3       19 UNK         0.1400 
    106 CB        -0.8012  -25.1310  -56.2489 C.3       19 UNK        -0.1800 
    107 C         -1.7321  -22.8222  -55.8436 C.2       19 UNK         0.5000 
    108 O         -1.3494  -22.0996  -56.7649 O.2       19 UNK        -0.5000 
    109 N         -1.8549  -22.4050  -54.5780 N.am      20 UNK        -0.5000 
    110 CA        -1.5212  -21.0707  -54.0855 C.3       20 UNK         0.1400 
    111 CB        -0.2456  -21.1542  -53.2284 C.3       20 UNK        -0.1800 
    112 C         -2.7192  -20.4829  -53.3217 C.2       20 UNK         0.5000 
    113 O         -2.5711  -20.0152  -52.1911 O.2       20 UNK        -0.5000 
    114 N         -3.8988  -20.5304  -53.9543 N.am      21 UNK        -0.5000 
    115 CA        -5.1302  -19.9091  -53.4668 C.3       21 UNK         0.1400 
    116 CB        -6.3054  -20.3912  -54.3305 C.3       21 UNK        -0.1800 
    117 C         -5.0359  -18.3710  -53.4728 C.2       21 UNK         0.5000 
    118 O         -4.4270  -17.7973  -54.3801 O.2       21 UNK        -0.5000 
    119 N         -5.6459  -17.7404  -52.4634 N.am      22 UNK        -0.5000 
    120 CA        -5.7091  -16.2808  -52.2930 C.3       22 UNK         0.1400 
    121 C         -6.5199  -15.5777  -53.4185 C.2       22 UNK         0.5000 
    122 N         -6.0944  -14.4005  -53.8564 N.am      22 UNK        -0.7600 
    123 O         -7.5548  -16.0683  -53.8653 O.2       22 UNK        -0.5000 
    124 C124       -6.2829  -15.8963  -50.9060 C.3       23 UNK        -0.0398 
    125 S125       -5.2936  -16.5407  -49.5147 S.3       23 UNK        -0.2404 
    126 C126       -6.3543  -16.0350  -48.1279 C.3       23 UNK        -0.0205 
    127 H127        3.3248  -15.5614  -42.4904 H         1 UNK         0.0600 
    128 H128        2.4258  -16.8737  -41.7211 H         1 UNK         0.0600 
    129 H129        2.0559  -16.4120  -43.3795 H         1 UNK         0.0600 
    130 H130        0.5166  -14.7726  -43.7190 H         1 UNK         0.3000 
    131 H131       -1.1724  -13.8735  -41.6582 H         1 UNK         0.0600 
    132 H132       -0.9220  -12.5596  -44.4126 H         1 UNK         0.0800 
    133 H133       -2.3190  -12.5836  -43.3762 H         1 UNK         0.0800 
    134 H134       -3.6953  -15.1339  -42.9258 H         1 UNK         0.0800 
    135 H135       -4.2415  -13.8954  -44.0326 H         1 UNK         0.0800 
    136 H136       -4.8073  -14.5440  -46.4462 H         1 UNK         0.1150 
    137 H137       -6.6286  -18.4036  -46.8192 H         1 UNK         0.1150 
    138 H138       -4.3550  -17.4324  -43.3131 H         1 UNK         0.1150 
    139 H139       -5.3063  -19.6065  -43.4822 H         1 UNK         0.0800 
    140 H140       -6.9094  -19.4427  -44.1506 H         1 UNK         0.0800 
    141 H141       -3.3501  -20.7609  -44.5455 H         1 UNK         0.0800 
    142 H142       -3.4203  -19.9275  -46.0834 H         1 UNK         0.0800 
    143 H143       -3.7427  -22.3098  -47.1362 H         1 UNK         0.0600 
    144 H144       -1.4658  -20.8202  -46.7311 H         1 UNK         0.3000 
    145 H145        1.0327  -22.9605  -48.1179 H         1 UNK         0.0600 
    146 H146       -0.3664  -20.4283  -49.1370 H         1 UNK         0.0600 
    147 H147        1.2445  -20.9796  -49.5951 H         1 UNK         0.0600 
    148 H148       -0.1688  -21.9293  -50.0268 H         1 UNK         0.0600 
    149 H149        0.7695  -20.2758  -46.9296 H         1 UNK         0.3000 
    150 H150        2.0549  -21.2699  -43.7717 H         1 UNK         0.0600 
    151 H151        4.1462  -20.9188  -45.0738 H         1 UNK         0.0600 
    152 H152        3.6954  -19.4495  -44.2209 H         1 UNK         0.0600 
    153 H153        3.4029  -19.5887  -45.9537 H         1 UNK         0.0600 
    154 H154        1.3162  -18.7382  -44.9132 H         1 UNK         0.3000 
    155 H155       -2.1641  -18.9064  -44.2817 H         1 UNK         0.0600 
    156 H156       -1.3740  -18.5251  -41.9774 H         1 UNK         0.0600 
    157 H157       -1.7466  -16.9973  -42.7531 H         1 UNK         0.0600 
    158 H158       -0.0690  -17.5092  -42.5628 H         1 UNK         0.0600 
    159 H159       -0.6855  -16.6709  -44.9561 H         1 UNK         0.3000 
    160 H160        0.1350  -17.2953  -48.3146 H         1 UNK         0.0600 
    161 H161       -2.2394  -15.6047  -47.3731 H         1 UNK         0.0600 
    162 H162       -2.3051  -16.8721  -48.5861 H         1 UNK         0.0600 
    163 H163       -1.3682  -15.4198  -48.8949 H         1 UNK         0.0600 
    164 H164        0.1883  -14.8275  -47.0789 H         1 UNK         0.3000 
    165 H165        2.1717  -14.4184  -45.0800 H         1 UNK         0.0600 
    166 H166        4.4538  -15.4549  -46.8326 H         1 UNK         0.0600 
    167 H167        4.5864  -14.1789  -45.6214 H         1 UNK         0.0600 
    168 H168        4.2009  -15.8194  -45.1307 H         1 UNK         0.0600 
    169 H169        2.0545  -12.7475  -46.5375 H         1 UNK         0.3000 
    170 H170        2.5444  -12.3954  -50.0430 H         1 UNK         0.0600 
    171 H171        0.2653  -11.8590  -48.0671 H         1 UNK         0.0600 
    172 H172        0.4765  -11.1014  -49.6434 H         1 UNK         0.0600 
    173 H173        0.1624  -12.8256  -49.5295 H         1 UNK         0.0600 
    174 H174        3.6360  -10.7434  -49.1397 H         1 UNK         0.3000 
    175 H175        4.6238   -9.3548  -47.7566 H         1 UNK         0.0600 
    176 H176        2.1351   -7.9145  -46.6784 H         1 UNK         0.0600 
    177 H177        3.6320   -7.1353  -47.1911 H         1 UNK         0.0600 
    178 H178        2.6337   -7.9798  -48.3645 H         1 UNK         0.0600 
    179 H179        3.6409   -8.8917  -45.0080 H         1 UNK         0.3000 
    180 H180        6.0865  -10.8932  -43.4804 H         1 UNK         0.0600 
    181 H181        7.4072   -8.8013  -43.8161 H         1 UNK         0.0600 
    182 H182        6.6695   -8.8327  -42.2226 H         1 UNK         0.0600 
    183 H183        5.9772   -7.8275  -43.4966 H         1 UNK         0.0600 
    184 H184        4.0929   -9.0680  -42.4934 H         1 UNK         0.3000 
    185 H185        2.2251  -10.5093  -41.2273 H         1 UNK         0.0600 
    186 H186        0.3931   -9.2194  -42.4379 H         1 UNK         0.0600 
    187 H187        1.9584   -8.4889  -42.7147 H         1 UNK         0.0600 
    188 H188        1.2253   -9.4869  -43.9666 H         1 UNK         0.0600 
    189 H189        1.6740  -12.4721  -43.1514 H         1 UNK         0.3000 
    190 H190       -1.4077  -22.6728  -44.4658 H         1 UNK         0.3000 
    191 H191       -2.6554  -24.7266  -43.0042 H         1 UNK         0.0600 
    192 H192        0.3183  -24.0911  -43.4030 H         1 UNK         0.0600 
    193 H193       -0.7392  -23.3813  -42.1843 H         1 UNK         0.0600 
    194 H194       -0.3402  -25.0907  -42.1118 H         1 UNK         0.0600 
    195 H195       -1.1387  -24.9370  -46.1338 H         1 UNK         0.3000 
    196 H196       -1.0605  -27.9211  -46.0718 H         1 UNK         0.0600 
    197 H197        1.1181  -26.7989  -46.5982 H         1 UNK         0.0600 
    198 H198        0.3577  -25.9399  -47.9342 H         1 UNK         0.0600 
    199 H199        0.5013  -27.6937  -47.9763 H         1 UNK         0.0600 
    200 H200       -3.4619  -26.1657  -46.2917 H         1 UNK         0.3000 
    201 H201       -5.3964  -26.0254  -47.3465 H         1 UNK         0.0600 
    202 H202       -6.1640  -27.8726  -48.7930 H         1 UNK         0.0600 
    203 H203       -5.2870  -28.5233  -47.4177 H         1 UNK         0.0600 
    204 H204       -4.5195  -28.4538  -49.0031 H         1 UNK         0.0600 
    205 H205       -3.5758  -24.2432  -48.0996 H         1 UNK         0.3000 
    206 H206       -3.0463  -22.6179  -49.5390 H         1 UNK         0.0600 
    207 H207       -5.4420  -22.3364  -49.9760 H         1 UNK         0.0600 
    208 H208       -5.4118  -23.5828  -51.2196 H         1 UNK         0.0600 
    209 H209       -4.5265  -22.0867  -51.4519 H         1 UNK         0.0600 
    210 H210       -1.5277  -24.8184  -49.5125 H         1 UNK         0.3000 
    211 H211       -0.0228  -26.1347  -50.4826 H         1 UNK         0.0600 
    212 H212        0.9025  -23.9233  -51.2544 H         1 UNK         0.0600 
    213 H213        1.2858  -25.2318  -52.3623 H         1 UNK         0.0600 
    214 H214        0.0134  -24.0929  -52.7693 H         1 UNK         0.0600 
    215 H215       -2.3548  -27.2511  -50.6618 H         1 UNK         0.3000 
    216 H216       -3.8434  -28.5598  -51.6642 H         1 UNK         0.0600 
    217 H217       -3.0247  -30.2014  -53.3242 H         1 UNK         0.0600 
    218 H218       -1.5946  -29.2282  -53.6398 H         1 UNK         0.0600 
    219 H219       -1.8254  -29.9778  -52.0608 H         1 UNK         0.0600 
    220 H220       -4.3201  -26.0509  -52.1895 H         1 UNK         0.3000 
    221 H221       -5.4198  -24.5533  -53.3276 H         1 UNK         0.0600 
    222 H222       -6.2371  -26.7570  -55.2853 H         1 UNK         0.0600 
    223 H223       -7.0250  -26.4257  -53.7423 H         1 UNK         0.0600 
    224 H224       -7.0607  -25.2275  -55.0237 H         1 UNK         0.0600 
    225 H225       -2.5534  -25.4776  -54.4452 H         1 UNK         0.3000 
    226 H226       -2.5781  -24.3210  -57.1180 H         1 UNK         0.0600 
    227 H227       -1.0264  -26.1853  -56.4113 H         1 UNK         0.0600 
    228 H228       -0.1853  -24.7960  -57.0843 H         1 UNK         0.0600 
    229 H229       -0.1939  -25.0500  -55.3470 H         1 UNK         0.0600 
    230 H230       -2.2070  -23.0517  -53.8729 H         1 UNK         0.3000 
    231 H231       -1.3242  -20.3915  -54.9171 H         1 UNK         0.0600 
    232 H232        0.0618  -20.1665  -52.8831 H         1 UNK         0.0600 
    233 H233        0.5850  -21.5748  -53.7951 H         1 UNK         0.0600 
    234 H234       -0.4011  -21.7769  -52.3484 H         1 UNK         0.0600 
    235 H235       -3.9304  -20.9297  -54.8808 H         1 UNK         0.3000 
    236 H236       -5.3013  -20.2362  -52.4407 H         1 UNK         0.0600 
    237 H237       -6.4022  -21.4768  -54.2945 H         1 UNK         0.0600 
    238 H238       -7.2476  -19.9682  -53.9797 H         1 UNK         0.0600 
    239 H239       -6.1831  -20.0993  -55.3744 H         1 UNK         0.0600 
    240 H240       -6.1290  -18.2826  -51.7629 H         1 UNK         0.3000 
    241 H241       -4.6826  -15.9117  -52.3440 H         1 UNK         0.0600 
    242 H242       -5.2523  -13.9747  -53.5002 H         1 UNK         0.3800 
    243 H243       -6.6197  -13.9267  -54.5753 H         1 UNK         0.3800 
    244 H244       -6.3292  -14.8104  -50.8030 H         1 UNK         0.0800 
    245 H245       -7.3080  -16.2582  -50.8065 H         1 UNK         0.0800 
    246 H246       -7.3421  -16.4836  -48.2445 H         1 UNK         0.0800 
    247 H247       -6.5018  -14.9543  -48.1611 H         1 UNK         0.0800 
@<TRIPOS>BOND
     1    1    2 1    
     2    1  127 1    
     3    1  128 1    
     4    1  129 1    
     5    2    3 2    
     6    2    4 am   BACKBONE|DICT|INTERRES
     7    4    5 1    
     8    4  130 1    
     9    5    6 1    
    10    5   65 1    
    11    5  131 1    
    12    6    7 1    
    13    6  132 1    
    14    6  133 1    
    15    7    8 1    
    16    8    9 1    
    17    8  134 1    
    18    8  135 1    
    19    9   10 ar   
    20    9   14 ar   
    21   10   11 ar   
    22   10  136 1    
    23   11   12 ar   
    24   11  126 1    
    25   12   13 ar   
    26   12  137 1    
    27   13   14 ar   
    28   13   15 1    
    29   14  138 1    
    30   15   16 1    
    31   15  139 1    
    32   15  140 1    
    33   16   17 1    
    34   17   18 1    
    35   17  141 1    
    36   17  142 1    
    37   18   19 1    
    38   18   67 1    
    39   18  143 1    
    40   19   20 am   BACKBONE|DICT|INTERRES
    41   19  144 1    
    42   20   21 2    
    43   20   22 1    
    44   22   23 1    
    45   22   24 1    
    46   22  145 1    
    47   23  146 1    
    48   23  147 1    
    49   23  148 1    
    50   24   25 am   BACKBONE|DICT|INTERRES
    51   24  149 1    
    52   25   26 2    
    53   25   27 1    
    54   27   28 1    
    55   27   29 1    
    56   27  150 1    
    57   28  151 1    
    58   28  152 1    
    59   28  153 1    
    60   29   30 am   BACKBONE|DICT|INTERRES
    61   29  154 1    
    62   30   31 2    
    63   30   32 1    
    64   32   33 1    
    65   32   34 1    
    66   32  155 1    
    67   33  156 1    
    68   33  157 1    
    69   33  158 1    
    70   34   35 am   BACKBONE|DICT|INTERRES
    71   34  159 1    
    72   35   36 2    
    73   35   37 1    
    74   37   38 1    
    75   37   39 1    
    76   37  160 1    
    77   38  161 1    
    78   38  162 1    
    79   38  163 1    
    80   39   40 am   BACKBONE|DICT|INTERRES
    81   39  164 1    
    82   40   41 2    
    83   40   42 1    
    84   42   43 1    
    85   42   44 1    
    86   42  165 1    
    87   43  166 1    
    88   43  167 1    
    89   43  168 1    
    90   44   45 am   BACKBONE|DICT|INTERRES
    91   44  169 1    
    92   45   46 2    
    93   45   47 1    
    94   47   48 1    
    95   47   49 1    
    96   47  170 1    
    97   48  171 1    
    98   48  172 1    
    99   48  173 1    
   100   49   50 am   BACKBONE|DICT|INTERRES
   101   49  174 1    
   102   50   51 2    
   103   50   52 1    
   104   52   53 1    
   105   52   54 1    
   106   52  175 1    
   107   53  176 1    
   108   53  177 1    
   109   53  178 1    
   110   54   55 am   BACKBONE|DICT|INTERRES
   111   54  179 1    
   112   55   56 2    
   113   55   57 1    
   114   57   58 1    
   115   57   59 1    
   116   57  180 1    
   117   58  181 1    
   118   58  182 1    
   119   58  183 1    
   120   59   60 am   BACKBONE|DICT|INTERRES
   121   59  184 1    
   122   60   61 2    
   123   60   62 1    
   124   62   63 1    
   125   62   64 1    
   126   62  185 1    
   127   63  186 1    
   128   63  187 1    
   129   63  188 1    
   130   64   65 am   BACKBONE|DICT|INTERRES
   131   64  189 1    
   132   65   66 2    
   133   67   68 2    
   134   67   69 am   BACKBONE|DICT|INTERRES
   135   69   70 1    
   136   69  190 1    
   137   70   71 1    
   138   70   72 1    
   139   70  191 1    
   140   71  192 1    
   141   71  193 1    
   142   71  194 1    
   143   72   73 2    
   144   72   74 am   BACKBONE|DICT|INTERRES
   145   74   75 1    
   146   74  195 1    
   147   75   76 1    
   148   75   77 1    
   149   75  196 1    
   150   76  197 1    
   151   76  198 1    
   152   76  199 1    
   153   77   78 2    
   154   77   79 am   BACKBONE|DICT|INTERRES
   155   79   80 1    
   156   79  200 1    
   157   80   81 1    
   158   80   82 1    
   159   80  201 1    
   160   81  202 1    
   161   81  203 1    
   162   81  204 1    
   163   82   83 2    
   164   82   84 am   BACKBONE|DICT|INTERRES
   165   84   85 1    
   166   84  205 1    
   167   85   86 1    
   168   85   87 1    
   169   85  206 1    
   170   86  207 1    
   171   86  208 1    
   172   86  209 1    
   173   87   88 2    
   174   87   89 am   BACKBONE|DICT|INTERRES
   175   89   90 1    
   176   89  210 1    
   177   90   91 1    
   178   90   92 1    
   179   90  211 1    
   180   91  212 1    
   181   91  213 1    
   182   91  214 1    
   183   92   93 2    
   184   92   94 am   BACKBONE|DICT|INTERRES
   185   94   95 1    
   186   94  215 1    
   187   95   96 1    
   188   95   97 1    
   189   95  216 1    
   190   96  217 1    
   191   96  218 1    
   192   96  219 1    
   193   97   98 2    
   194   97   99 am   BACKBONE|DICT|INTERRES
   195   99  100 1    
   196   99  220 1    
   197  100  101 1    
   198  100  102 1    
   199  100  221 1    
   200  101  222 1    
   201  101  223 1    
   202  101  224 1    
   203  102  103 2    
   204  102  104 am   BACKBONE|DICT|INTERRES
   205  104  105 1    
   206  104  225 1    
   207  105  106 1    
   208  105  107 1    
   209  105  226 1    
   210  106  227 1    
   211  106  228 1    
   212  106  229 1    
   213  107  108 2    
   214  107  109 am   BACKBONE|DICT|INTERRES
   215  109  110 1    
   216  109  230 1    
   217  110  111 1    
   218  110  112 1    
   219  110  231 1    
   220  111  232 1    
   221  111  233 1    
   222  111  234 1    
   223  112  113 2    
   224  112  114 am   BACKBONE|DICT|INTERRES
   225  114  115 1    
   226  114  235 1    
   227  115  116 1    
   228  115  117 1    
   229  115  236 1    
   230  116  237 1    
   231  116  238 1    
   232  116  239 1    
   233  117  118 2    
   234  117  119 am   BACKBONE|DICT|INTERRES
   235  119  120 1    
   236  119  240 1    
   237  120  121 1    
   238  120  124 1    
   239  120  241 1    
   240  121  122 am   BACKBONE|DICT|INTERRES
   241  121  123 2    
   242  122  242 1    
   243  122  243 1    
   244  124  125 1    
   245  124  244 1    
   246  124  245 1    
   247  125  126 1    
   248  126  246 1    
   249  126  247 1    
@<TRIPOS>SUBSTRUCTURE
     1 UNK         1 GROUP             0       ****    0 ROOT    
