@<TRIPOS>MOLECULE
3R540
247   249    1
SMALL
USER_CHARGES


@<TRIPOS>ATOM
      1 CA          0.7658  -15.5537  -48.1415 C.3       0 UNK        -0.1800 
      2 C          -0.1227  -14.7025  -49.0384 C.2       0 UNK         0.5000 
      3 O           0.2282  -14.4740  -50.1922 O.2       0 UNK        -0.5000 
      4 N          -1.2655  -14.1969  -48.5604 N.am      1 UNK        -0.5000 
      5 CA         -1.7591  -14.2509  -47.1772 C.3       1 UNK         0.1400 
      6 C6         -3.1202  -14.9919  -47.0704 C.3       23 UNK        -0.0398 
      7 S7         -3.0311  -16.7802  -47.4495 S.3       23 UNK        -0.2404 
      8 C8         -4.8128  -17.1565  -47.5203 C.3       23 UNK        -0.0205 
      9 C9         -5.1502  -18.6038  -47.1768 C.ar      23 UNK        -0.0193 
     10 C10        -5.5861  -19.4882  -48.1707 C.ar      23 UNK        -0.1150 
     11 C11        -6.0386  -20.7691  -47.8335 C.ar      23 UNK        -0.0193 
     12 C12        -6.0356  -21.1688  -46.4961 C.ar      23 UNK        -0.1150 
     13 C13        -5.5914  -20.3035  -45.4939 C.ar      23 UNK        -0.0193 
     14 C14        -5.1399  -19.0253  -45.8420 C.ar      23 UNK        -0.1150 
     15 C15        -5.6728  -20.7277  -44.0321 C.3       23 UNK        -0.0205 
     16 S16        -4.7224  -22.2423  -43.6778 S.3       23 UNK        -0.2404 
     17 C17        -3.0257  -21.6619  -43.9901 C.3       23 UNK        -0.0398 
     18 CA         -2.4164  -22.2408  -45.2906 C.3       11 UNK         0.1400 
     19 N          -1.3299  -21.4014  -45.7943 N.am      11 UNK        -0.5000 
     20 C          -0.7343  -21.5269  -46.9859 C.2       10 UNK         0.5000 
     21 O          -1.0845  -22.3311  -47.8475 O.2       10 UNK        -0.5000 
     22 CA          0.4810  -20.6247  -47.2586 C.3       10 UNK         0.1400 
     23 CB          0.0325  -19.2781  -47.8420 C.3       10 UNK        -0.1800 
     24 N           1.3133  -20.4047  -46.0745 N.am      10 UNK        -0.5000 
     25 C           1.9910  -21.3687  -45.4347 C.2       9 UNK         0.5000 
     26 O           1.9982  -22.5472  -45.7902 O.2       9 UNK        -0.5000 
     27 CA          2.7479  -20.9609  -44.1571 C.3       9 UNK         0.1400 
     28 CB          4.0503  -20.2202  -44.4951 C.3       9 UNK        -0.1800 
     29 N           1.9328  -20.1432  -43.2588 N.am      9 UNK        -0.5000 
     30 C           0.8136  -20.5696  -42.6557 C.2       8 UNK         0.5000 
     31 O           0.3686  -21.7134  -42.7615 O.2       8 UNK        -0.5000 
     32 CA          0.0252  -19.5241  -41.8457 C.3       8 UNK         0.1400 
     33 CB          0.6630  -19.3021  -40.4664 C.3       8 UNK        -0.1800 
     34 N          -0.1004  -18.2439  -42.5449 N.am      8 UNK        -0.5000 
     35 C          -0.6906  -18.0916  -43.7390 C.2       7 UNK         0.5000 
     36 O          -1.2156  -19.0074  -44.3629 O.2       7 UNK        -0.5000 
     37 CA         -0.6400  -16.7008  -44.3792 C.3       7 UNK         0.1400 
     38 CB         -1.6785  -15.7700  -43.7344 C.3       7 UNK        -0.1800 
     39 N           0.6915  -16.1061  -44.3076 N.am      7 UNK        -0.5000 
     40 C           1.7989  -16.6201  -44.8616 C.2       6 UNK         0.5000 
     41 O           1.8095  -17.6343  -45.5569 O.2       6 UNK        -0.5000 
     42 CA          3.1234  -15.9055  -44.5461 C.3       6 UNK         0.1400 
     43 CB          3.3351  -14.6870  -45.4569 C.3       6 UNK        -0.1800 
     44 N           3.1868  -15.4850  -43.1485 N.am      6 UNK        -0.5000 
     45 C           3.3053  -16.3256  -42.1120 C.2       5 UNK         0.5000 
     46 O           3.4118  -17.5476  -42.2269 O.2       5 UNK        -0.5000 
     47 CA          3.2563  -15.6866  -40.7126 C.3       5 UNK         0.1400 
     48 CB          4.6319  -15.1255  -40.3221 C.3       5 UNK        -0.1800 
     49 N           2.2518  -14.6237  -40.6194 N.am      5 UNK        -0.5000 
     50 C           0.9304  -14.8395  -40.6712 C.2       4 UNK         0.5000 
     51 O           0.4265  -15.9557  -40.7952 O.2       4 UNK        -0.5000 
     52 CA          0.0185  -13.6001  -40.6071 C.3       4 UNK         0.1400 
     53 CB         -0.1899  -13.1598  -39.1503 C.3       4 UNK        -0.1800 
     54 N           0.4853  -12.4563  -41.3993 N.am      4 UNK        -0.5000 
     55 C           0.6897  -12.4736  -42.7225 C.2       3 UNK         0.5000 
     56 O           0.6458  -13.4937  -43.4111 O.2       3 UNK        -0.5000 
     57 CA          1.0125  -11.1379  -43.3993 C.3       3 UNK         0.1400 
     58 CB          2.5325  -10.9267  -43.4788 C.3       3 UNK        -0.1800 
     59 N           0.4595  -11.1757  -44.7509 N.am      3 UNK        -0.5000 
     60 C          -0.3012  -10.2288  -45.3101 C.2       2 UNK         0.5000 
     61 O          -0.5658   -9.1564  -44.7647 O.2       2 UNK        -0.5000 
     62 CA         -0.8609  -10.5115  -46.7198 C.3       2 UNK         0.1400 
     63 CB         -0.0239   -9.7788  -47.7803 C.3       2 UNK        -0.1800 
     64 N          -0.9252  -11.9328  -47.0767 N.am      2 UNK        -0.5000 
     65 C          -1.8130  -12.8165  -46.5942 C.2       1 UNK         0.5000 
     66 O          -2.6498  -12.5264  -45.7390 O.2       1 UNK        -0.5000 
     67 C          -1.9505  -23.6967  -45.0934 C.2       11 UNK         0.5000 
     68 O          -2.6159  -24.6173  -45.5680 O.2       11 UNK        -0.5000 
     69 N          -0.7962  -23.8744  -44.4317 N.am      12 UNK        -0.5000 
     70 CA         -0.1719  -25.1745  -44.1766 C.3       12 UNK         0.1400 
     71 CB          1.0177  -24.9913  -43.2221 C.3       12 UNK        -0.1800 
     72 C           0.2669  -25.8946  -45.4649 C.2       12 UNK         0.5000 
     73 O           0.0859  -27.1076  -45.5765 O.2       12 UNK        -0.5000 
     74 N           0.8083  -25.1307  -46.4224 N.am      13 UNK        -0.5000 
     75 CA          1.1933  -25.6092  -47.7506 C.3       13 UNK         0.1400 
     76 CB          2.1443  -24.5814  -48.3840 C.3       13 UNK        -0.1800 
     77 C          -0.0062  -25.8635  -48.6861 C.2       13 UNK         0.5000 
     78 O           0.1558  -26.5685  -49.6827 O.2       13 UNK        -0.5000 
     79 N          -1.1636  -25.2619  -48.3692 N.am      14 UNK        -0.5000 
     80 CA         -2.3767  -25.1592  -49.1881 C.3       14 UNK         0.1400 
     81 CB         -3.0600  -26.5321  -49.3487 C.3       14 UNK        -0.1800 
     82 C          -2.0881  -24.4537  -50.5303 C.2       14 UNK         0.5000 
     83 O          -2.4489  -24.9536  -51.5957 O.2       14 UNK        -0.5000 
     84 N          -1.3727  -23.3266  -50.4445 N.am      15 UNK        -0.5000 
     85 CA         -0.8303  -22.5983  -51.5857 C.3       15 UNK         0.1400 
     86 CB          0.5253  -21.9944  -51.1860 C.3       15 UNK        -0.1800 
     87 C          -1.7752  -21.4979  -52.0875 C.2       15 UNK         0.5000 
     88 O          -1.8685  -21.3052  -53.3000 O.2       15 UNK        -0.5000 
     89 N          -2.4197  -20.7733  -51.1571 N.am      16 UNK        -0.5000 
     90 CA         -3.2608  -19.5869  -51.3848 C.3       16 UNK         0.1400 
     91 CB         -4.6294  -19.9957  -51.9501 C.3       16 UNK        -0.1800 
     92 C          -2.5577  -18.5426  -52.2760 C.2       16 UNK         0.5000 
     93 O          -2.9023  -18.3894  -53.4524 O.2       16 UNK        -0.5000 
     94 N          -1.5032  -17.9342  -51.7129 N.am      17 UNK        -0.5000 
     95 CA         -0.5714  -16.9945  -52.3565 C.3       17 UNK         0.1400 
     96 CB         -1.3109  -15.7181  -52.8109 C.3       17 UNK        -0.1800 
     97 C           0.2604  -17.6217  -53.4982 C.2       17 UNK         0.5000 
     98 O           0.8269  -16.8926  -54.3133 O.2       17 UNK        -0.5000 
     99 N           0.2973  -18.9633  -53.5419 N.am      18 UNK        -0.5000 
    100 CA         0.8363  -19.8156  -54.6082 C.3       18 UNK         0.1400 
    101 CB         2.3680  -19.6665  -54.7151 C.3       18 UNK        -0.1800 
    102 C          0.1094  -19.6174  -55.9565 C.2       18 UNK         0.5000 
    103 O          0.7046  -19.8473  -57.0111 O.2       18 UNK        -0.5000 
    104 N         -1.1572  -19.1837  -55.8970 N.am      19 UNK        -0.5000 
    105 CA        -1.9718  -18.8258  -57.0510 C.3       19 UNK         0.1400 
    106 CB        -2.3900  -17.3494  -56.9346 C.3       19 UNK        -0.1800 
    107 C         -3.1935  -19.7454  -57.1562 C.2       19 UNK         0.5000 
    108 O         -3.3535  -20.4202  -58.1743 O.2       19 UNK        -0.5000 
    109 N         -4.0427  -19.7483  -56.1192 N.am      20 UNK        -0.5000 
    110 CA        -5.3391  -20.4317  -56.1514 C.3       20 UNK         0.1400 
    111 CB        -6.3606  -19.6131  -55.3457 C.3       20 UNK        -0.1800 
    112 C         -5.2889  -21.8927  -55.6677 C.2       20 UNK         0.5000 
    113 O         -6.2663  -22.6153  -55.8720 O.2       20 UNK        -0.5000 
    114 N         -4.1899  -22.3024  -55.0107 N.am      21 UNK        -0.5000 
    115 CA        -3.9431  -23.6463  -54.4582 C.3       21 UNK         0.1400 
    116 CB        -3.7332  -24.6607  -55.6010 C.3       21 UNK        -0.1800 
    117 C         -5.0136  -24.1101  -53.4416 C.2       21 UNK         0.5000 
    118 O         -5.2571  -25.3101  -53.3009 O.2       21 UNK        -0.5000 
    119 N         -5.6646  -23.1366  -52.7895 N.am      22 UNK        -0.5000 
    120 CA        -6.8430  -23.2930  -51.9224 C.3       22 UNK         0.1400 
    121 C         -8.0881  -23.9269  -52.6223 C.2       22 UNK         0.5000 
    122 N         -8.1998  -23.8786  -53.9458 N.am      22 UNK        -0.7600 
    123 O         -8.9888  -24.4371  -51.9614 O.2       22 UNK        -0.5000 
    124 C124       -6.5014  -23.9363  -50.5477 C.3       23 UNK        -0.0398 
    125 S125       -5.4041  -22.8875  -49.5287 S.3       23 UNK        -0.2404 
    126 C126       -6.6224  -21.6950  -48.8889 C.3       23 UNK        -0.0205 
    127 H127        1.1873  -14.9412  -47.3471 H         1 UNK         0.0600 
    128 H128        1.5884  -15.9901  -48.7081 H         1 UNK         0.0600 
    129 H129        0.1977  -16.3685  -47.6951 H         1 UNK         0.0600 
    130 H130       -1.8358  -13.6458  -49.1868 H         1 UNK         0.3000 
    131 H131       -1.0521  -14.7717  -46.5352 H         1 UNK         0.0600 
    132 H132       -3.5250  -14.9099  -46.0603 H         1 UNK         0.0800 
    133 H133       -3.8534  -14.5255  -47.7306 H         1 UNK         0.0800 
    134 H134       -5.1851  -16.9004  -48.5133 H         1 UNK         0.0800 
    135 H135       -5.3488  -16.5099  -46.8237 H         1 UNK         0.0800 
    136 H136       -5.6254  -19.1618  -49.1998 H         1 UNK         0.1150 
    137 H137       -6.4056  -22.1492  -46.2298 H         1 UNK         0.1150 
    138 H138       -4.8203  -18.3383  -45.0708 H         1 UNK         0.1150 
    139 H139       -5.3313  -19.9277  -43.3731 H         1 UNK         0.0800 
    140 H140       -6.7188  -20.9048  -43.7786 H         1 UNK         0.0800 
    141 H141       -2.4038  -21.8787  -43.1199 H         1 UNK         0.0800 
    142 H142       -3.0690  -20.5768  -44.0526 H         1 UNK         0.0800 
    143 H143       -3.1892  -22.2402  -46.0630 H         1 UNK         0.0600 
    144 H144       -1.0363  -20.6390  -45.1877 H         1 UNK         0.3000 
    145 H145        1.0996  -21.1271  -48.0045 H         1 UNK         0.0600 
    146 H146        0.8914  -18.6782  -48.1426 H         1 UNK         0.0600 
    147 H147       -0.5936  -19.4183  -48.7235 H         1 UNK         0.0600 
    148 H148       -0.5441  -18.7024  -47.1174 H         1 UNK         0.0600 
    149 H149        1.3848  -19.4461  -45.7403 H         1 UNK         0.3000 
    150 H150        3.0108  -21.8767  -43.6236 H         1 UNK         0.0600 
    151 H151        4.6882  -20.8277  -45.1383 H         1 UNK         0.0600 
    152 H152        4.6188  -19.9927  -43.5931 H         1 UNK         0.0600 
    153 H153        3.8607  -19.2808  -45.0142 H         1 UNK         0.0600 
    154 H154        2.2354  -19.1879  -43.1080 H         1 UNK         0.3000 
    155 H155       -0.9824  -19.9164  -41.6941 H         1 UNK         0.0600 
    156 H156        1.6590  -18.8660  -40.5474 H         1 UNK         0.0600 
    157 H157        0.7583  -20.2432  -39.9235 H         1 UNK         0.0600 
    158 H158        0.0556  -18.6341  -39.8555 H         1 UNK         0.0600 
    159 H159        0.2713  -17.4257  -42.0709 H         1 UNK         0.3000 
    160 H160       -0.8879  -16.8196  -45.4338 H         1 UNK         0.0600 
    161 H161       -1.5126  -15.6602  -42.6633 H         1 UNK         0.0600 
    162 H162       -2.6868  -16.1631  -43.8703 H         1 UNK         0.0600 
    163 H163       -1.6552  -14.7741  -44.1737 H         1 UNK         0.0600 
    164 H164        0.7645  -15.2278  -43.7974 H         1 UNK         0.3000 
    165 H165        3.9373  -16.6107  -44.7276 H         1 UNK         0.0600 
    166 H166        4.2646  -14.1713  -45.2154 H         1 UNK         0.0600 
    167 H167        3.4006  -14.9922  -46.5015 H         1 UNK         0.0600 
    168 H168        2.5211  -13.9668  -45.3706 H         1 UNK         0.0600 
    169 H169        3.0497  -14.5032  -42.9612 H         1 UNK         0.3000 
    170 H170        2.9929  -16.4702  -39.9988 H         1 UNK         0.0600 
    171 H171        5.3970  -15.9016  -40.3699 H         1 UNK         0.0600 
    172 H172        4.9424  -14.3168  -40.9848 H         1 UNK         0.0600 
    173 H173        4.6249  -14.7402  -39.3024 H         1 UNK         0.0600 
    174 H174        2.5863  -13.6766  -40.5206 H         1 UNK         0.3000 
    175 H175       -0.9529  -13.8948  -41.0091 H         1 UNK         0.0600 
    176 H176        0.7372  -12.8032  -38.6999 H         1 UNK         0.0600 
    177 H177       -0.9267  -12.3593  -39.0814 H         1 UNK         0.0600 
    178 H178       -0.5544  -13.9874  -38.5401 H         1 UNK         0.0600 
    179 H179        0.5661  -11.5785  -40.9066 H         1 UNK         0.3000 
    180 H180        0.5620  -10.3321  -42.8162 H         1 UNK         0.0600 
    181 H181        3.0229  -11.7245  -44.0381 H         1 UNK         0.0600 
    182 H182        2.9775  -10.8997  -42.4834 H         1 UNK         0.0600 
    183 H183        2.7713   -9.9819  -43.9674 H         1 UNK         0.0600 
    184 H184        0.5647  -12.0604  -45.2273 H         1 UNK         0.3000 
    185 H185       -1.8752  -10.1080  -46.7514 H         1 UNK         0.0600 
    186 H186        0.0215   -8.7088  -47.5731 H         1 UNK         0.0600 
    187 H187        1.0011  -10.1506  -47.8110 H         1 UNK         0.0600 
    188 H188       -0.4549   -9.8967  -48.7747 H         1 UNK         0.0600 
    189 H189       -0.2802  -12.2443  -47.7883 H         1 UNK         0.3000 
    190 H190       -0.3159  -23.0632  -44.0528 H         1 UNK         0.3000 
    191 H191       -0.9114  -25.8061  -43.6802 H         1 UNK         0.0600 
    192 H192        1.7778  -24.3349  -43.6469 H         1 UNK         0.0600 
    193 H193        1.4937  -25.9476  -43.0016 H         1 UNK         0.0600 
    194 H194        0.6981  -24.5603  -42.2731 H         1 UNK         0.0600 
    195 H195        0.9955  -24.1521  -46.2196 H         1 UNK         0.3000 
    196 H196        1.7323  -26.5523  -47.6389 H         1 UNK         0.0600 
    197 H197        2.4744  -24.9056  -49.3717 H         1 UNK         0.0600 
    198 H198        3.0359  -24.4400  -47.7729 H         1 UNK         0.0600 
    199 H199        1.6617  -23.6102  -48.5001 H         1 UNK         0.0600 
    200 H200       -1.1715  -24.6927  -47.5330 H         1 UNK         0.3000 
    201 H201       -3.0591  -24.5124  -48.6358 H         1 UNK         0.0600 
    202 H202       -3.2635  -26.9847  -48.3782 H         1 UNK         0.0600 
    203 H203       -2.4482  -27.2278  -49.9233 H         1 UNK         0.0600 
    204 H204       -4.0139  -26.4308  -49.8674 H         1 UNK         0.0600 
    205 H205       -1.1460  -22.9786  -49.5140 H         1 UNK         0.3000 
    206 H206       -0.6559  -23.2915  -52.4116 H         1 UNK         0.0600 
    207 H207        1.2173  -22.7700  -50.8576 H         1 UNK         0.0600 
    208 H208        0.9948  -21.4831  -52.0259 H         1 UNK         0.0600 
    209 H209        0.4250  -21.2718  -50.3761 H         1 UNK         0.0600 
    210 H210       -2.2962  -21.0415  -50.1910 H         1 UNK         0.3000 
    211 H211       -3.4279  -19.1199  -50.4129 H         1 UNK         0.0600 
    212 H212       -4.5268  -20.5015  -52.9074 H         1 UNK         0.0600 
    213 H213       -5.2651  -19.1219  -52.0970 H         1 UNK         0.0600 
    214 H214       -5.1524  -20.6603  -51.2689 H         1 UNK         0.0600 
    215 H215       -1.2920  -18.1518  -50.7496 H         1 UNK         0.3000 
    216 H216        0.1488  -16.7110  -51.5891 H         1 UNK         0.0600 
    217 H217       -0.6036  -14.9453  -53.1137 H         1 UNK         0.0600 
    218 H218       -1.9128  -15.3026  -52.0027 H         1 UNK         0.0600 
    219 H219       -1.9693  -15.9074  -53.6591 H         1 UNK         0.0600 
    220 H220       -0.2409  -19.4497  -52.8410 H         1 UNK         0.3000 
    221 H221        0.6302  -20.8450  -54.3145 H         1 UNK         0.0600 
    222 H222        2.6558  -18.6841  -55.0899 H         1 UNK         0.0600 
    223 H223        2.8463  -19.8102  -53.7463 H         1 UNK         0.0600 
    224 H224        2.7865  -20.4095  -55.3949 H         1 UNK         0.0600 
    225 H225       -1.5837  -19.0515  -54.9865 H         1 UNK         0.3000 
    226 H226       -1.4030  -18.9346  -57.9768 H         1 UNK         0.0600 
    227 H227       -1.5176  -16.6958  -56.9494 H         1 UNK         0.0600 
    228 H228       -3.0306  -17.0567  -57.7674 H         1 UNK         0.0600 
    229 H229       -2.9355  -17.1490  -56.0116 H         1 UNK         0.0600 
    230 H230       -3.8321  -19.1901  -55.2996 H         1 UNK         0.3000 
    231 H231       -5.7036  -20.4631  -57.1807 H         1 UNK         0.0600 
    232 H232       -6.4932  -18.6215  -55.7787 H         1 UNK         0.0600 
    233 H233       -6.0575  -19.4818  -54.3099 H         1 UNK         0.0600 
    234 H234       -7.3389  -20.0959  -55.3426 H         1 UNK         0.0600 
    235 H235       -3.4456  -21.6329  -54.8529 H         1 UNK         0.3000 
    236 H236       -3.0073  -23.5900  -53.9038 H         1 UNK         0.0600 
    237 H237       -4.6501  -24.8278  -56.1670 H         1 UNK         0.0600 
    238 H238       -2.9668  -24.3176  -56.2959 H         1 UNK         0.0600 
    239 H239       -3.4073  -25.6261  -55.2121 H         1 UNK         0.0600 
    240 H240       -5.3876  -22.1868  -52.9812 H         1 UNK         0.3000 
    241 H241       -7.1759  -22.2750  -51.7239 H         1 UNK         0.0600 
    242 H242       -9.0127  -24.2799  -54.3853 H         1 UNK         0.3800 
    243 H243       -7.4769  -23.4606  -54.5229 H         1 UNK         0.3800 
    244 H244       -6.0234  -24.9060  -50.6908 H         1 UNK         0.0800 
    245 H245       -7.4032  -24.1334  -49.9664 H         1 UNK         0.0800 
    246 H246       -7.4682  -22.2368  -48.4626 H         1 UNK         0.0800 
    247 H247       -7.0268  -21.1044  -49.7114 H         1 UNK         0.0800 
@<TRIPOS>BOND
     1    1    2 1    
     2    1  127 1    
     3    1  128 1    
     4    1  129 1    
     5    2    3 2    
     6    2    4 am   BACKBONE|DICT|INTERRES
     7    4    5 1    
     8    4  130 1    
     9    5    6 1    
    10    5   65 1    
    11    5  131 1    
    12    6    7 1    
    13    6  132 1    
    14    6  133 1    
    15    7    8 1    
    16    8    9 1    
    17    8  134 1    
    18    8  135 1    
    19    9   10 ar   
    20    9   14 ar   
    21   10   11 ar   
    22   10  136 1    
    23   11   12 ar   
    24   11  126 1    
    25   12   13 ar   
    26   12  137 1    
    27   13   14 ar   
    28   13   15 1    
    29   14  138 1    
    30   15   16 1    
    31   15  139 1    
    32   15  140 1    
    33   16   17 1    
    34   17   18 1    
    35   17  141 1    
    36   17  142 1    
    37   18   19 1    
    38   18   67 1    
    39   18  143 1    
    40   19   20 am   BACKBONE|DICT|INTERRES
    41   19  144 1    
    42   20   21 2    
    43   20   22 1    
    44   22   23 1    
    45   22   24 1    
    46   22  145 1    
    47   23  146 1    
    48   23  147 1    
    49   23  148 1    
    50   24   25 am   BACKBONE|DICT|INTERRES
    51   24  149 1    
    52   25   26 2    
    53   25   27 1    
    54   27   28 1    
    55   27   29 1    
    56   27  150 1    
    57   28  151 1    
    58   28  152 1    
    59   28  153 1    
    60   29   30 am   BACKBONE|DICT|INTERRES
    61   29  154 1    
    62   30   31 2    
    63   30   32 1    
    64   32   33 1    
    65   32   34 1    
    66   32  155 1    
    67   33  156 1    
    68   33  157 1    
    69   33  158 1    
    70   34   35 am   BACKBONE|DICT|INTERRES
    71   34  159 1    
    72   35   36 2    
    73   35   37 1    
    74   37   38 1    
    75   37   39 1    
    76   37  160 1    
    77   38  161 1    
    78   38  162 1    
    79   38  163 1    
    80   39   40 am   BACKBONE|DICT|INTERRES
    81   39  164 1    
    82   40   41 2    
    83   40   42 1    
    84   42   43 1    
    85   42   44 1    
    86   42  165 1    
    87   43  166 1    
    88   43  167 1    
    89   43  168 1    
    90   44   45 am   BACKBONE|DICT|INTERRES
    91   44  169 1    
    92   45   46 2    
    93   45   47 1    
    94   47   48 1    
    95   47   49 1    
    96   47  170 1    
    97   48  171 1    
    98   48  172 1    
    99   48  173 1    
   100   49   50 am   BACKBONE|DICT|INTERRES
   101   49  174 1    
   102   50   51 2    
   103   50   52 1    
   104   52   53 1    
   105   52   54 1    
   106   52  175 1    
   107   53  176 1    
   108   53  177 1    
   109   53  178 1    
   110   54   55 am   BACKBONE|DICT|INTERRES
   111   54  179 1    
   112   55   56 2    
   113   55   57 1    
   114   57   58 1    
   115   57   59 1    
   116   57  180 1    
   117   58  181 1    
   118   58  182 1    
   119   58  183 1    
   120   59   60 am   BACKBONE|DICT|INTERRES
   121   59  184 1    
   122   60   61 2    
   123   60   62 1    
   124   62   63 1    
   125   62   64 1    
   126   62  185 1    
   127   63  186 1    
   128   63  187 1    
   129   63  188 1    
   130   64   65 am   BACKBONE|DICT|INTERRES
   131   64  189 1    
   132   65   66 2    
   133   67   68 2    
   134   67   69 am   BACKBONE|DICT|INTERRES
   135   69   70 1    
   136   69  190 1    
   137   70   71 1    
   138   70   72 1    
   139   70  191 1    
   140   71  192 1    
   141   71  193 1    
   142   71  194 1    
   143   72   73 2    
   144   72   74 am   BACKBONE|DICT|INTERRES
   145   74   75 1    
   146   74  195 1    
   147   75   76 1    
   148   75   77 1    
   149   75  196 1    
   150   76  197 1    
   151   76  198 1    
   152   76  199 1    
   153   77   78 2    
   154   77   79 am   BACKBONE|DICT|INTERRES
   155   79   80 1    
   156   79  200 1    
   157   80   81 1    
   158   80   82 1    
   159   80  201 1    
   160   81  202 1    
   161   81  203 1    
   162   81  204 1    
   163   82   83 2    
   164   82   84 am   BACKBONE|DICT|INTERRES
   165   84   85 1    
   166   84  205 1    
   167   85   86 1    
   168   85   87 1    
   169   85  206 1    
   170   86  207 1    
   171   86  208 1    
   172   86  209 1    
   173   87   88 2    
   174   87   89 am   BACKBONE|DICT|INTERRES
   175   89   90 1    
   176   89  210 1    
   177   90   91 1    
   178   90   92 1    
   179   90  211 1    
   180   91  212 1    
   181   91  213 1    
   182   91  214 1    
   183   92   93 2    
   184   92   94 am   BACKBONE|DICT|INTERRES
   185   94   95 1    
   186   94  215 1    
   187   95   96 1    
   188   95   97 1    
   189   95  216 1    
   190   96  217 1    
   191   96  218 1    
   192   96  219 1    
   193   97   98 2    
   194   97   99 am   BACKBONE|DICT|INTERRES
   195   99  100 1    
   196   99  220 1    
   197  100  101 1    
   198  100  102 1    
   199  100  221 1    
   200  101  222 1    
   201  101  223 1    
   202  101  224 1    
   203  102  103 2    
   204  102  104 am   BACKBONE|DICT|INTERRES
   205  104  105 1    
   206  104  225 1    
   207  105  106 1    
   208  105  107 1    
   209  105  226 1    
   210  106  227 1    
   211  106  228 1    
   212  106  229 1    
   213  107  108 2    
   214  107  109 am   BACKBONE|DICT|INTERRES
   215  109  110 1    
   216  109  230 1    
   217  110  111 1    
   218  110  112 1    
   219  110  231 1    
   220  111  232 1    
   221  111  233 1    
   222  111  234 1    
   223  112  113 2    
   224  112  114 am   BACKBONE|DICT|INTERRES
   225  114  115 1    
   226  114  235 1    
   227  115  116 1    
   228  115  117 1    
   229  115  236 1    
   230  116  237 1    
   231  116  238 1    
   232  116  239 1    
   233  117  118 2    
   234  117  119 am   BACKBONE|DICT|INTERRES
   235  119  120 1    
   236  119  240 1    
   237  120  121 1    
   238  120  124 1    
   239  120  241 1    
   240  121  122 am   BACKBONE|DICT|INTERRES
   241  121  123 2    
   242  122  242 1    
   243  122  243 1    
   244  124  125 1    
   245  124  244 1    
   246  124  245 1    
   247  125  126 1    
   248  126  246 1    
   249  126  247 1    
@<TRIPOS>SUBSTRUCTURE
     1 UNK         1 GROUP             0       ****    0 ROOT    
