@<TRIPOS>MOLECULE
3R540
247   249    1
SMALL
USER_CHARGES


@<TRIPOS>ATOM
      1 CA         -0.8576  -11.2985  -53.2569 C.3       0 UNK        -0.1800 
      2 C          -1.4107  -11.9159  -51.9797 C.2       0 UNK         0.5000 
      3 O          -2.5183  -11.5711  -51.5699 O.2       0 UNK        -0.5000 
      4 N          -0.6431  -12.8298  -51.3711 N.am      1 UNK        -0.5000 
      5 CA         -0.9177  -13.5261  -50.1107 C.3       1 UNK         0.1400 
      6 C6         -2.2730  -14.2874  -50.0851 C.3       23 UNK        -0.0398 
      7 S7         -2.2781  -15.6680  -48.8851 S.3       23 UNK        -0.2404 
      8 C8         -2.1857  -17.1232  -49.9765 C.3       23 UNK        -0.0205 
      9 C9         -0.7685  -17.3923  -50.4621 C.ar      23 UNK        -0.0193 
     10 C10        -0.2429  -16.6824  -51.5447 C.ar      23 UNK        -0.1150 
     11 C11         1.0435  -16.9530  -52.0167 C.ar      23 UNK        -0.0193 
     12 C12         1.8030  -17.9570  -51.4090 C.ar      23 UNK        -0.1150 
     13 C13         1.2802  -18.6947  -50.3430 C.ar      23 UNK        -0.0193 
     14 C14         0.0023  -18.3922  -49.8629 C.ar      23 UNK        -0.1150 
     15 C15         2.0482  -19.8872  -49.7904 C.3       23 UNK        -0.0205 
     16 S16         2.3244  -19.8166  -47.9889 S.3       23 UNK        -0.2404 
     17 C17         2.6335  -21.5943  -47.6676 C.3       23 UNK        -0.0398 
     18 CA          1.4513  -22.4226  -47.0847 C.3       11 UNK         0.1400 
     19 N           1.4098  -22.3847  -45.6223 N.am      11 UNK        -0.5000 
     20 C           0.7538  -23.2651  -44.8521 C.2       10 UNK         0.5000 
     21 O           0.1041  -24.2066  -45.3084 O.2       10 UNK        -0.5000 
     22 CA          0.7845  -23.0362  -43.3272 C.3       10 UNK         0.1400 
     23 CB          0.8912  -24.3535  -42.5332 C.3       10 UNK        -0.1800 
     24 N           1.7949  -22.0679  -42.8908 N.am      10 UNK        -0.5000 
     25 C           3.1314  -22.1666  -42.9444 C.2       9 UNK         0.5000 
     26 O           3.7348  -23.1565  -43.3583 O.2       9 UNK        -0.5000 
     27 CA          3.9325  -20.9281  -42.4932 C.3       9 UNK         0.1400 
     28 CB          4.5006  -20.1968  -43.7204 C.3       9 UNK        -0.1800 
     29 N           3.1337  -19.9801  -41.7125 N.am      9 UNK        -0.5000 
     30 C           2.7370  -20.1668  -40.4465 C.2       8 UNK         0.5000 
     31 O           3.0813  -21.1260  -39.7554 O.2       8 UNK        -0.5000 
     32 CA          1.7505  -19.1301  -39.8764 C.3       8 UNK         0.1400 
     33 CB          2.4974  -17.8902  -39.3629 C.3       8 UNK        -0.1800 
     34 N           0.7248  -18.7281  -40.8454 N.am      8 UNK        -0.5000 
     35 C          -0.2215  -19.5469  -41.3308 C.2       7 UNK         0.5000 
     36 O          -0.3388  -20.7253  -40.9977 O.2       7 UNK        -0.5000 
     37 CA         -1.1787  -18.9744  -42.3895 C.3       7 UNK         0.1400 
     38 CB         -2.3161  -18.1898  -41.7204 C.3       7 UNK        -0.1800 
     39 N          -0.4861  -18.1247  -43.3562 N.am      7 UNK        -0.5000 
     40 C           0.3254  -18.5790  -44.3214 C.2       6 UNK         0.5000 
     41 O           0.4854  -19.7749  -44.5692 O.2       6 UNK        -0.5000 
     42 CA          1.1085  -17.5303  -45.1323 C.3       6 UNK         0.1400 
     43 CB          0.2996  -17.0570  -46.3463 C.3       6 UNK        -0.1800 
     44 N           1.5038  -16.3700  -44.3371 N.am      6 UNK        -0.5000 
     45 C           2.3668  -16.4000  -43.3142 C.2       5 UNK         0.5000 
     46 O           2.9275  -17.4216  -42.9218 O.2       5 UNK        -0.5000 
     47 CA          2.6101  -15.0716  -42.5813 C.3       5 UNK         0.1400 
     48 CB          3.6268  -14.2047  -43.3394 C.3       5 UNK        -0.1800 
     49 N           1.3690  -14.3224  -42.3939 N.am      5 UNK        -0.5000 
     50 C           0.4041  -14.6627  -41.5295 C.2       4 UNK         0.5000 
     51 O           0.4672  -15.6395  -40.7825 O.2       4 UNK        -0.5000 
     52 CA         -0.8603  -13.7834  -41.5335 C.3       4 UNK         0.1400 
     53 CB         -0.6212  -12.4790  -40.7583 C.3       4 UNK        -0.1800 
     54 N          -1.3268  -13.4697  -42.8859 N.am      4 UNK        -0.5000 
     55 C          -1.7924  -14.3857  -43.7454 C.2       3 UNK         0.5000 
     56 O          -1.8803  -15.5833  -43.4835 O.2       3 UNK        -0.5000 
     57 CA         -2.1970  -13.8983  -45.1463 C.3       3 UNK         0.1400 
     58 CB         -3.6274  -13.3400  -45.1327 C.3       3 UNK        -0.1800 
     59 N          -1.3028  -12.9160  -45.7655 N.am      3 UNK        -0.5000 
     60 C           0.0282  -13.0104  -45.8877 C.2       2 UNK         0.5000 
     61 O           0.7210  -13.8398  -45.2996 O.2       2 UNK        -0.5000 
     62 CA          0.6716  -12.0826  -46.9348 C.3       2 UNK         0.1400 
     63 CB          2.1893  -11.9289  -46.7301 C.3       2 UNK        -0.1800 
     64 N           0.4238  -12.6477  -48.2615 N.am      2 UNK        -0.5000 
     65 C          -0.7496  -12.5811  -48.9040 C.2       1 UNK         0.5000 
     66 O          -1.6724  -11.8438  -48.5492 O.2       1 UNK        -0.5000 
     67 C           0.0712  -22.0874  -47.6905 C.2       11 UNK         0.5000 
     68 O          -0.3022  -22.6736  -48.7062 O.2       11 UNK        -0.5000 
     69 N          -0.6724  -21.1860  -47.0273 N.am      12 UNK        -0.5000 
     70 CA         -2.0672  -20.8868  -47.3359 C.3       12 UNK         0.1400 
     71 CB         -2.5216  -19.6241  -46.5849 C.3       12 UNK        -0.1800 
     72 C          -2.9666  -22.0847  -47.0016 C.2       12 UNK         0.5000 
     73 O          -3.6463  -22.6040  -47.8878 O.2       12 UNK        -0.5000 
     74 N          -2.9060  -22.5130  -45.7323 N.am      13 UNK        -0.5000 
     75 CA         -3.7287  -23.5620  -45.1249 C.3       13 UNK         0.1400 
     76 CB         -3.3273  -23.7139  -43.6498 C.3       13 UNK        -0.1800 
     77 C          -3.6716  -24.9246  -45.8394 C.2       13 UNK         0.5000 
     78 O          -4.6685  -25.6475  -45.8299 O.2       13 UNK        -0.5000 
     79 N          -2.5326  -25.2271  -46.4789 N.am      14 UNK        -0.5000 
     80 CA         -2.2933  -26.4185  -47.2973 C.3       14 UNK         0.1400 
     81 CB         -0.8503  -26.3757  -47.8234 C.3       14 UNK        -0.1800 
     82 C          -3.2819  -26.6086  -48.4680 C.2       14 UNK         0.5000 
     83 O          -3.4913  -27.7460  -48.8924 O.2       14 UNK        -0.5000 
     84 N          -3.8845  -25.5155  -48.9541 N.am      15 UNK        -0.5000 
     85 CA         -4.9271  -25.5276  -49.9772 C.3       15 UNK         0.1400 
     86 CB         -4.3007  -25.5961  -51.3838 C.3       15 UNK        -0.1800 
     87 C          -5.8680  -24.3304  -49.7699 C.2       15 UNK         0.5000 
     88 O          -6.1148  -23.5697  -50.7091 O.2       15 UNK        -0.5000 
     89 N          -6.3405  -24.1688  -48.5237 N.am      16 UNK        -0.5000 
     90 CA         -7.2512  -23.1401  -47.9940 C.3       16 UNK         0.1400 
     91 CB         -8.6293  -23.2102  -48.6792 C.3       16 UNK        -0.1800 
     92 C          -6.6910  -21.7026  -48.0163 C.2       16 UNK         0.5000 
     93 O          -6.6578  -21.0440  -46.9764 O.2       16 UNK        -0.5000 
     94 N          -6.2449  -21.2581  -49.1921 N.am      17 UNK        -0.5000 
     95 CA         -5.5695  -19.9917  -49.4507 C.3       17 UNK         0.1400 
     96 CB         -6.6057  -18.8956  -49.7610 C.3       17 UNK        -0.1800 
     97 C          -4.5476  -20.1995  -50.5812 C.2       17 UNK         0.5000 
     98 O          -4.4866  -19.3995  -51.5152 O.2       17 UNK        -0.5000 
     99 N          -3.8000  -21.3123  -50.5048 N.am      18 UNK        -0.5000 
    100 CA        -2.8163  -21.7908  -51.4867 C.3       18 UNK         0.1400 
    101 CB        -1.5689  -20.8919  -51.4768 C.3       18 UNK        -0.1800 
    102 C         -3.4160  -21.9587  -52.9005 C.2       18 UNK         0.5000 
    103 O         -2.7944  -21.5728  -53.8956 O.2       18 UNK        -0.5000 
    104 N         -4.6587  -22.4651  -52.9466 N.am      19 UNK        -0.5000 
    105 CA        -5.5250  -22.6231  -54.1212 C.3       19 UNK         0.1400 
    106 CB        -4.9261  -23.6612  -55.0926 C.3       19 UNK        -0.1800 
    107 C         -5.8749  -21.2950  -54.8327 C.2       19 UNK         0.5000 
    108 O         -6.3408  -21.3266  -55.9725 O.2       19 UNK        -0.5000 
    109 N         -5.6209  -20.1563  -54.1650 N.am      20 UNK        -0.5000 
    110 CA        -5.6649  -18.7836  -54.6805 C.3       20 UNK         0.1400 
    111 CB        -7.1099  -18.3706  -55.0287 C.3       20 UNK        -0.1800 
    112 C         -4.6695  -18.5395  -55.8388 C.2       20 UNK         0.5000 
    113 O         -4.8871  -17.6390  -56.6516 O.2       20 UNK        -0.5000 
    114 N         -3.6028  -19.3491  -55.9004 N.am      21 UNK        -0.5000 
    115 CA        -2.6352  -19.3848  -56.9977 C.3       21 UNK         0.1400 
    116 CB        -2.9969  -20.5581  -57.9269 C.3       21 UNK        -0.1800 
    117 C         -1.1821  -19.4857  -56.4982 C.2       21 UNK         0.5000 
    118 O         -0.2851  -19.7100  -57.3127 O.2       21 UNK        -0.5000 
    119 N         -0.9689  -19.3272  -55.1841 N.am      22 UNK        -0.5000 
    120 CA         0.3285  -19.4693  -54.4967 C.3       22 UNK         0.1400 
    121 C          0.8892  -20.9261  -54.5126 C.2       22 UNK         0.5000 
    122 N          0.0448  -21.9475  -54.6036 N.am      22 UNK        -0.7600 
    123 O          2.0950  -21.1424  -54.4238 O.2       22 UNK        -0.5000 
    124 C124        1.3856  -18.4126  -54.9368 C.3       23 UNK        -0.0398 
    125 S125        0.8018  -16.6893  -54.7665 S.3       23 UNK        -0.2404 
    126 C126        1.5934  -16.1812  -53.2063 C.3       23 UNK        -0.0205 
    127 H127       -1.5362  -11.4869  -54.0889 H         1 UNK         0.0600 
    128 H128       -0.7541  -10.2200  -53.1377 H         1 UNK         0.0600 
    129 H129        0.1192  -11.7072  -53.5170 H         1 UNK         0.0600 
    130 H130        0.2601  -13.0336  -51.7750 H         1 UNK         0.3000 
    131 H131       -0.1291  -14.2770  -50.0425 H         1 UNK         0.0600 
    132 H132       -2.5029  -14.6793  -51.0755 H         1 UNK         0.0800 
    133 H133       -3.1022  -13.6184  -49.8492 H         1 UNK         0.0800 
    134 H134       -2.8594  -17.0043  -50.8266 H         1 UNK         0.0800 
    135 H135       -2.5571  -17.9882  -49.4259 H         1 UNK         0.0800 
    136 H136       -0.8376  -15.9277  -52.0375 H         1 UNK         0.1150 
    137 H137        2.7858  -18.1910  -51.7933 H         1 UNK         0.1150 
    138 H138       -0.4080  -18.9708  -49.0485 H         1 UNK         0.1150 
    139 H139        1.4805  -20.7844  -50.0406 H         1 UNK         0.0800 
    140 H140        3.0149  -19.9901  -50.2857 H         1 UNK         0.0800 
    141 H141        3.4995  -21.6701  -47.0084 H         1 UNK         0.0800 
    142 H142        2.9593  -22.0580  -48.5998 H         1 UNK         0.0800 
    143 H143        1.6496  -23.4637  -47.3505 H         1 UNK         0.0600 
    144 H144        1.8263  -21.5806  -45.1737 H         1 UNK         0.3000 
    145 H145       -0.1775  -22.5854  -43.0810 H         1 UNK         0.0600 
    146 H146        0.8954  -24.1656  -41.4595 H         1 UNK         0.0600 
    147 H147        0.0439  -25.0073  -42.7432 H         1 UNK         0.0600 
    148 H148        1.7970  -24.9064  -42.7825 H         1 UNK         0.0600 
    149 H149        1.4173  -21.2002  -42.5357 H         1 UNK         0.3000 
    150 H150        4.7653  -21.2745  -41.8781 H         1 UNK         0.0600 
    151 H151        5.1321  -20.8578  -44.3153 H         1 UNK         0.0600 
    152 H152        5.1119  -19.3446  -43.4230 H         1 UNK         0.0600 
    153 H153        3.7066  -19.8268  -44.3708 H         1 UNK         0.0600 
    154 H154        2.8719  -19.1155  -42.1825 H         1 UNK         0.3000 
    155 H155        1.2423  -19.5914  -39.0270 H         1 UNK         0.0600 
    156 H156        3.0057  -17.3618  -40.1693 H         1 UNK         0.0600 
    157 H157        3.2516  -18.1664  -38.6250 H         1 UNK         0.0600 
    158 H158        1.8143  -17.1900  -38.8818 H         1 UNK         0.0600 
    159 H159        0.7352  -17.7583  -41.1393 H         1 UNK         0.3000 
    160 H160       -1.6226  -19.8152  -42.9268 H         1 UNK         0.0600 
    161 H161       -3.0517  -17.8626  -42.4552 H         1 UNK         0.0600 
    162 H162       -1.9444  -17.3052  -41.2014 H         1 UNK         0.0600 
    163 H163       -2.8403  -18.8060  -40.9889 H         1 UNK         0.0600 
    164 H164       -0.6454  -17.1253  -43.2759 H         1 UNK         0.3000 
    165 H165        2.0206  -18.0077  -45.4952 H         1 UNK         0.0600 
    166 H166        0.8475  -16.3137  -46.9258 H         1 UNK         0.0600 
    167 H167        0.0908  -17.8910  -47.0134 H         1 UNK         0.0600 
    168 H168       -0.6538  -16.6183  -46.0521 H         1 UNK         0.0600 
    169 H169        1.1162  -15.4702  -44.6150 H         1 UNK         0.3000 
    170 H170        3.0269  -15.3005  -41.5984 H         1 UNK         0.0600 
    171 H171        4.5714  -14.7350  -43.4664 H         1 UNK         0.0600 
    172 H172        3.2681  -13.9326  -44.3327 H         1 UNK         0.0600 
    173 H173        3.8413  -13.2838  -42.7970 H         1 UNK         0.0600 
    174 H174        1.1941  -13.5687  -43.0441 H         1 UNK         0.3000 
    175 H175       -1.6507  -14.3399  -41.0250 H         1 UNK         0.0600 
    176 H176       -1.5369  -11.8924  -40.6824 H         1 UNK         0.0600 
    177 H177       -0.2839  -12.6860  -39.7417 H         1 UNK         0.0600 
    178 H178        0.1373  -11.8575  -41.2359 H         1 UNK         0.0600 
    179 H179       -1.2702  -12.5075  -43.1857 H         1 UNK         0.3000 
    180 H180       -2.1920  -14.7734  -45.7984 H         1 UNK         0.0600 
    181 H181       -3.6945  -12.4199  -44.5510 H         1 UNK         0.0600 
    182 H182       -4.3242  -14.0574  -44.6967 H         1 UNK         0.0600 
    183 H183       -3.9755  -13.1254  -46.1434 H         1 UNK         0.0600 
    184 H184       -1.7599  -12.2273  -46.3502 H         1 UNK         0.3000 
    185 H185        0.2140  -11.0941  -46.8568 H         1 UNK         0.0600 
    186 H186        2.7124  -12.8812  -46.8282 H         1 UNK         0.0600 
    187 H187        2.6155  -11.2376  -47.4572 H         1 UNK         0.0600 
    188 H188        2.4100  -11.5343  -45.7375 H         1 UNK         0.0600 
    189 H189        1.1310  -13.2812  -48.6053 H         1 UNK         0.3000 
    190 H190       -0.2726  -20.7486  -46.2034 H         1 UNK         0.3000 
    191 H191       -2.1530  -20.6890  -48.4034 H         1 UNK         0.0600 
    192 H192       -2.0371  -18.7341  -46.9820 H         1 UNK         0.0600 
    193 H193       -2.3018  -19.6796  -45.5186 H         1 UNK         0.0600 
    194 H194       -3.5964  -19.4700  -46.6843 H         1 UNK         0.0600 
    195 H195       -2.2799  -22.0308  -45.1067 H         1 UNK         0.3000 
    196 H196       -4.7648  -23.2194  -45.1658 H         1 UNK         0.0600 
    197 H197       -3.9540  -24.4529  -43.1488 H         1 UNK         0.0600 
    198 H198       -3.4396  -22.7744  -43.1081 H         1 UNK         0.0600 
    199 H199       -2.2919  -24.0406  -43.5479 H         1 UNK         0.0600 
    200 H200       -1.7477  -24.5948  -46.3746 H         1 UNK         0.3000 
    201 H201       -2.3949  -27.2873  -46.6442 H         1 UNK         0.0600 
    202 H202       -0.1313  -26.3648  -47.0042 H         1 UNK         0.0600 
    203 H203       -0.6741  -25.4907  -48.4363 H         1 UNK         0.0600 
    204 H204       -0.6285  -27.2505  -48.4360 H         1 UNK         0.0600 
    205 H205       -3.6743  -24.6120  -48.5405 H         1 UNK         0.3000 
    206 H206       -5.5490  -26.4153  -49.8443 H         1 UNK         0.0600 
    207 H207       -3.7561  -26.5295  -51.5253 H         1 UNK         0.0600 
    208 H208       -5.0647  -25.5502  -52.1607 H         1 UNK         0.0600 
    209 H209       -3.6023  -24.7796  -51.5543 H         1 UNK         0.0600 
    210 H210       -6.0183  -24.8317  -47.8306 H         1 UNK         0.3000 
    211 H211       -7.3989  -23.3968  -46.9438 H         1 UNK         0.0600 
    212 H212       -8.5719  -22.9761  -49.7425 H         1 UNK         0.0600 
    213 H213       -9.3242  -22.5011  -48.2276 H         1 UNK         0.0600 
    214 H214       -9.0678  -24.2030  -48.5788 H         1 UNK         0.0600 
    215 H215       -6.2766  -21.9169  -49.9673 H         1 UNK         0.3000 
    216 H216       -5.0035  -19.6949  -48.5670 H         1 UNK         0.0600 
    217 H217       -6.1197  -17.9343  -49.9326 H         1 UNK         0.0600 
    218 H218       -7.3007  -18.7635  -48.9317 H         1 UNK         0.0600 
    219 H219       -7.1877  -19.1362  -50.6515 H         1 UNK         0.0600 
    220 H220       -3.9179  -21.9005  -49.6842 H         1 UNK         0.3000 
    221 H221       -2.5040  -22.7812  -51.1552 H         1 UNK         0.0600 
    222 H222       -1.7816  -19.8908  -51.8526 H         1 UNK         0.0600 
    223 H223       -1.1664  -20.8002  -50.4715 H         1 UNK         0.0600 
    224 H224       -0.7756  -21.3190  -52.0865 H         1 UNK         0.0600 
    225 H225       -5.0904  -22.7484  -52.0706 H         1 UNK         0.3000 
    226 H226       -6.4681  -23.0235  -53.7467 H         1 UNK         0.0600 
    227 H227       -4.6818  -24.5896  -54.5766 H         1 UNK         0.0600 
    228 H228       -5.6319  -23.9096  -55.8859 H         1 UNK         0.0600 
    229 H229       -4.0172  -23.2930  -55.5693 H         1 UNK         0.0600 
    230 H230       -5.2315  -20.2315  -53.2313 H         1 UNK         0.3000 
    231 H231       -5.3309  -18.1451  -53.8616 H         1 UNK         0.0600 
    232 H232       -7.7848  -18.5580  -54.1936 H         1 UNK         0.0600 
    233 H233       -7.4895  -18.9111  -55.8960 H         1 UNK         0.0600 
    234 H234       -7.1678  -17.3059  -55.2576 H         1 UNK         0.0600 
    235 H235       -3.5018  -20.0759  -55.1993 H         1 UNK         0.3000 
    236 H236       -2.6878  -18.4598  -57.5750 H         1 UNK         0.0600 
    237 H237       -2.3338  -20.5996  -58.7917 H         1 UNK         0.0600 
    238 H238       -2.9239  -21.5142  -57.4070 H         1 UNK         0.0600 
    239 H239       -4.0149  -20.4615  -58.3052 H         1 UNK         0.0600 
    240 H240       -1.7633  -19.1462  -54.5895 H         1 UNK         0.3000 
    241 H241        0.1149  -19.2796  -53.4454 H         1 UNK         0.0600 
    242 H242        0.4042  -22.8881  -54.6167 H         1 UNK         0.3800 
    243 H243       -0.9576  -21.7886  -54.5978 H         1 UNK         0.3800 
    244 H244        2.3028  -18.5260  -54.3574 H         1 UNK         0.0800 
    245 H245        1.6755  -18.5722  -55.9758 H         1 UNK         0.0800 
    246 H246        1.4193  -15.1153  -53.0541 H         1 UNK         0.0800 
    247 H247        2.6745  -16.3048  -53.2869 H         1 UNK         0.0800 
@<TRIPOS>BOND
     1    1    2 1    
     2    1  127 1    
     3    1  128 1    
     4    1  129 1    
     5    2    3 2    
     6    2    4 am   BACKBONE|DICT|INTERRES
     7    4    5 1    
     8    4  130 1    
     9    5    6 1    
    10    5   65 1    
    11    5  131 1    
    12    6    7 1    
    13    6  132 1    
    14    6  133 1    
    15    7    8 1    
    16    8    9 1    
    17    8  134 1    
    18    8  135 1    
    19    9   10 ar   
    20    9   14 ar   
    21   10   11 ar   
    22   10  136 1    
    23   11   12 ar   
    24   11  126 1    
    25   12   13 ar   
    26   12  137 1    
    27   13   14 ar   
    28   13   15 1    
    29   14  138 1    
    30   15   16 1    
    31   15  139 1    
    32   15  140 1    
    33   16   17 1    
    34   17   18 1    
    35   17  141 1    
    36   17  142 1    
    37   18   19 1    
    38   18   67 1    
    39   18  143 1    
    40   19   20 am   BACKBONE|DICT|INTERRES
    41   19  144 1    
    42   20   21 2    
    43   20   22 1    
    44   22   23 1    
    45   22   24 1    
    46   22  145 1    
    47   23  146 1    
    48   23  147 1    
    49   23  148 1    
    50   24   25 am   BACKBONE|DICT|INTERRES
    51   24  149 1    
    52   25   26 2    
    53   25   27 1    
    54   27   28 1    
    55   27   29 1    
    56   27  150 1    
    57   28  151 1    
    58   28  152 1    
    59   28  153 1    
    60   29   30 am   BACKBONE|DICT|INTERRES
    61   29  154 1    
    62   30   31 2    
    63   30   32 1    
    64   32   33 1    
    65   32   34 1    
    66   32  155 1    
    67   33  156 1    
    68   33  157 1    
    69   33  158 1    
    70   34   35 am   BACKBONE|DICT|INTERRES
    71   34  159 1    
    72   35   36 2    
    73   35   37 1    
    74   37   38 1    
    75   37   39 1    
    76   37  160 1    
    77   38  161 1    
    78   38  162 1    
    79   38  163 1    
    80   39   40 am   BACKBONE|DICT|INTERRES
    81   39  164 1    
    82   40   41 2    
    83   40   42 1    
    84   42   43 1    
    85   42   44 1    
    86   42  165 1    
    87   43  166 1    
    88   43  167 1    
    89   43  168 1    
    90   44   45 am   BACKBONE|DICT|INTERRES
    91   44  169 1    
    92   45   46 2    
    93   45   47 1    
    94   47   48 1    
    95   47   49 1    
    96   47  170 1    
    97   48  171 1    
    98   48  172 1    
    99   48  173 1    
   100   49   50 am   BACKBONE|DICT|INTERRES
   101   49  174 1    
   102   50   51 2    
   103   50   52 1    
   104   52   53 1    
   105   52   54 1    
   106   52  175 1    
   107   53  176 1    
   108   53  177 1    
   109   53  178 1    
   110   54   55 am   BACKBONE|DICT|INTERRES
   111   54  179 1    
   112   55   56 2    
   113   55   57 1    
   114   57   58 1    
   115   57   59 1    
   116   57  180 1    
   117   58  181 1    
   118   58  182 1    
   119   58  183 1    
   120   59   60 am   BACKBONE|DICT|INTERRES
   121   59  184 1    
   122   60   61 2    
   123   60   62 1    
   124   62   63 1    
   125   62   64 1    
   126   62  185 1    
   127   63  186 1    
   128   63  187 1    
   129   63  188 1    
   130   64   65 am   BACKBONE|DICT|INTERRES
   131   64  189 1    
   132   65   66 2    
   133   67   68 2    
   134   67   69 am   BACKBONE|DICT|INTERRES
   135   69   70 1    
   136   69  190 1    
   137   70   71 1    
   138   70   72 1    
   139   70  191 1    
   140   71  192 1    
   141   71  193 1    
   142   71  194 1    
   143   72   73 2    
   144   72   74 am   BACKBONE|DICT|INTERRES
   145   74   75 1    
   146   74  195 1    
   147   75   76 1    
   148   75   77 1    
   149   75  196 1    
   150   76  197 1    
   151   76  198 1    
   152   76  199 1    
   153   77   78 2    
   154   77   79 am   BACKBONE|DICT|INTERRES
   155   79   80 1    
   156   79  200 1    
   157   80   81 1    
   158   80   82 1    
   159   80  201 1    
   160   81  202 1    
   161   81  203 1    
   162   81  204 1    
   163   82   83 2    
   164   82   84 am   BACKBONE|DICT|INTERRES
   165   84   85 1    
   166   84  205 1    
   167   85   86 1    
   168   85   87 1    
   169   85  206 1    
   170   86  207 1    
   171   86  208 1    
   172   86  209 1    
   173   87   88 2    
   174   87   89 am   BACKBONE|DICT|INTERRES
   175   89   90 1    
   176   89  210 1    
   177   90   91 1    
   178   90   92 1    
   179   90  211 1    
   180   91  212 1    
   181   91  213 1    
   182   91  214 1    
   183   92   93 2    
   184   92   94 am   BACKBONE|DICT|INTERRES
   185   94   95 1    
   186   94  215 1    
   187   95   96 1    
   188   95   97 1    
   189   95  216 1    
   190   96  217 1    
   191   96  218 1    
   192   96  219 1    
   193   97   98 2    
   194   97   99 am   BACKBONE|DICT|INTERRES
   195   99  100 1    
   196   99  220 1    
   197  100  101 1    
   198  100  102 1    
   199  100  221 1    
   200  101  222 1    
   201  101  223 1    
   202  101  224 1    
   203  102  103 2    
   204  102  104 am   BACKBONE|DICT|INTERRES
   205  104  105 1    
   206  104  225 1    
   207  105  106 1    
   208  105  107 1    
   209  105  226 1    
   210  106  227 1    
   211  106  228 1    
   212  106  229 1    
   213  107  108 2    
   214  107  109 am   BACKBONE|DICT|INTERRES
   215  109  110 1    
   216  109  230 1    
   217  110  111 1    
   218  110  112 1    
   219  110  231 1    
   220  111  232 1    
   221  111  233 1    
   222  111  234 1    
   223  112  113 2    
   224  112  114 am   BACKBONE|DICT|INTERRES
   225  114  115 1    
   226  114  235 1    
   227  115  116 1    
   228  115  117 1    
   229  115  236 1    
   230  116  237 1    
   231  116  238 1    
   232  116  239 1    
   233  117  118 2    
   234  117  119 am   BACKBONE|DICT|INTERRES
   235  119  120 1    
   236  119  240 1    
   237  120  121 1    
   238  120  124 1    
   239  120  241 1    
   240  121  122 am   BACKBONE|DICT|INTERRES
   241  121  123 2    
   242  122  242 1    
   243  122  243 1    
   244  124  125 1    
   245  124  244 1    
   246  124  245 1    
   247  125  126 1    
   248  126  246 1    
   249  126  247 1    
@<TRIPOS>SUBSTRUCTURE
     1 UNK         1 GROUP             0       ****    0 ROOT    
