@<TRIPOS>MOLECULE
3R540
247   249    1
SMALL
USER_CHARGES


@<TRIPOS>ATOM
      1 CA         -2.3482  -10.0595  -46.5969 C.3       0 UNK        -0.1800 
      2 C          -2.1318  -10.4640  -48.0485 C.2       0 UNK         0.5000 
      3 O          -1.5830   -9.6848  -48.8274 O.2       0 UNK        -0.5000 
      4 N          -2.5572  -11.6817  -48.4101 N.am      1 UNK        -0.5000 
      5 CA         -2.3839  -12.2862  -49.7397 C.3       1 UNK         0.1400 
      6 C6         -3.2534  -13.5633  -49.8611 C.3       23 UNK        -0.0398 
      7 S7         -3.5624  -14.0832  -51.5793 S.3       23 UNK        -0.2404 
      8 C8         -4.2046  -15.7733  -51.3310 C.3       23 UNK        -0.0205 
      9 C9         -3.1891  -16.7166  -50.6960 C.ar      23 UNK        -0.0193 
     10 C10        -1.9390  -16.9104  -51.2908 C.ar      23 UNK        -0.1150 
     11 C11        -1.0056  -17.7922  -50.7325 C.ar      23 UNK        -0.0193 
     12 C12        -1.3460  -18.4875  -49.5680 C.ar      23 UNK        -0.1150 
     13 C13        -2.5892  -18.3020  -48.9576 C.ar      23 UNK        -0.0193 
     14 C14        -3.5078  -17.4156  -49.5272 C.ar      23 UNK        -0.1150 
     15 C15        -2.9171  -19.0297  -47.6626 C.3       23 UNK        -0.0205 
     16 S16        -3.7986  -20.5847  -47.9792 S.3       23 UNK        -0.2404 
     17 C17        -3.7390  -21.3824  -46.3385 C.3       23 UNK        -0.0398 
     18 CA         -2.6398  -22.4692  -46.3049 C.3       11 UNK         0.1400 
     19 N          -1.2974  -21.9001  -46.1845 N.am      11 UNK        -0.5000 
     20 C          -0.1779  -22.5523  -46.5169 C.2       10 UNK         0.5000 
     21 O          -0.1550  -23.7134  -46.9245 O.2       10 UNK        -0.5000 
     22 CA          1.1352  -21.7799  -46.3246 C.3       10 UNK         0.1400 
     23 CB          1.2752  -20.6757  -47.3836 C.3       10 UNK        -0.1800 
     24 N           1.2545  -21.2110  -44.9801 N.am      10 UNK        -0.5000 
     25 C           1.3538  -21.9545  -43.8680 C.2       9 UNK         0.5000 
     26 O           1.3398  -23.1855  -43.8632 O.2       9 UNK        -0.5000 
     27 CA          1.4618  -21.2070  -42.5282 C.3       9 UNK         0.1400 
     28 CB          2.9152  -20.7828  -42.2682 C.3       9 UNK        -0.1800 
     29 N           0.6010  -20.0320  -42.4092 N.am      9 UNK        -0.5000 
     30 C          -0.7237  -19.9785  -42.5947 C.2       8 UNK         0.5000 
     31 O          -1.3915  -20.9236  -43.0144 O.2       8 UNK        -0.5000 
     32 CA         -1.4349  -18.6445  -42.2938 C.3       8 UNK         0.1400 
     33 CB         -2.5029  -18.8117  -41.1958 C.3       8 UNK        -0.1800 
     34 N          -0.5477  -17.5082  -42.0041 N.am      8 UNK        -0.5000 
     35 C           0.2429  -17.2823  -40.9437 C.2       7 UNK         0.5000 
     36 O           0.3551  -18.0577  -39.9949 O.2       7 UNK        -0.5000 
     37 CA          1.0920  -15.9922  -40.9656 C.3       7 UNK         0.1400 
     38 CB          2.5738  -16.3396  -41.1786 C.3       7 UNK        -0.1800 
     39 N           0.6791  -15.0466  -42.0065 N.am      7 UNK        -0.5000 
     40 C          -0.4033  -14.2582  -41.9377 C.2       6 UNK         0.5000 
     41 O          -1.1167  -14.1591  -40.9392 O.2       6 UNK        -0.5000 
     42 CA         -0.7852  -13.5060  -43.2268 C.3       6 UNK         0.1400 
     43 CB          0.0271  -12.2107  -43.3754 C.3       6 UNK        -0.1800 
     44 N          -0.6023  -14.3315  -44.4220 N.am      6 UNK        -0.5000 
     45 C          -1.2941  -15.4457  -44.7026 C.2       5 UNK         0.5000 
     46 O          -2.2158  -15.8704  -44.0094 O.2       5 UNK        -0.5000 
     47 CA         -0.8503  -16.2457  -45.9359 C.3       5 UNK         0.1400 
     48 CB         -1.4536  -15.6298  -47.2042 C.3       5 UNK        -0.1800 
     49 N           0.6095  -16.2732  -46.0328 N.am      5 UNK        -0.5000 
     50 C           1.3931  -17.1849  -45.4375 C.2       4 UNK         0.5000 
     51 O           0.9588  -18.1826  -44.8618 O.2       4 UNK        -0.5000 
     52 CA          2.9184  -16.9556  -45.4767 C.3       4 UNK         0.1400 
     53 CB          3.6058  -17.9891  -46.3775 C.3       4 UNK        -0.1800 
     54 N           3.2958  -15.6136  -45.9215 N.am      4 UNK        -0.5000 
     55 C           3.2214  -14.5125  -45.1622 C.2       3 UNK         0.5000 
     56 O           2.8263  -14.5125  -43.9963 O.2       3 UNK        -0.5000 
     57 CA          3.5680  -13.1829  -45.8620 C.3       3 UNK         0.1400 
     58 CB          5.0879  -12.9650  -45.8954 C.3       3 UNK        -0.1800 
     59 N           3.0278  -13.1025  -47.2264 N.am      3 UNK        -0.5000 
     60 C           1.7205  -13.1579  -47.5090 C.2       2 UNK         0.5000 
     61 O           0.8510  -13.2691  -46.6388 O.2       2 UNK        -0.5000 
     62 CA          1.3077  -13.1483  -48.9888 C.3       2 UNK         0.1400 
     63 CB          1.6114  -14.5069  -49.6503 C.3       2 UNK        -0.1800 
     64 N          -0.1237  -12.8826  -49.0155 N.am      2 UNK        -0.5000 
     65 C          -0.8934  -12.5653  -50.0608 C.2       1 UNK         0.5000 
     66 O          -0.4728  -12.4520  -51.2124 O.2       1 UNK        -0.5000 
     67 C          -2.9098  -23.5428  -45.2352 C.2       11 UNK         0.5000 
     68 O          -3.6315  -24.4943  -45.5307 O.2       11 UNK        -0.5000 
     69 N          -2.3035  -23.4189  -44.0465 N.am      12 UNK        -0.5000 
     70 CA         -2.3436  -24.4382  -42.9975 C.3       12 UNK         0.1400 
     71 CB         -1.7323  -23.8790  -41.7039 C.3       12 UNK        -0.1800 
     72 C          -1.6375  -25.7407  -43.4178 C.2       12 UNK         0.5000 
     73 O          -2.1794  -26.8223  -43.1886 O.2       12 UNK        -0.5000 
     74 N          -0.4593  -25.6154  -44.0457 N.am      13 UNK        -0.5000 
     75 CA          0.3237  -26.7415  -44.5542 C.3       13 UNK         0.1400 
     76 CB          1.7522  -26.2727  -44.8703 C.3       13 UNK        -0.1800 
     77 C          -0.3146  -27.3999  -45.7899 C.2       13 UNK         0.5000 
     78 O          -0.3716  -28.6280  -45.8631 O.2       13 UNK        -0.5000 
     79 N          -0.7777  -26.5755  -46.7387 N.am      14 UNK        -0.5000 
     80 CA         -1.3316  -27.0216  -48.0187 C.3       14 UNK         0.1400 
     81 CB         -1.1721  -25.8863  -49.0391 C.3       14 UNK        -0.1800 
     82 C          -2.8050  -27.4652  -47.9510 C.2       14 UNK         0.5000 
     83 O          -3.3022  -28.0070  -48.9375 O.2       14 UNK        -0.5000 
     84 N          -3.4881  -27.1963  -46.8284 N.am      15 UNK        -0.5000 
     85 CA         -4.9293  -27.3760  -46.6098 C.3       15 UNK         0.1400 
     86 CB         -5.3222  -28.8679  -46.6433 C.3       15 UNK        -0.1800 
     87 C          -5.7524  -26.4984  -47.5770 C.2       15 UNK         0.5000 
     88 O          -6.6002  -26.9966  -48.3185 O.2       15 UNK        -0.5000 
     89 N          -5.4258  -25.1987  -47.5689 N.am      16 UNK        -0.5000 
     90 CA         -5.9711  -24.0941  -48.3695 C.3       16 UNK         0.1400 
     91 CB         -7.4935  -23.9554  -48.1746 C.3       16 UNK        -0.1800 
     92 C          -5.5863  -24.1052  -49.8638 C.2       16 UNK         0.5000 
     93 O          -5.8610  -23.1234  -50.5544 O.2       16 UNK        -0.5000 
     94 N          -4.9234  -25.1665  -50.3456 N.am      17 UNK        -0.5000 
     95 CA         -4.5245  -25.3337  -51.7481 C.3       17 UNK         0.1400 
     96 CB         -4.1115  -26.7939  -51.9857 C.3       17 UNK        -0.1800 
     97 C          -3.4133  -24.3691  -52.2133 C.2       17 UNK         0.5000 
     98 O          -3.1980  -24.2381  -53.4186 O.2       17 UNK        -0.5000 
     99 N          -2.7357  -23.7055  -51.2651 N.am      18 UNK        -0.5000 
    100 CA        -1.7116  -22.6924  -51.5238 C.3       18 UNK         0.1400 
    101 CB        -0.9509  -22.3840  -50.2247 C.3       18 UNK        -0.1800 
    102 C         -2.2705  -21.3901  -52.1250 C.2       18 UNK         0.5000 
    103 O         -1.5180  -20.6720  -52.7817 O.2       18 UNK        -0.5000 
    104 N         -3.5635  -21.1059  -51.9086 N.am      19 UNK        -0.5000 
    105 CA        -4.2506  -19.8799  -52.3221 C.3       19 UNK         0.1400 
    106 CB        -5.5211  -19.7122  -51.4694 C.3       19 UNK        -0.1800 
    107 C         -4.5387  -19.8040  -53.8385 C.2       19 UNK         0.5000 
    108 O         -5.6799  -19.5721  -54.2421 O.2       19 UNK        -0.5000 
    109 N         -3.5002  -20.0053  -54.6573 N.am      20 UNK        -0.5000 
    110 CA        -3.5458  -19.9126  -56.1147 C.3       20 UNK         0.1400 
    111 CB        -2.3085  -20.6051  -56.7079 C.3       20 UNK        -0.1800 
    112 C         -3.6459  -18.4514  -56.5854 C.2       20 UNK         0.5000 
    113 O         -4.5357  -18.1266  -57.3722 O.2       20 UNK        -0.5000 
    114 N         -2.7471  -17.6044  -56.0668 N.am      21 UNK        -0.5000 
    115 CA        -2.6718  -16.1608  -56.2944 C.3       21 UNK         0.1400 
    116 CB        -2.4776  -15.8094  -57.7860 C.3       21 UNK        -0.1800 
    117 C         -1.5201  -15.5893  -55.4590 C.2       21 UNK         0.5000 
    118 O         -1.7390  -14.6847  -54.6559 O.2       21 UNK        -0.5000 
    119 N         -0.3201  -16.1528  -55.6591 N.am      22 UNK        -0.5000 
    120 CA         0.9350  -15.8242  -54.9533 C.3       22 UNK         0.1400 
    121 C          1.4977  -14.3937  -55.2241 C.2       22 UNK         0.5000 
    122 N          1.0476  -13.6893  -56.2554 N.am      22 UNK        -0.7600 
    123 O          2.3864  -13.9262  -54.5171 O.2       22 UNK        -0.5000 
    124 C124        0.8918  -16.1712  -53.4384 C.3       23 UNK        -0.0398 
    125 S125        0.4590  -17.9224  -53.1511 S.3       23 UNK        -0.2404 
    126 C126        0.3866  -17.9933  -51.3301 C.3       23 UNK        -0.0205 
    127 H127       -2.8304  -10.8505  -46.0218 H         1 UNK         0.0600 
    128 H128       -1.3918   -9.8338  -46.1249 H         1 UNK         0.0600 
    129 H129       -2.9749   -9.1692  -46.5440 H         1 UNK         0.0600 
    130 H130       -3.0206  -12.2582  -47.7226 H         1 UNK         0.3000 
    131 H131       -2.7432  -11.5576  -50.4697 H         1 UNK         0.0600 
    132 H132       -4.2314  -13.3931  -49.4086 H         1 UNK         0.0800 
    133 H133       -2.8053  -14.3864  -49.3057 H         1 UNK         0.0800 
    134 H134       -4.4985  -16.1809  -52.2991 H         1 UNK         0.0800 
    135 H135       -5.1143  -15.7203  -50.7309 H         1 UNK         0.0800 
    136 H136       -1.7066  -16.3662  -52.1930 H         1 UNK         0.1150 
    137 H137       -0.6339  -19.1676  -49.1249 H         1 UNK         0.1150 
    138 H138       -4.4713  -17.2737  -49.0584 H         1 UNK         0.1150 
    139 H139       -1.9970  -19.2382  -47.1161 H         1 UNK         0.0800 
    140 H140       -3.5242  -18.3930  -47.0173 H         1 UNK         0.0800 
    141 H141       -4.7253  -21.8135  -46.1589 H         1 UNK         0.0800 
    142 H142       -3.5886  -20.6411  -45.5517 H         1 UNK         0.0800 
    143 H143       -2.6804  -23.0045  -47.2568 H         1 UNK         0.0600 
    144 H144       -1.2220  -20.9771  -45.7849 H         1 UNK         0.3000 
    145 H145        1.9526  -22.4898  -46.4686 H         1 UNK         0.0600 
    146 H146        2.2992  -20.3120  -47.4327 H         1 UNK         0.0600 
    147 H147        1.0305  -21.0499  -48.3778 H         1 UNK         0.0600 
    148 H148        0.6213  -19.8280  -47.1780 H         1 UNK         0.0600 
    149 H149        1.2228  -20.1999  -44.8918 H         1 UNK         0.3000 
    150 H150        1.1643  -21.9027  -41.7416 H         1 UNK         0.0600 
    151 H151        3.2538  -20.0435  -42.9956 H         1 UNK         0.0600 
    152 H152        3.5899  -21.6379  -42.3291 H         1 UNK         0.0600 
    153 H153        3.0286  -20.3509  -41.2736 H         1 UNK         0.0600 
    154 H154        1.0462  -19.1872  -42.0864 H         1 UNK         0.3000 
    155 H155       -1.9561  -18.3845  -43.2154 H         1 UNK         0.0600 
    156 H156       -2.0677  -19.1310  -40.2487 H         1 UNK         0.0600 
    157 H157       -3.2416  -19.5616  -41.4813 H         1 UNK         0.0600 
    158 H158       -3.0390  -17.8784  -41.0235 H         1 UNK         0.0600 
    159 H159       -0.5608  -16.7899  -42.7141 H         1 UNK         0.3000 
    160 H160        0.9883  -15.5107  -39.9911 H         1 UNK         0.0600 
    161 H161        2.7339  -16.8491  -42.1290 H         1 UNK         0.0600 
    162 H162        2.9414  -16.9955  -40.3884 H         1 UNK         0.0600 
    163 H163        3.1944  -15.4433  -41.1711 H         1 UNK         0.0600 
    164 H164        1.2641  -14.9982  -42.8353 H         1 UNK         0.3000 
    165 H165       -1.8423  -13.2407  -43.1595 H         1 UNK         0.0600 
    166 H166       -0.2810  -11.6526  -44.2598 H         1 UNK         0.0600 
    167 H167       -0.1151  -11.5595  -42.5122 H         1 UNK         0.0600 
    168 H168        1.0951  -12.4117  -43.4639 H         1 UNK         0.0600 
    169 H169        0.0943  -14.0096  -45.0879 H         1 UNK         0.3000 
    170 H170       -1.2252  -17.2665  -45.8413 H         1 UNK         0.0600 
    171 H171       -1.3208  -14.5509  -47.2369 H         1 UNK         0.0600 
    172 H172       -2.5268  -15.8172  -47.2436 H         1 UNK         0.0600 
    173 H173       -1.0109  -16.0492  -48.1064 H         1 UNK         0.0600 
    174 H174        1.0453  -15.4676  -46.4577 H         1 UNK         0.3000 
    175 H175        3.2936  -17.0989  -44.4618 H         1 UNK         0.0600 
    176 H176        3.2088  -17.9693  -47.3933 H         1 UNK         0.0600 
    177 H177        4.6805  -17.8141  -46.4324 H         1 UNK         0.0600 
    178 H178        3.4684  -18.9945  -45.9792 H         1 UNK         0.0600 
    179 H179        3.6189  -15.5235  -46.8736 H         1 UNK         0.3000 
    180 H180        3.1210  -12.3769  -45.2761 H         1 UNK         0.0600 
    181 H181        5.3366  -11.9878  -46.3098 H         1 UNK         0.0600 
    182 H182        5.5925  -13.7229  -46.4958 H         1 UNK         0.0600 
    183 H183        5.5101  -13.0072  -44.8904 H         1 UNK         0.0600 
    184 H184        3.6968  -13.0136  -47.9779 H         1 UNK         0.3000 
    185 H185        1.8357  -12.3444  -49.5046 H         1 UNK         0.0600 
    186 H186        1.3049  -14.5178  -50.6961 H         1 UNK         0.0600 
    187 H187        2.6790  -14.7271  -49.6284 H         1 UNK         0.0600 
    188 H188        1.0960  -15.3249  -49.1459 H         1 UNK         0.0600 
    189 H189       -0.5336  -12.8854  -48.0896 H         1 UNK         0.3000 
    190 H190       -1.7792  -22.5726  -43.8385 H         1 UNK         0.3000 
    191 H191       -3.3911  -24.6760  -42.8005 H         1 UNK         0.0600 
    192 H192       -1.7632  -24.6202  -40.9044 H         1 UNK         0.0600 
    193 H193       -2.2799  -23.0029  -41.3563 H         1 UNK         0.0600 
    194 H194       -0.6908  -23.5890  -41.8437 H         1 UNK         0.0600 
    195 H195       -0.0565  -24.6920  -44.1674 H         1 UNK         0.3000 
    196 H196        0.3849  -27.4973  -43.7682 H         1 UNK         0.0600 
    197 H197        1.7599  -25.4812  -45.6210 H         1 UNK         0.0600 
    198 H198        2.2464  -25.8894  -43.9774 H         1 UNK         0.0600 
    199 H199        2.3598  -27.0946  -45.2509 H         1 UNK         0.0600 
    200 H200       -0.6477  -25.5732  -46.6278 H         1 UNK         0.3000 
    201 H201       -0.7514  -27.8758  -48.3740 H         1 UNK         0.0600 
    202 H202       -1.7650  -25.0157  -48.7582 H         1 UNK         0.0600 
    203 H203       -1.4899  -26.1987  -50.0335 H         1 UNK         0.0600 
    204 H204       -0.1307  -25.5742  -49.1189 H         1 UNK         0.0600 
    205 H205       -2.9981  -26.7038  -46.0932 H         1 UNK         0.3000 
    206 H206       -5.1360  -27.0065  -45.6041 H         1 UNK         0.0600 
    207 H207       -4.7245  -29.4473  -45.9397 H         1 UNK         0.0600 
    208 H208       -6.3687  -28.9984  -46.3656 H         1 UNK         0.0600 
    209 H209       -5.1928  -29.3058  -47.6332 H         1 UNK         0.0600 
    210 H210       -4.7146  -24.9261  -46.8918 H         1 UNK         0.3000 
    211 H211       -5.5148  -23.1925  -47.9624 H         1 UNK         0.0600 
    212 H212       -7.8645  -23.0439  -48.6447 H         1 UNK         0.0600 
    213 H213       -7.7529  -23.9023  -47.1173 H         1 UNK         0.0600 
    214 H214       -8.0390  -24.7904  -48.6145 H         1 UNK         0.0600 
    215 H215       -4.7505  -25.9486  -49.7288 H         1 UNK         0.3000 
    216 H216       -5.4013  -25.1305  -52.3665 H         1 UNK         0.0600 
    217 H217       -3.2043  -27.0511  -51.4401 H         1 UNK         0.0600 
    218 H218       -3.9174  -26.9771  -53.0432 H         1 UNK         0.0600 
    219 H219       -4.8965  -27.4840  -51.6757 H         1 UNK         0.0600 
    220 H220       -2.9842  -23.8692  -50.3023 H         1 UNK         0.3000 
    221 H221       -1.0007  -23.1031  -52.2438 H         1 UNK         0.0600 
    222 H222       -0.4073  -23.2554  -49.8637 H         1 UNK         0.0600 
    223 H223       -1.6199  -22.0486  -49.4327 H         1 UNK         0.0600 
    224 H224       -0.2154  -21.5948  -50.3854 H         1 UNK         0.0600 
    225 H225       -4.1245  -21.7741  -51.3966 H         1 UNK         0.3000 
    226 H226       -3.5911  -19.0430  -52.0969 H         1 UNK         0.0600 
    227 H227       -6.2334  -20.5187  -51.6473 H         1 UNK         0.0600 
    228 H228       -5.2851  -19.7041  -50.4062 H         1 UNK         0.0600 
    229 H229       -6.0227  -18.7698  -51.6925 H         1 UNK         0.0600 
    230 H230       -2.6011  -20.2054  -54.2252 H         1 UNK         0.3000 
    231 H231       -4.4322  -20.4435  -56.4686 H         1 UNK         0.0600 
    232 H232       -1.3807  -20.1525  -56.3558 H         1 UNK         0.0600 
    233 H233       -2.3122  -20.5456  -57.7970 H         1 UNK         0.0600 
    234 H234       -2.2854  -21.6617  -56.4401 H         1 UNK         0.0600 
    235 H235       -2.0850  -17.9656  -55.3929 H         1 UNK         0.3000 
    236 H236       -3.6012  -15.7093  -55.9416 H         1 UNK         0.0600 
    237 H237       -3.3702  -16.0273  -58.3713 H         1 UNK         0.0600 
    238 H238       -2.2729  -14.7456  -57.9135 H         1 UNK         0.0600 
    239 H239       -1.6468  -16.3599  -58.2284 H         1 UNK         0.0600 
    240 H240       -0.2412  -16.8733  -56.3620 H         1 UNK         0.3000 
    241 H241        1.6824  -16.4812  -55.3993 H         1 UNK         0.0600 
    242 H242        1.4254  -12.7716  -56.4319 H         1 UNK         0.3800 
    243 H243        0.3285  -14.0600  -56.8549 H         1 UNK         0.3800 
    244 H244        0.1952  -15.5171  -52.9140 H         1 UNK         0.0800 
    245 H245        1.8676  -15.9994  -52.9814 H         1 UNK         0.0800 
    246 H246        0.7665  -18.9727  -51.0352 H         1 UNK         0.0800 
    247 H247        1.0696  -17.2597  -50.9012 H         1 UNK         0.0800 
@<TRIPOS>BOND
     1    1    2 1    
     2    1  127 1    
     3    1  128 1    
     4    1  129 1    
     5    2    3 2    
     6    2    4 am   BACKBONE|DICT|INTERRES
     7    4    5 1    
     8    4  130 1    
     9    5    6 1    
    10    5   65 1    
    11    5  131 1    
    12    6    7 1    
    13    6  132 1    
    14    6  133 1    
    15    7    8 1    
    16    8    9 1    
    17    8  134 1    
    18    8  135 1    
    19    9   10 ar   
    20    9   14 ar   
    21   10   11 ar   
    22   10  136 1    
    23   11   12 ar   
    24   11  126 1    
    25   12   13 ar   
    26   12  137 1    
    27   13   14 ar   
    28   13   15 1    
    29   14  138 1    
    30   15   16 1    
    31   15  139 1    
    32   15  140 1    
    33   16   17 1    
    34   17   18 1    
    35   17  141 1    
    36   17  142 1    
    37   18   19 1    
    38   18   67 1    
    39   18  143 1    
    40   19   20 am   BACKBONE|DICT|INTERRES
    41   19  144 1    
    42   20   21 2    
    43   20   22 1    
    44   22   23 1    
    45   22   24 1    
    46   22  145 1    
    47   23  146 1    
    48   23  147 1    
    49   23  148 1    
    50   24   25 am   BACKBONE|DICT|INTERRES
    51   24  149 1    
    52   25   26 2    
    53   25   27 1    
    54   27   28 1    
    55   27   29 1    
    56   27  150 1    
    57   28  151 1    
    58   28  152 1    
    59   28  153 1    
    60   29   30 am   BACKBONE|DICT|INTERRES
    61   29  154 1    
    62   30   31 2    
    63   30   32 1    
    64   32   33 1    
    65   32   34 1    
    66   32  155 1    
    67   33  156 1    
    68   33  157 1    
    69   33  158 1    
    70   34   35 am   BACKBONE|DICT|INTERRES
    71   34  159 1    
    72   35   36 2    
    73   35   37 1    
    74   37   38 1    
    75   37   39 1    
    76   37  160 1    
    77   38  161 1    
    78   38  162 1    
    79   38  163 1    
    80   39   40 am   BACKBONE|DICT|INTERRES
    81   39  164 1    
    82   40   41 2    
    83   40   42 1    
    84   42   43 1    
    85   42   44 1    
    86   42  165 1    
    87   43  166 1    
    88   43  167 1    
    89   43  168 1    
    90   44   45 am   BACKBONE|DICT|INTERRES
    91   44  169 1    
    92   45   46 2    
    93   45   47 1    
    94   47   48 1    
    95   47   49 1    
    96   47  170 1    
    97   48  171 1    
    98   48  172 1    
    99   48  173 1    
   100   49   50 am   BACKBONE|DICT|INTERRES
   101   49  174 1    
   102   50   51 2    
   103   50   52 1    
   104   52   53 1    
   105   52   54 1    
   106   52  175 1    
   107   53  176 1    
   108   53  177 1    
   109   53  178 1    
   110   54   55 am   BACKBONE|DICT|INTERRES
   111   54  179 1    
   112   55   56 2    
   113   55   57 1    
   114   57   58 1    
   115   57   59 1    
   116   57  180 1    
   117   58  181 1    
   118   58  182 1    
   119   58  183 1    
   120   59   60 am   BACKBONE|DICT|INTERRES
   121   59  184 1    
   122   60   61 2    
   123   60   62 1    
   124   62   63 1    
   125   62   64 1    
   126   62  185 1    
   127   63  186 1    
   128   63  187 1    
   129   63  188 1    
   130   64   65 am   BACKBONE|DICT|INTERRES
   131   64  189 1    
   132   65   66 2    
   133   67   68 2    
   134   67   69 am   BACKBONE|DICT|INTERRES
   135   69   70 1    
   136   69  190 1    
   137   70   71 1    
   138   70   72 1    
   139   70  191 1    
   140   71  192 1    
   141   71  193 1    
   142   71  194 1    
   143   72   73 2    
   144   72   74 am   BACKBONE|DICT|INTERRES
   145   74   75 1    
   146   74  195 1    
   147   75   76 1    
   148   75   77 1    
   149   75  196 1    
   150   76  197 1    
   151   76  198 1    
   152   76  199 1    
   153   77   78 2    
   154   77   79 am   BACKBONE|DICT|INTERRES
   155   79   80 1    
   156   79  200 1    
   157   80   81 1    
   158   80   82 1    
   159   80  201 1    
   160   81  202 1    
   161   81  203 1    
   162   81  204 1    
   163   82   83 2    
   164   82   84 am   BACKBONE|DICT|INTERRES
   165   84   85 1    
   166   84  205 1    
   167   85   86 1    
   168   85   87 1    
   169   85  206 1    
   170   86  207 1    
   171   86  208 1    
   172   86  209 1    
   173   87   88 2    
   174   87   89 am   BACKBONE|DICT|INTERRES
   175   89   90 1    
   176   89  210 1    
   177   90   91 1    
   178   90   92 1    
   179   90  211 1    
   180   91  212 1    
   181   91  213 1    
   182   91  214 1    
   183   92   93 2    
   184   92   94 am   BACKBONE|DICT|INTERRES
   185   94   95 1    
   186   94  215 1    
   187   95   96 1    
   188   95   97 1    
   189   95  216 1    
   190   96  217 1    
   191   96  218 1    
   192   96  219 1    
   193   97   98 2    
   194   97   99 am   BACKBONE|DICT|INTERRES
   195   99  100 1    
   196   99  220 1    
   197  100  101 1    
   198  100  102 1    
   199  100  221 1    
   200  101  222 1    
   201  101  223 1    
   202  101  224 1    
   203  102  103 2    
   204  102  104 am   BACKBONE|DICT|INTERRES
   205  104  105 1    
   206  104  225 1    
   207  105  106 1    
   208  105  107 1    
   209  105  226 1    
   210  106  227 1    
   211  106  228 1    
   212  106  229 1    
   213  107  108 2    
   214  107  109 am   BACKBONE|DICT|INTERRES
   215  109  110 1    
   216  109  230 1    
   217  110  111 1    
   218  110  112 1    
   219  110  231 1    
   220  111  232 1    
   221  111  233 1    
   222  111  234 1    
   223  112  113 2    
   224  112  114 am   BACKBONE|DICT|INTERRES
   225  114  115 1    
   226  114  235 1    
   227  115  116 1    
   228  115  117 1    
   229  115  236 1    
   230  116  237 1    
   231  116  238 1    
   232  116  239 1    
   233  117  118 2    
   234  117  119 am   BACKBONE|DICT|INTERRES
   235  119  120 1    
   236  119  240 1    
   237  120  121 1    
   238  120  124 1    
   239  120  241 1    
   240  121  122 am   BACKBONE|DICT|INTERRES
   241  121  123 2    
   242  122  242 1    
   243  122  243 1    
   244  124  125 1    
   245  124  244 1    
   246  124  245 1    
   247  125  126 1    
   248  126  246 1    
   249  126  247 1    
@<TRIPOS>SUBSTRUCTURE
     1 UNK         1 GROUP             0       ****    0 ROOT    
