@<TRIPOS>MOLECULE
3R540
247   249    1
SMALL
USER_CHARGES


@<TRIPOS>ATOM
      1 CA          8.3477  -13.6027  -49.0224 C.3       0 UNK        -0.1800 
      2 C           7.2442  -13.6731  -47.9769 C.2       0 UNK         0.5000 
      3 O           7.4182  -14.3152  -46.9406 O.2       0 UNK        -0.5000 
      4 N           6.1143  -13.0019  -48.2303 N.am      1 UNK        -0.5000 
      5 CA          4.9139  -12.9697  -47.3813 C.3       1 UNK         0.1400 
      6 C6          3.6351  -12.6540  -48.2039 C.3       23 UNK        -0.0398 
      7 S7          3.3997  -13.7849  -49.6180 S.3       23 UNK        -0.2404 
      8 C8          1.9413  -14.7348  -49.0969 C.3       23 UNK        -0.0205 
      9 C9          1.6305  -15.8296  -50.1023 C.ar      23 UNK        -0.0193 
     10 C10         0.7756  -15.5778  -51.1781 C.ar      23 UNK        -0.1150 
     11 C11         0.5137  -16.5735  -52.1239 C.ar      23 UNK        -0.0193 
     12 C12         1.1036  -17.8333  -51.9788 C.ar      23 UNK        -0.1150 
     13 C13         1.9660  -18.0950  -50.9091 C.ar      23 UNK        -0.0193 
     14 C14         2.2225  -17.0884  -49.9732 C.ar      23 UNK        -0.1150 
     15 C15         2.6685  -19.4419  -50.7970 C.3       23 UNK        -0.0205 
     16 S16         2.3046  -20.3009  -49.2343 S.3       23 UNK        -0.2404 
     17 C17         0.5574  -20.7518  -49.4768 C.3       23 UNK        -0.0398 
     18 CA          0.1144  -21.8564  -48.4908 C.3       11 UNK         0.1400 
     19 N           0.0870  -21.4014  -47.0959 N.am      11 UNK        -0.5000 
     20 C          -0.0805  -22.2125  -46.0413 C.2       10 UNK         0.5000 
     21 O          -0.1761  -23.4365  -46.1304 O.2       10 UNK        -0.5000 
     22 CA         -0.2185  -21.5490  -44.6594 C.3       10 UNK         0.1400 
     23 CB          1.1554  -21.1665  -44.0897 C.3       10 UNK        -0.1800 
     24 N          -1.0947  -20.3777  -44.6847 N.am      10 UNK        -0.5000 
     25 C          -2.4020  -20.4164  -44.9799 C.2       9 UNK         0.5000 
     26 O          -3.0191  -21.4570  -45.2022 O.2       9 UNK        -0.5000 
     27 CA         -3.1378  -19.0690  -45.0933 C.3       9 UNK         0.1400 
     28 CB         -3.5802  -18.5674  -43.7111 C.3       9 UNK        -0.1800 
     29 N          -2.3396  -18.0405  -45.7600 N.am      9 UNK        -0.5000 
     30 C          -1.9063  -18.1149  -47.0266 C.2       8 UNK         0.5000 
     31 O          -2.1684  -19.0466  -47.7855 O.2       8 UNK        -0.5000 
     32 CA         -0.9810  -16.9834  -47.5064 C.3       8 UNK         0.1400 
     33 CB         -1.7886  -15.7312  -47.8787 C.3       8 UNK        -0.1800 
     34 N           0.0338  -16.6416  -46.5085 N.am      8 UNK        -0.5000 
     35 C           1.0136  -17.4705  -46.1209 C.2       7 UNK         0.5000 
     36 O           1.1843  -18.5933  -46.5922 O.2       7 UNK        -0.5000 
     37 CA          1.9198  -16.9818  -44.9762 C.3       7 UNK         0.1400 
     38 CB          3.0113  -16.0366  -45.5029 C.3       7 UNK        -0.1800 
     39 N           1.1675  -16.3196  -43.9089 N.am      7 UNK        -0.5000 
     40 C           0.2606  -16.9310  -43.1337 C.2       6 UNK         0.5000 
     41 O          -0.0050  -18.1296  -43.2130 O.2       6 UNK        -0.5000 
     42 CA         -0.5150  -16.0545  -42.1341 C.3       6 UNK         0.1400 
     43 CB          0.3041  -15.8208  -40.8575 C.3       6 UNK        -0.1800 
     44 N          -0.9223  -14.7642  -42.6890 N.am      6 UNK        -0.5000 
     45 C          -1.7389  -14.5841  -43.7335 C.2       5 UNK         0.5000 
     46 O          -2.2402  -15.5132  -44.3653 O.2       5 UNK        -0.5000 
     47 CA         -2.0250  -13.1343  -44.1777 C.3       5 UNK         0.1400 
     48 CB         -3.2061  -12.5337  -43.3924 C.3       5 UNK        -0.1800 
     49 N          -0.8496  -12.2505  -44.1597 N.am      5 UNK        -0.5000 
     50 C          -0.1431  -11.8113  -43.1091 C.2       4 UNK         0.5000 
     51 O          -0.4311  -12.0391  -41.9317 O.2       4 UNK        -0.5000 
     52 CA          1.1409  -11.0280  -43.4385 C.3       4 UNK         0.1400 
     53 CB          0.9694   -9.5376  -43.1092 C.3       4 UNK        -0.1800 
     54 N           2.3140  -11.5452  -42.7303 N.am      4 UNK        -0.5000 
     55 C           2.7420  -12.8149  -42.7436 C.2       3 UNK         0.5000 
     56 O           2.1802  -13.7258  -43.3553 O.2       3 UNK        -0.5000 
     57 CA          4.0726  -13.0848  -42.0204 C.3       3 UNK         0.1400 
     58 CB          4.2329  -14.5546  -41.5926 C.3       3 UNK        -0.1800 
     59 N           5.1571  -12.7377  -42.9313 N.am      3 UNK        -0.5000 
     60 C           5.6455  -11.5032  -43.1055 C.2       2 UNK         0.5000 
     61 O           5.3515  -10.5418  -42.3935 O.2       2 UNK        -0.5000 
     62 CA          6.5829  -11.3060  -44.3102 C.3       2 UNK         0.1400 
     63 CB          8.0387  -11.6065  -43.9233 C.3       2 UNK        -0.1800 
     64 N           6.2095  -12.1332  -45.4611 N.am      2 UNK        -0.5000 
     65 C           5.0893  -12.0004  -46.1859 C.2       1 UNK         0.5000 
     66 O           4.2345  -11.1442  -45.9523 O.2       1 UNK        -0.5000 
     67 C          -1.2313  -22.4742  -48.9188 C.2       11 UNK         0.5000 
     68 O          -1.2310  -23.5434  -49.5294 O.2       11 UNK        -0.5000 
     69 N          -2.3479  -21.8290  -48.5511 N.am      12 UNK        -0.5000 
     70 CA         -3.7041  -22.3260  -48.7865 C.3       12 UNK         0.1400 
     71 CB         -4.7312  -21.2724  -48.3449 C.3       12 UNK        -0.1800 
     72 C          -3.9672  -23.6672  -48.0794 C.2       12 UNK         0.5000 
     73 O          -4.5145  -24.5783  -48.6981 O.2       12 UNK        -0.5000 
     74 N          -3.5413  -23.7785  -46.8129 N.am      13 UNK        -0.5000 
     75 CA         -3.6319  -24.9944  -46.0047 C.3       13 UNK         0.1400 
     76 CB         -3.2404  -24.6851  -44.5522 C.3       13 UNK        -0.1800 
     77 C          -2.7846  -26.1492  -46.5667 C.2       13 UNK         0.5000 
     78 O          -3.2761  -27.2757  -46.6371 O.2       13 UNK        -0.5000 
     79 N          -1.5518  -25.8496  -47.0017 N.am      14 UNK        -0.5000 
     80 CA         -0.6449  -26.7999  -47.6542 C.3       14 UNK         0.1400 
     81 CB          0.7314  -26.1461  -47.8478 C.3       14 UNK        -0.1800 
     82 C          -1.1910  -27.3284  -48.9953 C.2       14 UNK         0.5000 
     83 O          -1.0002  -28.5025  -49.3131 O.2       14 UNK        -0.5000 
     84 N          -1.8986  -26.4628  -49.7309 N.am      15 UNK        -0.5000 
     85 CA         -2.6173  -26.7813  -50.9645 C.3       15 UNK         0.1400 
     86 CB         -2.7113  -25.5005  -51.8058 C.3       15 UNK        -0.1800 
     87 C          -4.0179  -27.3886  -50.7239 C.2       15 UNK         0.5000 
     88 O          -4.7414  -27.6206  -51.6934 O.2       15 UNK        -0.5000 
     89 N          -4.3976  -27.6117  -49.4549 N.am      16 UNK        -0.5000 
     90 CA         -5.6722  -28.1715  -48.9852 C.3       16 UNK         0.1400 
     91 CB         -5.7692  -29.6646  -49.3603 C.3       16 UNK        -0.1800 
     92 C          -6.9094  -27.3622  -49.4346 C.2       16 UNK         0.5000 
     93 O          -7.9799  -27.9357  -49.6424 O.2       16 UNK        -0.5000 
     94 N          -6.7248  -26.0446  -49.6029 N.am      17 UNK        -0.5000 
     95 CA         -7.6720  -25.0471  -50.1105 C.3       17 UNK         0.1400 
     96 CB         -8.8694  -24.8903  -49.1515 C.3       17 UNK        -0.1800 
     97 C          -8.1150  -25.2625  -51.5760 C.2       17 UNK         0.5000 
     98 O          -9.0362  -24.5818  -52.0302 O.2       17 UNK        -0.5000 
     99 N          -7.4522  -26.1709  -52.3078 N.am      18 UNK        -0.5000 
    100 CA        -7.7082  -26.4392  -53.7257 C.3       18 UNK         0.1400 
    101 CB        -7.2391  -27.8642  -54.0574 C.3       18 UNK        -0.1800 
    102 C         -7.0217  -25.4145  -54.6496 C.2       18 UNK         0.5000 
    103 O         -7.4015  -25.2931  -55.8150 O.2       18 UNK        -0.5000 
    104 N         -6.0303  -24.6981  -54.1127 N.am      19 UNK        -0.5000 
    105 CA        -5.2565  -23.6450  -54.7529 C.3       19 UNK         0.1400 
    106 CB        -4.1755  -24.2694  -55.6574 C.3       19 UNK        -0.1800 
    107 C         -4.6420  -22.7716  -53.6470 C.2       19 UNK         0.5000 
    108 O         -4.8259  -23.0652  -52.4624 O.2       19 UNK        -0.5000 
    109 N         -3.9198  -21.7193  -54.0567 N.am      20 UNK        -0.5000 
    110 CA        -3.1135  -20.8223  -53.2165 C.3       20 UNK         0.1400 
    111 CB        -1.9008  -21.5769  -52.6351 C.3       20 UNK        -0.1800 
    112 C         -3.9077  -20.0638  -52.1312 C.2       20 UNK         0.5000 
    113 O         -3.3334  -19.6618  -51.1189 O.2       20 UNK        -0.5000 
    114 N         -5.2073  -19.8409  -52.3714 N.am      21 UNK        -0.5000 
    115 CA        -6.1235  -19.0921  -51.5079 C.3       21 UNK         0.1400 
    116 CB        -7.5649  -19.5300  -51.8229 C.3       21 UNK        -0.1800 
    117 C         -5.9099  -17.5691  -51.6479 C.2       21 UNK         0.5000 
    118 O         -6.8207  -16.8403  -52.0449 O.2       21 UNK        -0.5000 
    119 N         -4.6819  -17.1301  -51.3590 N.am      22 UNK        -0.5000 
    120 CA        -4.1813  -15.7627  -51.5643 C.3       22 UNK         0.1400 
    121 C         -4.6239  -14.7334  -50.4829 C.2       22 UNK         0.5000 
    122 N         -5.2970  -15.1354  -49.4117 N.am      22 UNK        -0.7600 
    123 O         -4.3580  -13.5430  -50.6233 O.2       22 UNK        -0.5000 
    124 C124       -2.6413  -15.7545  -51.7461 C.3       23 UNK        -0.0398 
    125 S125       -2.0770  -16.8488  -53.0948 S.3       23 UNK        -0.2404 
    126 C126       -0.3685  -16.2730  -53.3273 C.3       23 UNK        -0.0205 
    127 H127        8.0544  -12.9984  -49.8812 H         1 UNK         0.0600 
    128 H128        9.2474  -13.1654  -48.5894 H         1 UNK         0.0600 
    129 H129        8.5908  -14.6039  -49.3783 H         1 UNK         0.0600 
    130 H130        6.0406  -12.4805  -49.0923 H         1 UNK         0.3000 
    131 H131        4.7795  -13.9640  -46.9503 H         1 UNK         0.0600 
    132 H132        2.7513  -12.6926  -47.5644 H         1 UNK         0.0800 
    133 H133        3.6779  -11.6371  -48.5979 H         1 UNK         0.0800 
    134 H134        2.1205  -15.1749  -48.1173 H         1 UNK         0.0800 
    135 H135        1.0871  -14.0649  -48.9891 H         1 UNK         0.0800 
    136 H136        0.3311  -14.5989  -51.2900 H         1 UNK         0.1150 
    137 H137        0.9082  -18.6006  -52.7148 H         1 UNK         0.1150 
    138 H138        2.8961  -17.2832  -49.1502 H         1 UNK         0.1150 
    139 H139        2.4106  -20.0914  -51.6349 H         1 UNK         0.0800 
    140 H140        3.7448  -19.2772  -50.8600 H         1 UNK         0.0800 
    141 H141        0.4461  -21.0957  -50.5059 H         1 UNK         0.0800 
    142 H142       -0.0633  -19.8596  -49.3759 H         1 UNK         0.0800 
    143 H143        0.8508  -22.6612  -48.5470 H         1 UNK         0.0600 
    144 H144        0.2075  -20.4059  -46.9402 H         1 UNK         0.3000 
    145 H145       -0.6677  -22.2814  -43.9855 H         1 UNK         0.0600 
    146 H146        1.0653  -20.7663  -43.0798 H         1 UNK         0.0600 
    147 H147        1.8114  -22.0362  -44.0380 H         1 UNK         0.0600 
    148 H148        1.6539  -20.4161  -44.7028 H         1 UNK         0.0600 
    149 H149       -0.6716  -19.4852  -44.4477 H         1 UNK         0.3000 
    150 H150       -4.0333  -19.2315  -45.6963 H         1 UNK         0.0600 
    151 H151       -4.2126  -19.3035  -43.2134 H         1 UNK         0.0600 
    152 H152       -4.1552  -17.6447  -43.7919 H         1 UNK         0.0600 
    153 H153       -2.7276  -18.3738  -43.0606 H         1 UNK         0.0600 
    154 H154       -2.1185  -17.2116  -45.2147 H         1 UNK         0.3000 
    155 H155       -0.4702  -17.3364  -48.4052 H         1 UNK         0.0600 
    156 H156       -1.1665  -14.9951  -48.3869 H         1 UNK         0.0600 
    157 H157       -2.2295  -15.2538  -47.0043 H         1 UNK         0.0600 
    158 H158       -2.6080  -15.9863  -48.5497 H         1 UNK         0.0600 
    159 H159       -0.0743  -15.7629  -46.0256 H         1 UNK         0.3000 
    160 H160        2.4097  -17.8594  -44.5491 H         1 UNK         0.0600 
    161 H161        2.5966  -15.0792  -45.8186 H         1 UNK         0.0600 
    162 H162        3.5344  -16.4725  -46.3554 H         1 UNK         0.0600 
    163 H163        3.7577  -15.8345  -44.7356 H         1 UNK         0.0600 
    164 H164        1.3706  -15.3345  -43.7482 H         1 UNK         0.3000 
    165 H165       -1.4223  -16.5958  -41.8595 H         1 UNK         0.0600 
    166 H166        1.1814  -15.2063  -41.0555 H         1 UNK         0.0600 
    167 H167       -0.2907  -15.3164  -40.0958 H         1 UNK         0.0600 
    168 H168        0.6481  -16.7642  -40.4315 H         1 UNK         0.0600 
    169 H169       -0.5597  -13.9310  -42.2356 H         1 UNK         0.3000 
    170 H170       -2.3299  -13.1897  -45.2240 H         1 UNK         0.0600 
    171 H171       -4.1036  -13.1398  -43.5216 H         1 UNK         0.0600 
    172 H172       -3.0041  -12.4807  -42.3225 H         1 UNK         0.0600 
    173 H173       -3.4404  -11.5278  -43.7406 H         1 UNK         0.0600 
    174 H174       -0.4977  -12.0161  -45.0775 H         1 UNK         0.3000 
    175 H175        1.3474  -11.1205  -44.5069 H         1 UNK         0.0600 
    176 H176        1.8489   -8.9645  -43.4038 H         1 UNK         0.0600 
    177 H177        0.1146   -9.1159  -43.6397 H         1 UNK         0.0600 
    178 H178        0.8055   -9.3784  -42.0426 H         1 UNK         0.0600 
    179 H179        2.8712  -10.8628  -42.2355 H         1 UNK         0.3000 
    180 H180        4.1200  -12.4644  -41.1228 H         1 UNK         0.0600 
    181 H181        4.1615  -15.2407  -42.4368 H         1 UNK         0.0600 
    182 H182        3.4651  -14.8354  -40.8725 H         1 UNK         0.0600 
    183 H183        5.1976  -14.7190  -41.1125 H         1 UNK         0.0600 
    184 H184        5.4345  -13.4521  -43.5880 H         1 UNK         0.3000 
    185 H185        6.5178  -10.2588  -44.6126 H         1 UNK         0.0600 
    186 H186        8.7175  -11.3956  -44.7499 H         1 UNK         0.0600 
    187 H187        8.3536  -10.9910  -43.0795 H         1 UNK         0.0600 
    188 H188        8.1725  -12.6505  -43.6374 H         1 UNK         0.0600 
    189 H189        6.8571  -12.8657  -45.7358 H         1 UNK         0.3000 
    190 H190       -2.2670  -20.9183  -48.1054 H         1 UNK         0.3000 
    191 H191       -3.8154  -22.4816  -49.8616 H         1 UNK         0.0600 
    192 H192       -4.5243  -20.3042  -48.7987 H         1 UNK         0.0600 
    193 H193       -5.7389  -21.5660  -48.6410 H         1 UNK         0.0600 
    194 H194       -4.7325  -21.1342  -47.2640 H         1 UNK         0.0600 
    195 H195       -3.1474  -22.9596  -46.3562 H         1 UNK         0.3000 
    196 H196       -4.6750  -25.3174  -46.0113 H         1 UNK         0.0600 
    197 H197       -3.3145  -25.5768  -43.9286 H         1 UNK         0.0600 
    198 H198       -3.8977  -23.9305  -44.1200 H         1 UNK         0.0600 
    199 H199       -2.2169  -24.3168  -44.4799 H         1 UNK         0.0600 
    200 H200       -1.1993  -24.9056  -46.8657 H         1 UNK         0.3000 
    201 H201       -0.5241  -27.6555  -46.9868 H         1 UNK         0.0600 
    202 H202        1.1605  -25.8412  -46.8932 H         1 UNK         0.0600 
    203 H203        0.6712  -25.2630  -48.4843 H         1 UNK         0.0600 
    204 H204        1.4324  -26.8402  -48.3131 H         1 UNK         0.0600 
    205 H205       -1.9564  -25.4989  -49.4183 H         1 UNK         0.3000 
    206 H206       -2.0439  -27.5167  -51.5321 H         1 UNK         0.0600 
    207 H207       -3.2417  -25.6736  -52.7424 H         1 UNK         0.0600 
    208 H208       -3.2398  -24.7167  -51.2636 H         1 UNK         0.0600 
    209 H209       -1.7220  -25.1185  -52.0578 H         1 UNK         0.0600 
    210 H210       -3.7514  -27.3552  -48.7183 H         1 UNK         0.3000 
    211 H211       -5.6501  -28.1050  -47.8968 H         1 UNK         0.0600 
    212 H212       -5.8559  -29.8055  -50.4381 H         1 UNK         0.0600 
    213 H213       -6.6402  -30.1303  -48.8978 H         1 UNK         0.0600 
    214 H214       -4.8913  -30.2136  -49.0196 H         1 UNK         0.0600 
    215 H215       -5.8065  -25.6670  -49.3704 H         1 UNK         0.3000 
    216 H216       -7.1260  -24.1024  -50.1071 H         1 UNK         0.0600 
    217 H217       -8.5345  -24.7145  -48.1292 H         1 UNK         0.0600 
    218 H218       -9.5064  -25.7751  -49.1497 H         1 UNK         0.0600 
    219 H219       -9.4921  -24.0417  -49.4368 H         1 UNK         0.0600 
    220 H220       -6.6912  -26.6877  -51.8813 H         1 UNK         0.3000 
    221 H221       -8.7833  -26.3859  -53.9098 H         1 UNK         0.0600 
    222 H222       -6.1595  -27.9693  -53.9465 H         1 UNK         0.0600 
    223 H223       -7.7165  -28.5989  -53.4086 H         1 UNK         0.0600 
    224 H224       -7.4887  -28.1267  -55.0862 H         1 UNK         0.0600 
    225 H225       -5.8203  -24.8121  -53.1286 H         1 UNK         0.3000 
    226 H226       -5.9243  -23.0199  -55.3490 H         1 UNK         0.0600 
    227 H227       -4.6177  -24.9098  -56.4206 H         1 UNK         0.0600 
    228 H228       -3.6009  -23.5037  -56.1791 H         1 UNK         0.0600 
    229 H229       -3.4725  -24.8737  -55.0831 H         1 UNK         0.0600 
    230 H230       -3.8554  -21.5462  -55.0503 H         1 UNK         0.3000 
    231 H231       -2.7252  -20.0523  -53.8847 H         1 UNK         0.0600 
    232 H232       -1.3391  -22.0879  -53.4168 H         1 UNK         0.0600 
    233 H233       -2.2047  -22.3213  -51.8990 H         1 UNK         0.0600 
    234 H234       -1.2155  -20.8868  -52.1436 H         1 UNK         0.0600 
    235 H235       -5.5903  -20.1811  -53.2405 H         1 UNK         0.3000 
    236 H236       -5.9211  -19.3522  -50.4679 H         1 UNK         0.0600 
    237 H237       -8.2791  -19.0201  -51.1752 H         1 UNK         0.0600 
    238 H238       -7.8381  -19.3075  -52.8551 H         1 UNK         0.0600 
    239 H239       -7.6932  -20.6013  -51.6656 H         1 UNK         0.0600 
    240 H240       -3.9925  -17.8236  -51.0824 H         1 UNK         0.3000 
    241 H241       -4.6139  -15.3999  -52.4986 H         1 UNK         0.0600 
    242 H242       -5.5361  -16.1062  -49.2935 H         1 UNK         0.3800 
    243 H243       -5.5863  -14.4580  -48.7243 H         1 UNK         0.3800 
    244 H244       -2.2893  -14.7429  -51.9560 H         1 UNK         0.0800 
    245 H245       -2.1466  -16.0713  -50.8280 H         1 UNK         0.0800 
    246 H246        0.0469  -16.7587  -54.2115 H         1 UNK         0.0800 
    247 H247       -0.3708  -15.2037  -53.5448 H         1 UNK         0.0800 
@<TRIPOS>BOND
     1    1    2 1    
     2    1  127 1    
     3    1  128 1    
     4    1  129 1    
     5    2    3 2    
     6    2    4 am   BACKBONE|DICT|INTERRES
     7    4    5 1    
     8    4  130 1    
     9    5    6 1    
    10    5   65 1    
    11    5  131 1    
    12    6    7 1    
    13    6  132 1    
    14    6  133 1    
    15    7    8 1    
    16    8    9 1    
    17    8  134 1    
    18    8  135 1    
    19    9   10 ar   
    20    9   14 ar   
    21   10   11 ar   
    22   10  136 1    
    23   11   12 ar   
    24   11  126 1    
    25   12   13 ar   
    26   12  137 1    
    27   13   14 ar   
    28   13   15 1    
    29   14  138 1    
    30   15   16 1    
    31   15  139 1    
    32   15  140 1    
    33   16   17 1    
    34   17   18 1    
    35   17  141 1    
    36   17  142 1    
    37   18   19 1    
    38   18   67 1    
    39   18  143 1    
    40   19   20 am   BACKBONE|DICT|INTERRES
    41   19  144 1    
    42   20   21 2    
    43   20   22 1    
    44   22   23 1    
    45   22   24 1    
    46   22  145 1    
    47   23  146 1    
    48   23  147 1    
    49   23  148 1    
    50   24   25 am   BACKBONE|DICT|INTERRES
    51   24  149 1    
    52   25   26 2    
    53   25   27 1    
    54   27   28 1    
    55   27   29 1    
    56   27  150 1    
    57   28  151 1    
    58   28  152 1    
    59   28  153 1    
    60   29   30 am   BACKBONE|DICT|INTERRES
    61   29  154 1    
    62   30   31 2    
    63   30   32 1    
    64   32   33 1    
    65   32   34 1    
    66   32  155 1    
    67   33  156 1    
    68   33  157 1    
    69   33  158 1    
    70   34   35 am   BACKBONE|DICT|INTERRES
    71   34  159 1    
    72   35   36 2    
    73   35   37 1    
    74   37   38 1    
    75   37   39 1    
    76   37  160 1    
    77   38  161 1    
    78   38  162 1    
    79   38  163 1    
    80   39   40 am   BACKBONE|DICT|INTERRES
    81   39  164 1    
    82   40   41 2    
    83   40   42 1    
    84   42   43 1    
    85   42   44 1    
    86   42  165 1    
    87   43  166 1    
    88   43  167 1    
    89   43  168 1    
    90   44   45 am   BACKBONE|DICT|INTERRES
    91   44  169 1    
    92   45   46 2    
    93   45   47 1    
    94   47   48 1    
    95   47   49 1    
    96   47  170 1    
    97   48  171 1    
    98   48  172 1    
    99   48  173 1    
   100   49   50 am   BACKBONE|DICT|INTERRES
   101   49  174 1    
   102   50   51 2    
   103   50   52 1    
   104   52   53 1    
   105   52   54 1    
   106   52  175 1    
   107   53  176 1    
   108   53  177 1    
   109   53  178 1    
   110   54   55 am   BACKBONE|DICT|INTERRES
   111   54  179 1    
   112   55   56 2    
   113   55   57 1    
   114   57   58 1    
   115   57   59 1    
   116   57  180 1    
   117   58  181 1    
   118   58  182 1    
   119   58  183 1    
   120   59   60 am   BACKBONE|DICT|INTERRES
   121   59  184 1    
   122   60   61 2    
   123   60   62 1    
   124   62   63 1    
   125   62   64 1    
   126   62  185 1    
   127   63  186 1    
   128   63  187 1    
   129   63  188 1    
   130   64   65 am   BACKBONE|DICT|INTERRES
   131   64  189 1    
   132   65   66 2    
   133   67   68 2    
   134   67   69 am   BACKBONE|DICT|INTERRES
   135   69   70 1    
   136   69  190 1    
   137   70   71 1    
   138   70   72 1    
   139   70  191 1    
   140   71  192 1    
   141   71  193 1    
   142   71  194 1    
   143   72   73 2    
   144   72   74 am   BACKBONE|DICT|INTERRES
   145   74   75 1    
   146   74  195 1    
   147   75   76 1    
   148   75   77 1    
   149   75  196 1    
   150   76  197 1    
   151   76  198 1    
   152   76  199 1    
   153   77   78 2    
   154   77   79 am   BACKBONE|DICT|INTERRES
   155   79   80 1    
   156   79  200 1    
   157   80   81 1    
   158   80   82 1    
   159   80  201 1    
   160   81  202 1    
   161   81  203 1    
   162   81  204 1    
   163   82   83 2    
   164   82   84 am   BACKBONE|DICT|INTERRES
   165   84   85 1    
   166   84  205 1    
   167   85   86 1    
   168   85   87 1    
   169   85  206 1    
   170   86  207 1    
   171   86  208 1    
   172   86  209 1    
   173   87   88 2    
   174   87   89 am   BACKBONE|DICT|INTERRES
   175   89   90 1    
   176   89  210 1    
   177   90   91 1    
   178   90   92 1    
   179   90  211 1    
   180   91  212 1    
   181   91  213 1    
   182   91  214 1    
   183   92   93 2    
   184   92   94 am   BACKBONE|DICT|INTERRES
   185   94   95 1    
   186   94  215 1    
   187   95   96 1    
   188   95   97 1    
   189   95  216 1    
   190   96  217 1    
   191   96  218 1    
   192   96  219 1    
   193   97   98 2    
   194   97   99 am   BACKBONE|DICT|INTERRES
   195   99  100 1    
   196   99  220 1    
   197  100  101 1    
   198  100  102 1    
   199  100  221 1    
   200  101  222 1    
   201  101  223 1    
   202  101  224 1    
   203  102  103 2    
   204  102  104 am   BACKBONE|DICT|INTERRES
   205  104  105 1    
   206  104  225 1    
   207  105  106 1    
   208  105  107 1    
   209  105  226 1    
   210  106  227 1    
   211  106  228 1    
   212  106  229 1    
   213  107  108 2    
   214  107  109 am   BACKBONE|DICT|INTERRES
   215  109  110 1    
   216  109  230 1    
   217  110  111 1    
   218  110  112 1    
   219  110  231 1    
   220  111  232 1    
   221  111  233 1    
   222  111  234 1    
   223  112  113 2    
   224  112  114 am   BACKBONE|DICT|INTERRES
   225  114  115 1    
   226  114  235 1    
   227  115  116 1    
   228  115  117 1    
   229  115  236 1    
   230  116  237 1    
   231  116  238 1    
   232  116  239 1    
   233  117  118 2    
   234  117  119 am   BACKBONE|DICT|INTERRES
   235  119  120 1    
   236  119  240 1    
   237  120  121 1    
   238  120  124 1    
   239  120  241 1    
   240  121  122 am   BACKBONE|DICT|INTERRES
   241  121  123 2    
   242  122  242 1    
   243  122  243 1    
   244  124  125 1    
   245  124  244 1    
   246  124  245 1    
   247  125  126 1    
   248  126  246 1    
   249  126  247 1    
@<TRIPOS>SUBSTRUCTURE
     1 UNK         1 GROUP             0       ****    0 ROOT    
