@<TRIPOS>MOLECULE
3R540
247   249    1
SMALL
USER_CHARGES


@<TRIPOS>ATOM
      1 CA          5.4108  -16.6315  -45.7728 C.3       0 UNK        -0.1800 
      2 C           4.2030  -15.8974  -46.3359 C.2       0 UNK         0.5000 
      3 O           3.1361  -15.9070  -45.7224 O.2       0 UNK        -0.5000 
      4 N           4.3660  -15.2391  -47.4903 N.am      1 UNK        -0.5000 
      5 CA          3.3298  -14.4767  -48.2026 C.3       1 UNK         0.1400 
      6 C6          3.6500  -14.3313  -49.7138 C.3       23 UNK        -0.0398 
      7 S7          3.9831  -15.9250  -50.5479 S.3       23 UNK        -0.2404 
      8 C8          2.6332  -16.0601  -51.7654 C.3       23 UNK        -0.0205 
      9 C9          1.6057  -17.1057  -51.3602 C.ar      23 UNK        -0.0193 
     10 C10         0.3671  -16.7251  -50.8345 C.ar      23 UNK        -0.1150 
     11 C11        -0.5933  -17.6913  -50.5163 C.ar      23 UNK        -0.0193 
     12 C12        -0.2951  -19.0439  -50.7017 C.ar      23 UNK        -0.1150 
     13 C13         0.9448  -19.4385  -51.2076 C.ar      23 UNK        -0.0193 
     14 C14         1.8864  -18.4631  -51.5465 C.ar      23 UNK        -0.1150 
     15 C15         1.2601  -20.9148  -51.3935 C.3       23 UNK        -0.0205 
     16 S16         2.5393  -21.4656  -50.2253 S.3       23 UNK        -0.2404 
     17 C17         2.3392  -23.2826  -50.2862 C.3       23 UNK        -0.0398 
     18 CA          1.7630  -23.8849  -48.9793 C.3       11 UNK         0.1400 
     19 N           2.5168  -23.4440  -47.8029 N.am      11 UNK        -0.5000 
     20 C           2.4102  -23.9527  -46.5696 C.2       10 UNK         0.5000 
     21 O           1.6854  -24.9026  -46.2792 O.2       10 UNK        -0.5000 
     22 CA          3.2084  -23.2318  -45.4679 C.3       10 UNK         0.1400 
     23 CB          4.6434  -23.7740  -45.3960 C.3       10 UNK        -0.1800 
     24 N           3.2447  -21.7759  -45.6468 N.am      10 UNK        -0.5000 
     25 C           2.1623  -20.9872  -45.6202 C.2       9 UNK         0.5000 
     26 O           1.0156  -21.4139  -45.4708 O.2       9 UNK        -0.5000 
     27 CA          2.3925  -19.4840  -45.8334 C.3       9 UNK         0.1400 
     28 CB          1.9673  -19.0522  -47.2459 C.3       9 UNK        -0.1800 
     29 N           1.6477  -18.7213  -44.8348 N.am      9 UNK        -0.5000 
     30 C           2.1024  -18.4996  -43.5934 C.2       8 UNK         0.5000 
     31 O           3.2005  -18.8921  -43.1938 O.2       8 UNK        -0.5000 
     32 CA          1.2021  -17.7144  -42.6219 C.3       8 UNK         0.1400 
     33 CB          1.5075  -16.2096  -42.6865 C.3       8 UNK        -0.1800 
     34 N          -0.2305  -17.9298  -42.8241 N.am      8 UNK        -0.5000 
     35 C          -0.8792  -19.0566  -42.4957 C.2       7 UNK         0.5000 
     36 O          -0.3186  -20.0569  -42.0476 O.2       7 UNK        -0.5000 
     37 CA         -2.4095  -19.0675  -42.6564 C.3       7 UNK         0.1400 
     38 CB         -3.0821  -18.5189  -41.3881 C.3       7 UNK        -0.1800 
     39 N          -2.8386  -18.2674  -43.8012 N.am      7 UNK        -0.5000 
     40 C          -3.4785  -18.7470  -44.8756 C.2       6 UNK         0.5000 
     41 O          -3.8722  -19.9092  -44.9774 O.2       6 UNK        -0.5000 
     42 CA         -3.7279  -17.7671  -46.0436 C.3       6 UNK         0.1400 
     43 CB         -5.1486  -17.1884  -45.9526 C.3       6 UNK        -0.1800 
     44 N          -2.7824  -16.6503  -46.1219 N.am      6 UNK        -0.5000 
     45 C          -1.4472  -16.7426  -46.1989 C.2       5 UNK         0.5000 
     46 O          -0.8308  -17.8032  -46.2534 O.2       5 UNK        -0.5000 
     47 CA         -0.6606  -15.4207  -46.1429 C.3       5 UNK         0.1400 
     48 CB         -0.4621  -14.8925  -47.5695 C.3       5 UNK        -0.1800 
     49 N          -1.2588  -14.3695  -45.3032 N.am      5 UNK        -0.5000 
     50 C          -1.6937  -14.5059  -44.0383 C.2       4 UNK         0.5000 
     51 O          -1.6795  -15.5784  -43.4309 O.2       4 UNK        -0.5000 
     52 CA         -2.2294  -13.2404  -43.3408 C.3       4 UNK         0.1400 
     53 CB         -2.2896  -13.3950  -41.8100 C.3       4 UNK        -0.1800 
     54 N          -1.3917  -12.0888  -43.6672 N.am      4 UNK        -0.5000 
     55 C          -1.7879  -10.9769  -44.3003 C.2       3 UNK         0.5000 
     56 O          -2.9497  -10.7606  -44.6460 O.2       3 UNK        -0.5000 
     57 CA         -0.6922   -9.9357  -44.6226 C.3       3 UNK         0.1400 
     58 CB         -0.7158   -8.7958  -43.5928 C.3       3 UNK        -0.1800 
     59 N           0.6619  -10.5021  -44.6756 N.am      3 UNK        -0.5000 
     60 C           1.0682  -11.4176  -45.5661 C.2       2 UNK         0.5000 
     61 O           0.3474  -11.8204  -46.4804 O.2       2 UNK        -0.5000 
     62 CA          2.4811  -12.0028  -45.3559 C.3       2 UNK         0.1400 
     63 CB          2.6865  -12.4755  -43.9036 C.3       2 UNK        -0.1800 
     64 N           2.7473  -13.1440  -46.2288 N.am      2 UNK        -0.5000 
     65 C           3.0804  -13.1047  -47.5232 C.2       1 UNK         0.5000 
     66 O           3.2315  -12.0560  -48.1531 O.2       1 UNK        -0.5000 
     67 C           0.2459  -23.6250  -48.8488 C.2       11 UNK         0.5000 
     68 O          -0.5449  -24.4113  -49.3696 O.2       11 UNK        -0.5000 
     69 N          -0.1323  -22.5491  -48.1431 N.am      12 UNK        -0.5000 
     70 CA         -1.5195  -22.2280  -47.8239 C.3       12 UNK         0.1400 
     71 CB         -1.6514  -20.7412  -47.4736 C.3       12 UNK        -0.1800 
     72 C          -2.0355  -23.1054  -46.6766 C.2       12 UNK         0.5000 
     73 O          -3.1150  -23.6793  -46.7990 O.2       12 UNK        -0.5000 
     74 N          -1.2411  -23.2180  -45.6026 N.am      13 UNK        -0.5000 
     75 CA         -1.5547  -23.9854  -44.3954 C.3       13 UNK         0.1400 
     76 CB         -0.4732  -23.7180  -43.3387 C.3       13 UNK        -0.1800 
     77 C          -1.7101  -25.4996  -44.6388 C.2       13 UNK         0.5000 
     78 O          -2.5167  -26.1418  -43.9657 O.2       13 UNK        -0.5000 
     79 N          -0.9511  -26.0401  -45.6013 N.am      14 UNK        -0.5000 
     80 CA         -1.0260  -27.4331  -46.0479 C.3       14 UNK         0.1400 
     81 CB          0.2662  -27.7752  -46.8068 C.3       14 UNK        -0.1800 
     82 C          -2.2579  -27.7413  -46.9260 C.2       14 UNK         0.5000 
     83 O          -2.5347  -28.9154  -47.1767 O.2       14 UNK        -0.5000 
     84 N          -2.9582  -26.7019  -47.3916 N.am      15 UNK        -0.5000 
     85 CA         -4.1377  -26.7725  -48.2473 C.3       15 UNK         0.1400 
     86 CB         -3.8014  -26.0471  -49.5650 C.3       15 UNK        -0.1800 
     87 C          -5.3387  -26.1253  -47.5329 C.2       15 UNK         0.5000 
     88 O          -5.2567  -25.7781  -46.3524 O.2       15 UNK        -0.5000 
     89 N          -6.4397  -25.9307  -48.2686 N.am      16 UNK        -0.5000 
     90 CA         -7.6006  -25.1462  -47.8402 C.3       16 UNK         0.1400 
     91 CB         -8.8536  -25.6853  -48.5540 C.3       16 UNK        -0.1800 
     92 C          -7.3529  -23.6467  -48.1138 C.2       16 UNK         0.5000 
     93 O          -8.0744  -23.0355  -48.9024 O.2       16 UNK        -0.5000 
     94 N          -6.2778  -23.1089  -47.5163 N.am      17 UNK        -0.5000 
     95 CA         -5.7144  -21.7599  -47.6857 C.3       17 UNK         0.1400 
     96 CB         -6.7397  -20.6693  -47.3158 C.3       17 UNK        -0.1800 
     97 C          -5.0781  -21.4990  -49.0699 C.2       17 UNK         0.5000 
     98 O          -4.6220  -20.3830  -49.3183 O.2       17 UNK        -0.5000 
     99 N          -5.0497  -22.5199  -49.9398 N.am      18 UNK        -0.5000 
    100 CA        -4.5944  -22.5540  -51.3364 C.3       18 UNK         0.1400 
    101 CB        -3.0903  -22.2494  -51.4629 C.3       18 UNK        -0.1800 
    102 C         -5.4275  -21.6795  -52.2939 C.2       18 UNK         0.5000 
    103 O         -5.9101  -22.1906  -53.3052 O.2       18 UNK        -0.5000 
    104 N         -5.5830  -20.3929  -51.9570 N.am      19 UNK        -0.5000 
    105 CA        -6.3429  -19.3294  -52.6236 C.3       19 UNK         0.1400 
    106 CB        -7.8472  -19.6582  -52.6634 C.3       19 UNK        -0.1800 
    107 C         -5.8129  -18.9427  -54.0173 C.2       19 UNK         0.5000 
    108 O         -5.4895  -17.7763  -54.2398 O.2       19 UNK        -0.5000 
    109 N         -5.7161  -19.9190  -54.9272 N.am      20 UNK        -0.5000 
    110 CA        -5.2424  -19.7496  -56.3025 C.3       20 UNK         0.1400 
    111 CB        -5.5476  -21.0259  -57.1005 C.3       20 UNK        -0.1800 
    112 C         -3.7440  -19.4057  -56.3813 C.2       20 UNK         0.5000 
    113 O         -3.3361  -18.6495  -57.2636 O.2       20 UNK        -0.5000 
    114 N         -2.9580  -19.9420  -55.4374 N.am      21 UNK        -0.5000 
    115 CA        -1.5255  -19.6731  -55.2943 C.3       21 UNK         0.1400 
    116 CB        -0.9120  -20.7286  -54.3626 C.3       21 UNK        -0.1800 
    117 C         -1.2233  -18.2588  -54.7612 C.2       21 UNK         0.5000 
    118 O         -0.1069  -17.7726  -54.9440 O.2       21 UNK        -0.5000 
    119 N         -2.2129  -17.6332  -54.1115 N.am      22 UNK        -0.5000 
    120 CA        -2.0993  -16.3172  -53.4683 C.3       22 UNK         0.1400 
    121 C         -2.1580  -15.1095  -54.4492 C.2       22 UNK         0.5000 
    122 N         -2.4497  -15.3014  -55.7306 N.am      22 UNK        -0.7600 
    123 O         -1.9267  -13.9749  -54.0408 O.2       22 UNK        -0.5000 
    124 C124       -3.1161  -16.1379  -52.3071 C.3       23 UNK        -0.0398 
    125 S125       -3.2788  -17.5790  -51.1914 S.3       23 UNK        -0.2404 
    126 C126       -1.9572  -17.2888  -49.9757 C.3       23 UNK        -0.0205 
    127 H127        5.2210  -17.7036  -45.7434 H         1 UNK         0.0600 
    128 H128        5.6124  -16.2935  -44.7562 H         1 UNK         0.0600 
    129 H129        6.3049  -16.4599  -46.3726 H         1 UNK         0.0600 
    130 H130        5.2690  -15.2576  -47.9418 H         1 UNK         0.3000 
    131 H131        2.3978  -15.0397  -48.1300 H         1 UNK         0.0600 
    132 H132        2.8328  -13.8149  -50.2189 H         1 UNK         0.0800 
    133 H133        4.5316  -13.7033  -49.8542 H         1 UNK         0.0800 
    134 H134        2.1559  -15.0946  -51.9353 H         1 UNK         0.0800 
    135 H135        3.0649  -16.3460  -52.7257 H         1 UNK         0.0800 
    136 H136        0.1422  -15.6770  -50.6975 H         1 UNK         0.1150 
    137 H137       -1.0388  -19.7890  -50.4613 H         1 UNK         0.1150 
    138 H138        2.8440  -18.7624  -51.9487 H         1 UNK         0.1150 
    139 H139        0.3580  -21.5137  -51.2579 H         1 UNK         0.0800 
    140 H140        1.6048  -21.0922  -52.4127 H         1 UNK         0.0800 
    141 H141        1.7371  -23.5708  -51.1500 H         1 UNK         0.0800 
    142 H142        3.3261  -23.7098  -50.4687 H         1 UNK         0.0800 
    143 H143        1.8813  -24.9689  -49.0427 H         1 UNK         0.0600 
    144 H144        3.1238  -22.6499  -47.9458 H         1 UNK         0.3000 
    145 H145        2.7181  -23.4389  -44.5148 H         1 UNK         0.0600 
    146 H146        5.1913  -23.3310  -44.5642 H         1 UNK         0.0600 
    147 H147        4.6445  -24.8545  -45.2452 H         1 UNK         0.0600 
    148 H148        5.1990  -23.5697  -46.3121 H         1 UNK         0.0600 
    149 H149        4.1561  -21.3595  -45.7713 H         1 UNK         0.3000 
    150 H150        3.4561  -19.2649  -45.7277 H         1 UNK         0.0600 
    151 H151        2.6211  -19.4911  -47.9989 H         1 UNK         0.0600 
    152 H152        2.0205  -17.9699  -47.3655 H         1 UNK         0.0600 
    153 H153        0.9487  -19.3600  -47.4789 H         1 UNK         0.0600 
    154 H154        0.7181  -18.4153  -45.1024 H         1 UNK         0.3000 
    155 H155        1.4478  -18.0535  -41.6133 H         1 UNK         0.0600 
    156 H156        2.5656  -16.0169  -42.5049 H         1 UNK         0.0600 
    157 H157        0.9412  -15.6577  -41.9361 H         1 UNK         0.0600 
    158 H158        1.2658  -15.7915  -43.6620 H         1 UNK         0.0600 
    159 H159       -0.7636  -17.1218  -43.1327 H         1 UNK         0.3000 
    160 H160       -2.7116  -20.1098  -42.7786 H         1 UNK         0.0600 
    161 H161       -2.8188  -17.4748  -41.2129 H         1 UNK         0.0600 
    162 H162       -2.7809  -19.0879  -40.5076 H         1 UNK         0.0600 
    163 H163       -4.1678  -18.5825  -41.4611 H         1 UNK         0.0600 
    164 H164       -2.5521  -17.2942  -43.8026 H         1 UNK         0.3000 
    165 H165       -3.6469  -18.3357  -46.9716 H         1 UNK         0.0600 
    166 H166       -5.4078  -16.6363  -46.8562 H         1 UNK         0.0600 
    167 H167       -5.8921  -17.9757  -45.8282 H         1 UNK         0.0600 
    168 H168       -5.2514  -16.5125  -45.1027 H         1 UNK         0.0600 
    169 H169       -3.1830  -15.7259  -46.0684 H         1 UNK         0.3000 
    170 H170        0.3234  -15.6489  -45.7322 H         1 UNK         0.0600 
    171 H171       -0.0375  -15.6660  -48.2093 H         1 UNK         0.0600 
    172 H172       -1.4024  -14.5658  -48.0142 H         1 UNK         0.0600 
    173 H173        0.2273  -14.0535  -47.5955 H         1 UNK         0.0600 
    174 H174       -1.2776  -13.4441  -45.7115 H         1 UNK         0.3000 
    175 H175       -3.2471  -13.0920  -43.7066 H         1 UNK         0.0600 
    176 H176       -1.3054  -13.6022  -41.3878 H         1 UNK         0.0600 
    177 H177       -2.6730  -12.4901  -41.3383 H         1 UNK         0.0600 
    178 H178       -2.9507  -14.2137  -41.5225 H         1 UNK         0.0600 
    179 H179       -0.4128  -12.1751  -43.4367 H         1 UNK         0.3000 
    180 H180       -0.9201   -9.5156  -45.6045 H         1 UNK         0.0600 
    181 H181       -0.4755   -9.1535  -42.5908 H         1 UNK         0.0600 
    182 H182       -1.7014   -8.3303  -43.5474 H         1 UNK         0.0600 
    183 H183       -0.0014   -8.0142  -43.8520 H         1 UNK         0.0600 
    184 H184        1.3011  -10.2023  -43.9536 H         1 UNK         0.3000 
    185 H185        3.2052  -11.2160  -45.5760 H         1 UNK         0.0600 
    186 H186        2.6316  -11.6478  -43.1961 H         1 UNK         0.0600 
    187 H187        1.9378  -13.2133  -43.6116 H         1 UNK         0.0600 
    188 H188        3.6676  -12.9337  -43.7756 H         1 UNK         0.0600 
    189 H189        2.6751  -14.0655  -45.8066 H         1 UNK         0.3000 
    190 H190        0.5761  -21.9787  -47.7039 H         1 UNK         0.3000 
    191 H191       -2.1360  -22.4193  -48.7024 H         1 UNK         0.0600 
    192 H192       -1.1691  -20.4943  -46.5282 H         1 UNK         0.0600 
    193 H193       -2.6998  -20.4658  -47.3797 H         1 UNK         0.0600 
    194 H194       -1.2198  -20.1041  -48.2412 H         1 UNK         0.0600 
    195 H195       -0.3814  -22.6741  -45.5806 H         1 UNK         0.3000 
    196 H196       -2.5073  -23.6145  -44.0117 H         1 UNK         0.0600 
    197 H197       -0.7050  -24.2280  -42.4030 H         1 UNK         0.0600 
    198 H198       -0.3910  -22.6534  -43.1184 H         1 UNK         0.0600 
    199 H199        0.5047  -24.0670  -43.6709 H         1 UNK         0.0600 
    200 H200       -0.2483  -25.4599  -46.0483 H         1 UNK         0.3000 
    201 H201       -1.0844  -28.0766  -45.1678 H         1 UNK         0.0600 
    202 H202        1.1423  -27.6455  -46.1711 H         1 UNK         0.0600 
    203 H203        0.3931  -27.1419  -47.6860 H         1 UNK         0.0600 
    204 H204        0.2634  -28.8123  -47.1447 H         1 UNK         0.0600 
    205 H205       -2.7288  -25.7713  -47.0610 H         1 UNK         0.3000 
    206 H206       -4.4022  -27.8085  -48.4667 H         1 UNK         0.0600 
    207 H207       -2.9220  -26.4855  -50.0376 H         1 UNK         0.0600 
    208 H208       -4.6155  -26.1134  -50.2869 H         1 UNK         0.0600 
    209 H209       -3.5869  -24.9909  -49.3964 H         1 UNK         0.0600 
    210 H210       -6.4478  -26.2466  -49.2277 H         1 UNK         0.3000 
    211 H211       -7.7544  -25.2644  -46.7655 H         1 UNK         0.0600 
    212 H212       -8.7714  -25.5991  -49.6382 H         1 UNK         0.0600 
    213 H213       -9.7448  -25.1368  -48.2464 H         1 UNK         0.0600 
    214 H214       -9.0214  -26.7353  -48.3136 H         1 UNK         0.0600 
    215 H215       -5.7254  -23.7231  -46.9252 H         1 UNK         0.3000 
    216 H216       -4.8986  -21.6862  -46.9662 H         1 UNK         0.0600 
    217 H217       -6.2775  -19.6831  -47.3388 H         1 UNK         0.0600 
    218 H218       -7.1319  -20.8203  -46.3102 H         1 UNK         0.0600 
    219 H219       -7.5807  -20.6419  -48.0085 H         1 UNK         0.0600 
    220 H220       -5.4887  -23.3704  -49.6215 H         1 UNK         0.3000 
    221 H221       -4.7379  -23.5855  -51.6620 H         1 UNK         0.0600 
    222 H222       -2.8388  -21.2513  -51.1046 H         1 UNK         0.0600 
    223 H223       -2.4955  -22.9723  -50.9060 H         1 UNK         0.0600 
    224 H224       -2.7721  -22.3147  -52.5034 H         1 UNK         0.0600 
    225 H225       -5.1300  -20.1109  -51.0893 H         1 UNK         0.3000 
    226 H226       -6.2233  -18.4487  -51.9907 H         1 UNK         0.0600 
    227 H227       -8.2339  -19.8450  -51.6615 H         1 UNK         0.0600 
    228 H228       -8.4155  -18.8266  -53.0818 H         1 UNK         0.0600 
    229 H229       -8.0603  -20.5370  -53.2725 H         1 UNK         0.0600 
    230 H230       -5.9553  -20.8607  -54.6266 H         1 UNK         0.3000 
    231 H231       -5.7963  -18.9230  -56.7523 H         1 UNK         0.0600 
    232 H232       -5.2209  -20.9271  -58.1366 H         1 UNK         0.0600 
    233 H233       -6.6176  -21.2340  -57.1161 H         1 UNK         0.0600 
    234 H234       -5.0431  -21.8956  -56.6773 H         1 UNK         0.0600 
    235 H235       -3.3806  -20.5496  -54.7518 H         1 UNK         0.3000 
    236 H236       -1.0578  -19.7673  -56.2766 H         1 UNK         0.0600 
    237 H237       -1.1279  -21.7405  -54.7054 H         1 UNK         0.0600 
    238 H238        0.1726  -20.6228  -54.3260 H         1 UNK         0.0600 
    239 H239       -1.2839  -20.6264  -53.3426 H         1 UNK         0.0600 
    240 H240       -3.1124  -18.0843  -54.0298 H         1 UNK         0.3000 
    241 H241       -1.1036  -16.2687  -53.0297 H         1 UNK         0.0600 
    242 H242       -2.4811  -14.5131  -56.3578 H         1 UNK         0.3800 
    243 H243       -2.6409  -16.2289  -56.0779 H         1 UNK         0.3800 
    244 H244       -2.8615  -15.2586  -51.7134 H         1 UNK         0.0800 
    245 H245       -4.1097  -15.9428  -52.7138 H         1 UNK         0.0800 
    246 H246       -1.9705  -16.2440  -49.6673 H         1 UNK         0.0800 
    247 H247       -2.1705  -17.8766  -49.0818 H         1 UNK         0.0800 
@<TRIPOS>BOND
     1    1    2 1    
     2    1  127 1    
     3    1  128 1    
     4    1  129 1    
     5    2    3 2    
     6    2    4 am   BACKBONE|DICT|INTERRES
     7    4    5 1    
     8    4  130 1    
     9    5    6 1    
    10    5   65 1    
    11    5  131 1    
    12    6    7 1    
    13    6  132 1    
    14    6  133 1    
    15    7    8 1    
    16    8    9 1    
    17    8  134 1    
    18    8  135 1    
    19    9   10 ar   
    20    9   14 ar   
    21   10   11 ar   
    22   10  136 1    
    23   11   12 ar   
    24   11  126 1    
    25   12   13 ar   
    26   12  137 1    
    27   13   14 ar   
    28   13   15 1    
    29   14  138 1    
    30   15   16 1    
    31   15  139 1    
    32   15  140 1    
    33   16   17 1    
    34   17   18 1    
    35   17  141 1    
    36   17  142 1    
    37   18   19 1    
    38   18   67 1    
    39   18  143 1    
    40   19   20 am   BACKBONE|DICT|INTERRES
    41   19  144 1    
    42   20   21 2    
    43   20   22 1    
    44   22   23 1    
    45   22   24 1    
    46   22  145 1    
    47   23  146 1    
    48   23  147 1    
    49   23  148 1    
    50   24   25 am   BACKBONE|DICT|INTERRES
    51   24  149 1    
    52   25   26 2    
    53   25   27 1    
    54   27   28 1    
    55   27   29 1    
    56   27  150 1    
    57   28  151 1    
    58   28  152 1    
    59   28  153 1    
    60   29   30 am   BACKBONE|DICT|INTERRES
    61   29  154 1    
    62   30   31 2    
    63   30   32 1    
    64   32   33 1    
    65   32   34 1    
    66   32  155 1    
    67   33  156 1    
    68   33  157 1    
    69   33  158 1    
    70   34   35 am   BACKBONE|DICT|INTERRES
    71   34  159 1    
    72   35   36 2    
    73   35   37 1    
    74   37   38 1    
    75   37   39 1    
    76   37  160 1    
    77   38  161 1    
    78   38  162 1    
    79   38  163 1    
    80   39   40 am   BACKBONE|DICT|INTERRES
    81   39  164 1    
    82   40   41 2    
    83   40   42 1    
    84   42   43 1    
    85   42   44 1    
    86   42  165 1    
    87   43  166 1    
    88   43  167 1    
    89   43  168 1    
    90   44   45 am   BACKBONE|DICT|INTERRES
    91   44  169 1    
    92   45   46 2    
    93   45   47 1    
    94   47   48 1    
    95   47   49 1    
    96   47  170 1    
    97   48  171 1    
    98   48  172 1    
    99   48  173 1    
   100   49   50 am   BACKBONE|DICT|INTERRES
   101   49  174 1    
   102   50   51 2    
   103   50   52 1    
   104   52   53 1    
   105   52   54 1    
   106   52  175 1    
   107   53  176 1    
   108   53  177 1    
   109   53  178 1    
   110   54   55 am   BACKBONE|DICT|INTERRES
   111   54  179 1    
   112   55   56 2    
   113   55   57 1    
   114   57   58 1    
   115   57   59 1    
   116   57  180 1    
   117   58  181 1    
   118   58  182 1    
   119   58  183 1    
   120   59   60 am   BACKBONE|DICT|INTERRES
   121   59  184 1    
   122   60   61 2    
   123   60   62 1    
   124   62   63 1    
   125   62   64 1    
   126   62  185 1    
   127   63  186 1    
   128   63  187 1    
   129   63  188 1    
   130   64   65 am   BACKBONE|DICT|INTERRES
   131   64  189 1    
   132   65   66 2    
   133   67   68 2    
   134   67   69 am   BACKBONE|DICT|INTERRES
   135   69   70 1    
   136   69  190 1    
   137   70   71 1    
   138   70   72 1    
   139   70  191 1    
   140   71  192 1    
   141   71  193 1    
   142   71  194 1    
   143   72   73 2    
   144   72   74 am   BACKBONE|DICT|INTERRES
   145   74   75 1    
   146   74  195 1    
   147   75   76 1    
   148   75   77 1    
   149   75  196 1    
   150   76  197 1    
   151   76  198 1    
   152   76  199 1    
   153   77   78 2    
   154   77   79 am   BACKBONE|DICT|INTERRES
   155   79   80 1    
   156   79  200 1    
   157   80   81 1    
   158   80   82 1    
   159   80  201 1    
   160   81  202 1    
   161   81  203 1    
   162   81  204 1    
   163   82   83 2    
   164   82   84 am   BACKBONE|DICT|INTERRES
   165   84   85 1    
   166   84  205 1    
   167   85   86 1    
   168   85   87 1    
   169   85  206 1    
   170   86  207 1    
   171   86  208 1    
   172   86  209 1    
   173   87   88 2    
   174   87   89 am   BACKBONE|DICT|INTERRES
   175   89   90 1    
   176   89  210 1    
   177   90   91 1    
   178   90   92 1    
   179   90  211 1    
   180   91  212 1    
   181   91  213 1    
   182   91  214 1    
   183   92   93 2    
   184   92   94 am   BACKBONE|DICT|INTERRES
   185   94   95 1    
   186   94  215 1    
   187   95   96 1    
   188   95   97 1    
   189   95  216 1    
   190   96  217 1    
   191   96  218 1    
   192   96  219 1    
   193   97   98 2    
   194   97   99 am   BACKBONE|DICT|INTERRES
   195   99  100 1    
   196   99  220 1    
   197  100  101 1    
   198  100  102 1    
   199  100  221 1    
   200  101  222 1    
   201  101  223 1    
   202  101  224 1    
   203  102  103 2    
   204  102  104 am   BACKBONE|DICT|INTERRES
   205  104  105 1    
   206  104  225 1    
   207  105  106 1    
   208  105  107 1    
   209  105  226 1    
   210  106  227 1    
   211  106  228 1    
   212  106  229 1    
   213  107  108 2    
   214  107  109 am   BACKBONE|DICT|INTERRES
   215  109  110 1    
   216  109  230 1    
   217  110  111 1    
   218  110  112 1    
   219  110  231 1    
   220  111  232 1    
   221  111  233 1    
   222  111  234 1    
   223  112  113 2    
   224  112  114 am   BACKBONE|DICT|INTERRES
   225  114  115 1    
   226  114  235 1    
   227  115  116 1    
   228  115  117 1    
   229  115  236 1    
   230  116  237 1    
   231  116  238 1    
   232  116  239 1    
   233  117  118 2    
   234  117  119 am   BACKBONE|DICT|INTERRES
   235  119  120 1    
   236  119  240 1    
   237  120  121 1    
   238  120  124 1    
   239  120  241 1    
   240  121  122 am   BACKBONE|DICT|INTERRES
   241  121  123 2    
   242  122  242 1    
   243  122  243 1    
   244  124  125 1    
   245  124  244 1    
   246  124  245 1    
   247  125  126 1    
   248  126  246 1    
   249  126  247 1    
@<TRIPOS>SUBSTRUCTURE
     1 UNK         1 GROUP             0       ****    0 ROOT    
