@<TRIPOS>MOLECULE
3R540
247   249    1
SMALL
USER_CHARGES


@<TRIPOS>ATOM
      1 CA          6.0345  -14.3647  -47.8818 C.3       0 UNK        -0.1800 
      2 C           5.0500  -13.5585  -47.0476 C.2       0 UNK         0.5000 
      3 O           5.2813  -13.3476  -45.8566 O.2       0 UNK        -0.5000 
      4 N           3.9580  -13.0951  -47.6673 N.am      1 UNK        -0.5000 
      5 CA          2.8626  -12.3513  -47.0330 C.3       1 UNK         0.1400 
      6 C6          1.5304  -12.4932  -47.8124 C.3       23 UNK        -0.0398 
      7 S7          0.9664  -14.2196  -47.9590 S.3       23 UNK        -0.2404 
      8 C8          1.1854  -14.5077  -49.7396 C.3       23 UNK        -0.0205 
      9 C9          0.5742  -15.8335  -50.1575 C.ar      23 UNK        -0.0193 
     10 C10        -0.8011  -15.9234  -50.3810 C.ar      23 UNK        -0.1150 
     11 C11        -1.3816  -17.1328  -50.7684 C.ar      23 UNK        -0.0193 
     12 C12        -0.5704  -18.2571  -50.9552 C.ar      23 UNK        -0.1150 
     13 C13         0.8097  -18.1800  -50.7309 C.ar      23 UNK        -0.0193 
     14 C14         1.3745  -16.9660  -50.3274 C.ar      23 UNK        -0.1150 
     15 C15         1.7009  -19.3974  -50.9356 C.3       23 UNK        -0.0205 
     16 S16         1.9552  -20.3298  -49.3904 S.3       23 UNK        -0.2404 
     17 C17         0.3268  -21.1203  -49.2160 C.3       23 UNK        -0.0398 
     18 CA          0.3177  -22.3094  -48.2257 C.3       11 UNK         0.1400 
     19 N           0.4587  -21.8927  -46.8249 N.am      11 UNK        -0.5000 
     20 C           0.5262  -22.7370  -45.7832 C.2       10 UNK         0.5000 
     21 O           0.5554  -23.9621  -45.8952 O.2       10 UNK        -0.5000 
     22 CA          0.4963  -22.1224  -44.3736 C.3       10 UNK         0.1400 
     23 CB          1.8858  -21.6100  -43.9669 C.3       10 UNK        -0.1800 
     24 N          -0.4949  -21.0541  -44.2420 N.am      10 UNK        -0.5000 
     25 C          -1.8184  -21.2190  -44.3851 C.2       9 UNK         0.5000 
     26 O          -2.3511  -22.3048  -44.6073 O.2       9 UNK        -0.5000 
     27 CA         -2.6947  -19.9550  -44.3189 C.3       9 UNK         0.1400 
     28 CB         -2.9521  -19.5369  -42.8642 C.3       9 UNK        -0.1800 
     29 N          -2.1171  -18.8365  -45.0624 N.am      9 UNK        -0.5000 
     30 C          -1.9052  -18.8377  -46.3869 C.2       8 UNK         0.5000 
     31 O          -2.2235  -19.7640  -47.1343 O.2       8 UNK        -0.5000 
     32 CA         -1.1692  -17.6134  -46.9564 C.3       8 UNK         0.1400 
     33 CB         -2.1478  -16.4460  -47.1576 C.3       8 UNK        -0.1800 
     34 N          -0.0613  -17.1931  -46.0959 N.am      8 UNK        -0.5000 
     35 C           1.0346  -17.9312  -45.8654 C.2       7 UNK         0.5000 
     36 O           1.2372  -19.0308  -46.3785 O.2       7 UNK        -0.5000 
     37 CA          2.0346  -17.3866  -44.8289 C.3       7 UNK         0.1400 
     38 CB          2.9664  -16.3343  -45.4480 C.3       7 UNK        -0.1800 
     39 N           1.3612  -16.8313  -43.6527 N.am      7 UNK        -0.5000 
     40 C           0.6790  -17.5761  -42.7673 C.2       6 UNK         0.5000 
     41 O           0.5993  -18.8009  -42.8368 O.2       6 UNK        -0.5000 
     42 CA         -0.0702  -16.8513  -41.6311 C.3       6 UNK         0.1400 
     43 CB          0.8014  -16.7963  -40.3679 C.3       6 UNK        -0.1800 
     44 N          -0.4936  -15.4966  -41.9752 N.am      6 UNK        -0.5000 
     45 C          -1.3085  -15.1625  -42.9858 C.2       5 UNK         0.5000 
     46 O          -1.8889  -15.9880  -43.6920 O.2       5 UNK        -0.5000 
     47 CA         -1.4471  -13.6539  -43.2888 C.3       5 UNK         0.1400 
     48 CB         -2.7663  -13.1103  -42.7215 C.3       5 UNK        -0.1800 
     49 N          -0.3323  -12.8421  -42.7772 N.am      5 UNK        -0.5000 
     50 C           0.9490  -12.9876  -43.1407 C.2       4 UNK         0.5000 
     51 O           1.3205  -13.7856  -44.0020 O.2       4 UNK        -0.5000 
     52 CA          1.9800  -12.1227  -42.3983 C.3       4 UNK         0.1400 
     53 CB          3.3676  -12.7883  -42.3658 C.3       4 UNK        -0.1800 
     54 N           2.1071  -10.8220  -43.0395 N.am      4 UNK        -0.5000 
     55 C           1.3221   -9.7573  -42.8357 C.2       3 UNK         0.5000 
     56 O           0.3660   -9.7652  -42.0589 O.2       3 UNK        -0.5000 
     57 CA          1.6342   -8.4787  -43.6487 C.3       3 UNK         0.1400 
     58 CB          1.8885   -7.2630  -42.7351 C.3       3 UNK        -0.1800 
     59 N           2.7082   -8.6510  -44.6402 N.am      3 UNK        -0.5000 
     60 C           4.0233   -8.8275  -44.4419 C.2       2 UNK         0.5000 
     61 O           4.5744   -8.7424  -43.3441 O.2       2 UNK        -0.5000 
     62 CA          4.8192   -9.2981  -45.6775 C.3       2 UNK         0.1400 
     63 CB          6.3345   -9.3733  -45.4196 C.3       2 UNK        -0.1800 
     64 N           4.3509  -10.6194  -46.1075 N.am      2 UNK        -0.5000 
     65 C           3.2322  -10.8678  -46.8000 C.2       1 UNK         0.5000 
     66 O           2.4999   -9.9700  -47.2220 O.2       1 UNK        -0.5000 
     67 C          -0.9560  -23.1509  -48.4384 C.2       11 UNK         0.5000 
     68 O          -0.8734  -24.2466  -48.9958 O.2       11 UNK        -0.5000 
     69 N          -2.1022  -22.6345  -47.9720 N.am      12 UNK        -0.5000 
     70 CA         -3.4018  -23.2958  -48.0802 C.3       12 UNK         0.1400 
     71 CB         -4.5088  -22.3388  -47.6165 C.3       12 UNK        -0.1800 
     72 C          -3.4638  -24.6328  -47.3194 C.2       12 UNK         0.5000 
     73 O          -3.9930  -25.6081  -47.8516 O.2       12 UNK        -0.5000 
     74 N          -2.8861  -24.6702  -46.1109 N.am      13 UNK        -0.5000 
     75 CA         -2.7682  -25.8694  -45.2815 C.3       13 UNK         0.1400 
     76 CB         -2.2610  -25.4831  -43.8840 C.3       13 UNK        -0.1800 
     77 C          -1.8642  -26.9464  -45.9076 C.2       13 UNK         0.5000 
     78 O          -2.2090  -28.1270  -45.8502 O.2       13 UNK        -0.5000 
     79 N          -0.7404  -26.5258  -46.5064 N.am      14 UNK        -0.5000 
     80 CA          0.2017  -27.4016  -47.2045 C.3       14 UNK         0.1400 
     81 CB          1.4959  -26.6328  -47.5114 C.3       14 UNK        -0.1800 
     82 C          -0.3913  -28.0051  -48.4898 C.2       14 UNK         0.5000 
     83 O          -0.1930  -29.1929  -48.7491 O.2       14 UNK        -0.5000 
     84 N          -1.1172  -27.1846  -49.2614 N.am      15 UNK        -0.5000 
     85 CA         -1.8108  -27.6050  -50.4796 C.3       15 UNK         0.1400 
     86 CB         -2.1983  -26.3603  -51.2905 C.3       15 UNK        -0.1800 
     87 C          -3.0634  -28.4555  -50.2012 C.2       15 UNK         0.5000 
     88 O          -3.4131  -29.2973  -51.0292 O.2       15 UNK        -0.5000 
     89 N          -3.7256  -28.1900  -49.0644 N.am      16 UNK        -0.5000 
     90 CA         -5.0486  -28.6835  -48.6653 C.3       16 UNK         0.1400 
     91 CB         -5.0308  -30.2081  -48.4309 C.3       16 UNK        -0.1800 
     92 C          -6.1467  -28.2220  -49.6491 C.2       16 UNK         0.5000 
     93 O          -7.0663  -28.9800  -49.9639 O.2       16 UNK        -0.5000 
     94 N          -6.0047  -26.9842  -50.1361 N.am      17 UNK        -0.5000 
     95 CA         -6.7939  -26.3557  -51.1895 C.3       17 UNK         0.1400 
     96 CB         -6.4676  -27.0092  -52.5491 C.3       17 UNK        -0.1800 
     97 C          -6.4655  -24.8540  -51.2094 C.2       17 UNK         0.5000 
     98 O          -5.5993  -24.4041  -50.4545 O.2       17 UNK        -0.5000 
     99 N          -7.1427  -24.1009  -52.0850 N.am      18 UNK        -0.5000 
    100 CA        -6.9031  -22.6768  -52.3260 C.3       18 UNK         0.1400 
    101 CB        -8.1297  -22.0732  -53.0336 C.3       18 UNK        -0.1800 
    102 C         -5.6006  -22.4539  -53.1232 C.2       18 UNK         0.5000 
    103 O         -5.6449  -22.2047  -54.3308 O.2       18 UNK        -0.5000 
    104 N         -4.4612  -22.5899  -52.4336 N.am      19 UNK        -0.5000 
    105 CA        -3.1060  -22.3873  -52.9457 C.3       19 UNK         0.1400 
    106 CB        -2.1096  -22.5617  -51.7934 C.3       19 UNK        -0.1800 
    107 C         -2.9327  -20.9977  -53.5791 C.2       19 UNK         0.5000 
    108 O         -3.2822  -20.0024  -52.9468 O.2       19 UNK        -0.5000 
    109 N         -2.4353  -20.9635  -54.8233 N.am      20 UNK        -0.5000 
    110 CA        -2.2559  -19.7665  -55.6586 C.3       20 UNK         0.1400 
    111 CB        -1.1477  -18.8629  -55.0760 C.3       20 UNK        -0.1800 
    112 C         -3.5692  -18.9961  -55.9427 C.2       20 UNK         0.5000 
    113 O         -3.5225  -17.8055  -56.2557 O.2       20 UNK        -0.5000 
    114 N         -4.7113  -19.6958  -55.8374 N.am      21 UNK        -0.5000 
    115 CA        -6.0838  -19.1908  -55.9365 C.3       21 UNK         0.1400 
    116 CB        -6.3804  -18.6442  -57.3493 C.3       21 UNK        -0.1800 
    117 C         -6.4497  -18.2011  -54.8083 C.2       21 UNK         0.5000 
    118 O         -7.2597  -17.2971  -55.0236 O.2       21 UNK        -0.5000 
    119 N         -5.8668  -18.3962  -53.6205 N.am      22 UNK        -0.5000 
    120 CA        -6.1031  -17.5936  -52.4151 C.3       22 UNK         0.1400 
    121 C         -6.1073  -18.4587  -51.1233 C.2       22 UNK         0.5000 
    122 N         -6.3212  -17.8583  -49.9595 N.am      22 UNK        -0.7600 
    123 O         -5.9526  -19.6762  -51.1550 O.2       22 UNK        -0.5000 
    124 C124       -5.1859  -16.3374  -52.3442 C.3       23 UNK        -0.0398 
    125 S125       -3.3986  -16.6340  -52.5957 S.3       23 UNK        -0.2404 
    126 C126       -2.8880  -17.2168  -50.9510 C.3       23 UNK        -0.0205 
    127 H127        6.1492  -15.3638  -47.4613 H         1 UNK         0.0600 
    128 H128        7.0105  -13.8795  -47.8836 H         1 UNK         0.0600 
    129 H129        5.7022  -14.4670  -48.9151 H         1 UNK         0.0600 
    130 H130        3.8424  -13.2752  -48.6535 H         1 UNK         0.3000 
    131 H131        2.6987  -12.7795  -46.0424 H         1 UNK         0.0600 
    132 H132        1.6142  -12.0430  -48.8029 H         1 UNK         0.0800 
    133 H133        0.7348  -11.9486  -47.3005 H         1 UNK         0.0800 
    134 H134        0.7139  -13.7013  -50.3035 H         1 UNK         0.0800 
    135 H135        2.2477  -14.4813  -49.9857 H         1 UNK         0.0800 
    136 H136       -1.4242  -15.0513  -50.2398 H         1 UNK         0.1150 
    137 H137       -1.0171  -19.1912  -51.2666 H         1 UNK         0.1150 
    138 H138        2.4388  -16.9032  -50.1491 H         1 UNK         0.1150 
    139 H139        1.2840  -20.0509  -51.7035 H         1 UNK         0.0800 
    140 H140        2.6735  -19.0769  -51.3120 H         1 UNK         0.0800 
    141 H141        0.0337  -21.4571  -50.2107 H         1 UNK         0.0800 
    142 H142       -0.3998  -20.3627  -48.9217 H         1 UNK         0.0800 
    143 H143        1.1671  -22.9549  -48.4588 H         1 UNK         0.0600 
    144 H144        0.4991  -20.8928  -46.6506 H         1 UNK         0.3000 
    145 H145        0.2161  -22.9146  -43.6764 H         1 UNK         0.0600 
    146 H146        1.8904  -21.2627  -42.9338 H         1 UNK         0.0600 
    147 H147        2.6319  -22.4016  -44.0465 H         1 UNK         0.0600 
    148 H148        2.2142  -20.7852  -44.5988 H         1 UNK         0.0600 
    149 H149       -0.1368  -20.1350  -43.9988 H         1 UNK         0.3000 
    150 H150       -3.6567  -20.1923  -44.7778 H         1 UNK         0.0600 
    151 H151       -3.4781  -20.3244  -42.3232 H         1 UNK         0.0600 
    152 H152       -3.5668  -18.6380  -42.8121 H         1 UNK         0.0600 
    153 H153       -2.0233  -19.3412  -42.3301 H         1 UNK         0.0600 
    154 H154       -1.8490  -18.0161  -44.5318 H         1 UNK         0.3000 
    155 H155       -0.7550  -17.8899  -47.9279 H         1 UNK         0.0600 
    156 H156       -1.6560  -15.5886  -47.6142 H         1 UNK         0.0600 
    157 H157       -2.9677  -16.7382  -47.8137 H         1 UNK         0.0600 
    158 H158       -2.5886  -16.1154  -46.2176 H         1 UNK         0.0600 
    159 H159       -0.1692  -16.3157  -45.6086 H         1 UNK         0.3000 
    160 H160        2.6540  -18.2233  -44.4987 H         1 UNK         0.0600 
    161 H161        2.4200  -15.4462  -45.7613 H         1 UNK         0.0600 
    162 H162        3.4768  -16.7306  -46.3267 H         1 UNK         0.0600 
    163 H163        3.7321  -16.0177  -44.7397 H         1 UNK         0.0600 
    164 H164        1.3602  -15.8208  -43.5664 H         1 UNK         0.3000 
    165 H165       -0.9676  -17.4287  -41.4034 H         1 UNK         0.0600 
    166 H166        0.2561  -16.3618  -39.5298 H         1 UNK         0.0600 
    167 H167        1.1146  -17.7967  -40.0659 H         1 UNK         0.0600 
    168 H168        1.7035  -16.2038  -40.5268 H         1 UNK         0.0600 
    169 H169       -0.0745  -14.7480  -41.4448 H         1 UNK         0.3000 
    170 H170       -1.4680  -13.5440  -44.3751 H         1 UNK         0.0600 
    171 H171       -3.6182  -13.6738  -43.1047 H         1 UNK         0.0600 
    172 H172       -2.7926  -13.1743  -41.6330 H         1 UNK         0.0600 
    173 H173       -2.9160  -12.0672  -43.0011 H         1 UNK         0.0600 
    174 H174       -0.5631  -12.1316  -42.0954 H         1 UNK         0.3000 
    175 H175        1.6461  -11.9920  -41.3667 H         1 UNK         0.0600 
    176 H176        3.3169  -13.7752  -41.9040 H         1 UNK         0.0600 
    177 H177        3.7823  -12.9162  -43.3671 H         1 UNK         0.0600 
    178 H178        4.0749  -12.1944  -41.7867 H         1 UNK         0.0600 
    179 H179        2.8659  -10.7225  -43.6954 H         1 UNK         0.3000 
    180 H180        0.7339   -8.2678  -44.2275 H         1 UNK         0.0600 
    181 H181        2.7190   -7.4322  -42.0497 H         1 UNK         0.0600 
    182 H182        1.0097   -7.0449  -42.1271 H         1 UNK         0.0600 
    183 H183        2.1086   -6.3690  -43.3184 H         1 UNK         0.0600 
    184 H184        2.3825   -8.8080  -45.5899 H         1 UNK         0.3000 
    185 H185        4.6501   -8.5754  -46.4786 H         1 UNK         0.0600 
    186 H186        6.7256   -8.4062  -45.1010 H         1 UNK         0.0600 
    187 H187        6.5769  -10.1001  -44.6431 H         1 UNK         0.0600 
    188 H188        6.8728   -9.6591  -46.3235 H         1 UNK         0.0600 
    189 H189        4.8937  -11.4216  -45.8001 H         1 UNK         0.3000 
    190 H190       -2.0918  -21.7184  -47.5326 H         1 UNK         0.3000 
    191 H191       -3.5633  -23.5132  -49.1365 H         1 UNK         0.0600 
    192 H192       -4.3832  -22.0531  -46.5717 H         1 UNK         0.0600 
    193 H193       -5.4907  -22.8025  -47.7189 H         1 UNK         0.0600 
    194 H194       -4.5158  -21.4274  -48.2150 H         1 UNK         0.0600 
    195 H195       -2.5179  -23.8079  -45.7160 H         1 UNK         0.3000 
    196 H196       -3.7667  -26.2977  -45.1728 H         1 UNK         0.0600 
    197 H197       -2.1742  -26.3607  -43.2422 H         1 UNK         0.0600 
    198 H198       -2.9448  -24.7890  -43.3951 H         1 UNK         0.0600 
    199 H199       -1.2798  -25.0095  -43.9296 H         1 UNK         0.0600 
    200 H200       -0.4993  -25.5396  -46.4683 H         1 UNK         0.3000 
    201 H201        0.4517  -28.2275  -46.5353 H         1 UNK         0.0600 
    202 H202        1.9738  -26.2864  -46.5949 H         1 UNK         0.0600 
    203 H203        1.3082  -25.7615  -48.1397 H         1 UNK         0.0600 
    204 H204        2.2140  -27.2668  -48.0328 H         1 UNK         0.0600 
    205 H205       -1.1823  -26.2020  -49.0099 H         1 UNK         0.3000 
    206 H206       -1.1241  -28.2047  -51.0807 H         1 UNK         0.0600 
    207 H207       -1.3182  -25.7720  -51.5503 H         1 UNK         0.0600 
    208 H208       -2.6937  -26.6357  -52.2224 H         1 UNK         0.0600 
    209 H209       -2.8827  -25.7198  -50.7323 H         1 UNK         0.0600 
    210 H210       -3.3790  -27.4256  -48.4946 H         1 UNK         0.3000 
    211 H211       -5.2742  -28.2065  -47.7105 H         1 UNK         0.0600 
    212 H212       -4.8823  -30.7623  -49.3579 H         1 UNK         0.0600 
    213 H213       -5.9726  -30.5457  -47.9971 H         1 UNK         0.0600 
    214 H214       -4.2360  -30.4894  -47.7399 H         1 UNK         0.0600 
    215 H215       -5.2728  -26.3871  -49.7639 H         1 UNK         0.3000 
    216 H216       -7.8547  -26.4743  -50.9611 H         1 UNK         0.0600 
    217 H217       -5.4116  -26.8995  -52.8000 H         1 UNK         0.0600 
    218 H218       -7.0465  -26.5624  -53.3578 H         1 UNK         0.0600 
    219 H219       -6.6983  -28.0743  -52.5478 H         1 UNK         0.0600 
    220 H220       -7.8205  -24.5442  -52.6877 H         1 UNK         0.3000 
    221 H221       -6.7971  -22.1748  -51.3622 H         1 UNK         0.0600 
    222 H222       -9.0258  -22.1722  -52.4209 H         1 UNK         0.0600 
    223 H223       -8.3233  -22.5543  -53.9930 H         1 UNK         0.0600 
    224 H224       -7.9821  -21.0087  -53.2219 H         1 UNK         0.0600 
    225 H225       -4.5425  -22.8533  -51.4595 H         1 UNK         0.3000 
    226 H226       -2.9163  -23.1575  -53.6956 H         1 UNK         0.0600 
    227 H227       -2.2126  -23.5383  -51.3267 H         1 UNK         0.0600 
    228 H228       -1.0820  -22.4756  -52.1482 H         1 UNK         0.0600 
    229 H229       -2.2610  -21.8075  -51.0198 H         1 UNK         0.0600 
    230 H230       -2.1957  -21.8384  -55.2690 H         1 UNK         0.3000 
    231 H231       -1.9084  -20.1243  -56.6286 H         1 UNK         0.0600 
    232 H232       -1.4427  -18.4217  -54.1237 H         1 UNK         0.0600 
    233 H233       -0.9105  -18.0429  -55.7546 H         1 UNK         0.0600 
    234 H234       -0.2272  -19.4229  -54.9125 H         1 UNK         0.0600 
    235 H235       -4.6442  -20.6627  -55.5414 H         1 UNK         0.3000 
    236 H236       -6.7286  -20.0577  -55.7858 H         1 UNK         0.0600 
    237 H237       -7.4429  -18.4297  -57.4690 H         1 UNK         0.0600 
    238 H238       -5.8383  -17.7201  -57.5509 H         1 UNK         0.0600 
    239 H239       -6.1090  -19.3682  -58.1176 H         1 UNK         0.0600 
    240 H240       -5.1894  -19.1423  -53.4993 H         1 UNK         0.3000 
    241 H241       -7.1316  -17.2319  -52.4697 H         1 UNK         0.0600 
    242 H242       -6.3392  -18.4229  -49.1253 H         1 UNK         0.3800 
    243 H243       -6.4992  -16.8693  -49.8892 H         1 UNK         0.3800 
    244 H244       -5.3324  -15.7841  -51.4163 H         1 UNK         0.0800 
    245 H245       -5.4944  -15.6472  -53.1303 H         1 UNK         0.0800 
    246 H246       -3.2239  -18.2451  -50.8097 H         1 UNK         0.0800 
    247 H247       -3.3812  -16.6209  -50.1826 H         1 UNK         0.0800 
@<TRIPOS>BOND
     1    1    2 1    
     2    1  127 1    
     3    1  128 1    
     4    1  129 1    
     5    2    3 2    
     6    2    4 am   BACKBONE|DICT|INTERRES
     7    4    5 1    
     8    4  130 1    
     9    5    6 1    
    10    5   65 1    
    11    5  131 1    
    12    6    7 1    
    13    6  132 1    
    14    6  133 1    
    15    7    8 1    
    16    8    9 1    
    17    8  134 1    
    18    8  135 1    
    19    9   10 ar   
    20    9   14 ar   
    21   10   11 ar   
    22   10  136 1    
    23   11   12 ar   
    24   11  126 1    
    25   12   13 ar   
    26   12  137 1    
    27   13   14 ar   
    28   13   15 1    
    29   14  138 1    
    30   15   16 1    
    31   15  139 1    
    32   15  140 1    
    33   16   17 1    
    34   17   18 1    
    35   17  141 1    
    36   17  142 1    
    37   18   19 1    
    38   18   67 1    
    39   18  143 1    
    40   19   20 am   BACKBONE|DICT|INTERRES
    41   19  144 1    
    42   20   21 2    
    43   20   22 1    
    44   22   23 1    
    45   22   24 1    
    46   22  145 1    
    47   23  146 1    
    48   23  147 1    
    49   23  148 1    
    50   24   25 am   BACKBONE|DICT|INTERRES
    51   24  149 1    
    52   25   26 2    
    53   25   27 1    
    54   27   28 1    
    55   27   29 1    
    56   27  150 1    
    57   28  151 1    
    58   28  152 1    
    59   28  153 1    
    60   29   30 am   BACKBONE|DICT|INTERRES
    61   29  154 1    
    62   30   31 2    
    63   30   32 1    
    64   32   33 1    
    65   32   34 1    
    66   32  155 1    
    67   33  156 1    
    68   33  157 1    
    69   33  158 1    
    70   34   35 am   BACKBONE|DICT|INTERRES
    71   34  159 1    
    72   35   36 2    
    73   35   37 1    
    74   37   38 1    
    75   37   39 1    
    76   37  160 1    
    77   38  161 1    
    78   38  162 1    
    79   38  163 1    
    80   39   40 am   BACKBONE|DICT|INTERRES
    81   39  164 1    
    82   40   41 2    
    83   40   42 1    
    84   42   43 1    
    85   42   44 1    
    86   42  165 1    
    87   43  166 1    
    88   43  167 1    
    89   43  168 1    
    90   44   45 am   BACKBONE|DICT|INTERRES
    91   44  169 1    
    92   45   46 2    
    93   45   47 1    
    94   47   48 1    
    95   47   49 1    
    96   47  170 1    
    97   48  171 1    
    98   48  172 1    
    99   48  173 1    
   100   49   50 am   BACKBONE|DICT|INTERRES
   101   49  174 1    
   102   50   51 2    
   103   50   52 1    
   104   52   53 1    
   105   52   54 1    
   106   52  175 1    
   107   53  176 1    
   108   53  177 1    
   109   53  178 1    
   110   54   55 am   BACKBONE|DICT|INTERRES
   111   54  179 1    
   112   55   56 2    
   113   55   57 1    
   114   57   58 1    
   115   57   59 1    
   116   57  180 1    
   117   58  181 1    
   118   58  182 1    
   119   58  183 1    
   120   59   60 am   BACKBONE|DICT|INTERRES
   121   59  184 1    
   122   60   61 2    
   123   60   62 1    
   124   62   63 1    
   125   62   64 1    
   126   62  185 1    
   127   63  186 1    
   128   63  187 1    
   129   63  188 1    
   130   64   65 am   BACKBONE|DICT|INTERRES
   131   64  189 1    
   132   65   66 2    
   133   67   68 2    
   134   67   69 am   BACKBONE|DICT|INTERRES
   135   69   70 1    
   136   69  190 1    
   137   70   71 1    
   138   70   72 1    
   139   70  191 1    
   140   71  192 1    
   141   71  193 1    
   142   71  194 1    
   143   72   73 2    
   144   72   74 am   BACKBONE|DICT|INTERRES
   145   74   75 1    
   146   74  195 1    
   147   75   76 1    
   148   75   77 1    
   149   75  196 1    
   150   76  197 1    
   151   76  198 1    
   152   76  199 1    
   153   77   78 2    
   154   77   79 am   BACKBONE|DICT|INTERRES
   155   79   80 1    
   156   79  200 1    
   157   80   81 1    
   158   80   82 1    
   159   80  201 1    
   160   81  202 1    
   161   81  203 1    
   162   81  204 1    
   163   82   83 2    
   164   82   84 am   BACKBONE|DICT|INTERRES
   165   84   85 1    
   166   84  205 1    
   167   85   86 1    
   168   85   87 1    
   169   85  206 1    
   170   86  207 1    
   171   86  208 1    
   172   86  209 1    
   173   87   88 2    
   174   87   89 am   BACKBONE|DICT|INTERRES
   175   89   90 1    
   176   89  210 1    
   177   90   91 1    
   178   90   92 1    
   179   90  211 1    
   180   91  212 1    
   181   91  213 1    
   182   91  214 1    
   183   92   93 2    
   184   92   94 am   BACKBONE|DICT|INTERRES
   185   94   95 1    
   186   94  215 1    
   187   95   96 1    
   188   95   97 1    
   189   95  216 1    
   190   96  217 1    
   191   96  218 1    
   192   96  219 1    
   193   97   98 2    
   194   97   99 am   BACKBONE|DICT|INTERRES
   195   99  100 1    
   196   99  220 1    
   197  100  101 1    
   198  100  102 1    
   199  100  221 1    
   200  101  222 1    
   201  101  223 1    
   202  101  224 1    
   203  102  103 2    
   204  102  104 am   BACKBONE|DICT|INTERRES
   205  104  105 1    
   206  104  225 1    
   207  105  106 1    
   208  105  107 1    
   209  105  226 1    
   210  106  227 1    
   211  106  228 1    
   212  106  229 1    
   213  107  108 2    
   214  107  109 am   BACKBONE|DICT|INTERRES
   215  109  110 1    
   216  109  230 1    
   217  110  111 1    
   218  110  112 1    
   219  110  231 1    
   220  111  232 1    
   221  111  233 1    
   222  111  234 1    
   223  112  113 2    
   224  112  114 am   BACKBONE|DICT|INTERRES
   225  114  115 1    
   226  114  235 1    
   227  115  116 1    
   228  115  117 1    
   229  115  236 1    
   230  116  237 1    
   231  116  238 1    
   232  116  239 1    
   233  117  118 2    
   234  117  119 am   BACKBONE|DICT|INTERRES
   235  119  120 1    
   236  119  240 1    
   237  120  121 1    
   238  120  124 1    
   239  120  241 1    
   240  121  122 am   BACKBONE|DICT|INTERRES
   241  121  123 2    
   242  122  242 1    
   243  122  243 1    
   244  124  125 1    
   245  124  244 1    
   246  124  245 1    
   247  125  126 1    
   248  126  246 1    
   249  126  247 1    
@<TRIPOS>SUBSTRUCTURE
     1 UNK         1 GROUP             0       ****    0 ROOT    
