@<TRIPOS>MOLECULE
3R540
247   249    1
SMALL
USER_CHARGES


@<TRIPOS>ATOM
      1 CA          0.2208  -13.7638  -52.6203 C.3       0 UNK        -0.1800 
      2 C           0.5466  -13.9273  -51.1428 C.2       0 UNK         0.5000 
      3 O           1.5841  -14.4968  -50.8018 O.2       0 UNK        -0.5000 
      4 N          -0.3275  -13.4231  -50.2625 N.am      1 UNK        -0.5000 
      5 CA         -0.2091  -13.5106  -48.8035 C.3       1 UNK         0.1400 
      6 C6         -1.6038  -13.5098  -48.1238 C.3       23 UNK        -0.0398 
      7 S7         -1.5451  -14.2683  -46.4645 S.3       23 UNK        -0.2404 
      8 C8         -2.3979  -15.8637  -46.7095 C.3       23 UNK        -0.0205 
      9 C9         -1.8118  -16.7111  -47.8334 C.ar      23 UNK        -0.0193 
     10 C10        -2.6551  -17.2279  -48.8194 C.ar      23 UNK        -0.1150 
     11 C11        -2.1481  -18.0177  -49.8575 C.ar      23 UNK        -0.0193 
     12 C12        -0.7715  -18.2497  -49.9243 C.ar      23 UNK        -0.1150 
     13 C13         0.0875  -17.7255  -48.9546 C.ar      23 UNK        -0.0193 
     14 C14        -0.4423  -16.9827  -47.8958 C.ar      23 UNK        -0.1150 
     15 C15         1.5916  -17.9205  -49.0784 C.3       23 UNK        -0.0205 
     16 S16         2.1060  -19.6383  -48.7708 S.3       23 UNK        -0.2404 
     17 C17         1.6982  -19.8233  -47.0032 C.3       23 UNK        -0.0398 
     18 CA          0.9799  -21.1508  -46.6718 C.3       11 UNK         0.1400 
     19 N           0.9468  -21.3793  -45.2274 N.am      11 UNK        -0.5000 
     20 C           0.5943  -22.5230  -44.6291 C.2       10 UNK         0.5000 
     21 O           0.2681  -23.5397  -45.2391 O.2       10 UNK        -0.5000 
     22 CA          0.5634  -22.5161  -43.0896 C.3       10 UNK         0.1400 
     23 CB          1.9768  -22.6691  -42.5082 C.3       10 UNK        -0.1800 
     24 N          -0.0617  -21.3085  -42.5492 N.am      10 UNK        -0.5000 
     25 C          -1.3510  -20.9851  -42.7253 C.2       9 UNK         0.5000 
     26 O          -2.1593  -21.6931  -43.3272 O.2       9 UNK        -0.5000 
     27 CA         -1.8009  -19.6196  -42.1753 C.3       9 UNK         0.1400 
     28 CB         -2.0376  -19.6922  -40.6595 C.3       9 UNK        -0.1800 
     29 N          -0.8495  -18.5478  -42.4729 N.am      9 UNK        -0.5000 
     30 C          -0.5178  -18.1541  -43.7110 C.2       8 UNK         0.5000 
     31 O          -0.9971  -18.6350  -44.7355 O.2       8 UNK        -0.5000 
     32 CA          0.5706  -17.0777  -43.8296 C.3       8 UNK         0.1400 
     33 CB          0.0083  -15.6957  -43.4685 C.3       8 UNK        -0.1800 
     34 N           1.7314  -17.3601  -42.9916 N.am      8 UNK        -0.5000 
     35 C           2.5048  -18.4504  -43.0540 C.2       7 UNK         0.5000 
     36 O           2.3596  -19.3478  -43.8804 O.2       7 UNK        -0.5000 
     37 CA          3.5926  -18.5819  -41.9764 C.3       7 UNK         0.1400 
     38 CB          4.8504  -17.7864  -42.3562 C.3       7 UNK        -0.1800 
     39 N           3.1137  -18.1422  -40.6671 N.am      7 UNK        -0.5000 
     40 C           2.2265  -18.8119  -39.9202 C.2       6 UNK         0.5000 
     41 O           1.7381  -19.8962  -40.2428 O.2       6 UNK        -0.5000 
     42 CA          1.7957  -18.1358  -38.6050 C.3       6 UNK         0.1400 
     43 CB          2.8480  -18.3595  -37.5085 C.3       6 UNK        -0.1800 
     44 N           1.5498  -16.6989  -38.7577 N.am      6 UNK        -0.5000 
     45 C           0.5225  -16.1887  -39.4499 C.2       5 UNK         0.5000 
     46 O          -0.3117  -16.8792  -40.0366 O.2       5 UNK        -0.5000 
     47 CA          0.4169  -14.6507  -39.5242 C.3       5 UNK         0.1400 
     48 CB         -0.1860  -14.0945  -38.2250 C.3       5 UNK        -0.1800 
     49 N           1.6547  -13.9185  -39.8334 N.am      5 UNK        -0.5000 
     50 C           2.5362  -14.2136  -40.7985 C.2       4 UNK         0.5000 
     51 O           2.5428  -15.2741  -41.4210 O.2       4 UNK        -0.5000 
     52 CA          3.6110  -13.1588  -41.1186 C.3       4 UNK         0.1400 
     53 CB          4.8073  -13.3112  -40.1670 C.3       4 UNK        -0.1800 
     54 N           4.0838  -13.3036  -42.4991 N.am      4 UNK        -0.5000 
     55 C           3.3651  -13.0048  -43.5897 C.2       3 UNK         0.5000 
     56 O           2.2797  -12.4183  -43.5628 O.2       3 UNK        -0.5000 
     57 CA          3.9510  -13.4672  -44.9323 C.3       3 UNK         0.1400 
     58 CB          3.6766  -14.9649  -45.1677 C.3       3 UNK        -0.1800 
     59 N           3.3668  -12.6937  -46.0245 N.am      3 UNK        -0.5000 
     60 C           3.9595  -12.4544  -47.1992 C.2       2 UNK         0.5000 
     61 O           5.0864  -12.8628  -47.4877 O.2       2 UNK        -0.5000 
     62 CA          3.1305  -11.6722  -48.2336 C.3       2 UNK         0.1400 
     63 CB          3.9554  -11.2478  -49.4624 C.3       2 UNK        -0.1800 
     64 N           2.0234  -12.5106  -48.6846 N.am      2 UNK        -0.5000 
     65 C           0.7629  -12.4433  -48.2450 C.2       1 UNK         0.5000 
     66 O           0.3709  -11.5862  -47.4512 O.2       1 UNK        -0.5000 
     67 C          -0.4245  -21.2552  -47.3061 C.2       11 UNK         0.5000 
     68 O          -0.5749  -21.9296  -48.3243 O.2       11 UNK        -0.5000 
     69 N          -1.4374  -20.6540  -46.6660 N.am      12 UNK        -0.5000 
     70 CA         -2.8393  -20.7377  -47.0793 C.3       12 UNK         0.1400 
     71 CB         -3.6885  -19.7918  -46.2178 C.3       12 UNK        -0.1800 
     72 C          -3.3975  -22.1722  -47.0199 C.2       12 UNK         0.5000 
     73 O          -4.1551  -22.5641  -47.9073 O.2       12 UNK        -0.5000 
     74 N          -2.9945  -22.9381  -45.9951 N.am      13 UNK        -0.5000 
     75 CA         -3.3242  -24.3562  -45.8486 C.3       13 UNK         0.1400 
     76 CB         -2.9875  -24.8198  -44.4233 C.3       13 UNK        -0.1800 
     77 C          -2.6196  -25.2387  -46.8971 C.2       13 UNK         0.5000 
     78 O          -3.2374  -26.1679  -47.4182 O.2       13 UNK        -0.5000 
     79 N          -1.3502  -24.9278  -47.1982 N.am      14 UNK        -0.5000 
     80 CA         -0.5432  -25.6014  -48.2174 C.3       14 UNK         0.1400 
     81 CB          0.9260  -25.1752  -48.0796 C.3       14 UNK        -0.1800 
     82 C          -1.0505  -25.3528  -49.6501 C.2       14 UNK         0.5000 
     83 O          -0.9705  -26.2560  -50.4834 O.2       14 UNK        -0.5000 
     84 N          -1.6064  -24.1607  -49.9063 N.am      15 UNK        -0.5000 
     85 CA         -2.2237  -23.7338  -51.1671 C.3       15 UNK         0.1400 
     86 CB         -2.2678  -22.1965  -51.1933 C.3       15 UNK        -0.1800 
     87 C          -3.6128  -24.3679  -51.4292 C.2       15 UNK         0.5000 
     88 O          -4.5302  -23.6910  -51.9035 O.2       15 UNK        -0.5000 
     89 N          -3.7394  -25.6641  -51.1196 N.am      16 UNK        -0.5000 
     90 CA         -4.9319  -26.4917  -51.2746 C.3       16 UNK         0.1400 
     91 CB         -4.6401  -27.8821  -50.6898 C.3       16 UNK        -0.1800 
     92 C          -5.3954  -26.6055  -52.7382 C.2       16 UNK         0.5000 
     93 O          -4.5835  -26.4823  -53.6585 O.2       16 UNK        -0.5000 
     94 N          -6.7034  -26.8422  -52.9101 N.am      17 UNK        -0.5000 
     95 CA         -7.4298  -26.8800  -54.1863 C.3       17 UNK         0.1400 
     96 CB         -6.9425  -28.0427  -55.0776 C.3       17 UNK        -0.1800 
     97 C          -7.4367  -25.5159  -54.9126 C.2       17 UNK         0.5000 
     98 O          -7.4919  -25.4750  -56.1428 O.2       17 UNK        -0.5000 
     99 N          -7.4021  -24.4298  -54.1225 N.am      18 UNK        -0.5000 
    100 CA        -7.4187  -23.0226  -54.5318 C.3       18 UNK         0.1400 
    101 CB        -8.7861  -22.6604  -55.1510 C.3       18 UNK        -0.1800 
    102 C         -6.2248  -22.6568  -55.4371 C.2       18 UNK         0.5000 
    103 O         -6.4156  -22.1500  -56.5450 O.2       18 UNK        -0.5000 
    104 N         -5.0088  -22.9513  -54.9597 N.am      19 UNK        -0.5000 
    105 CA        -3.7688  -22.6669  -55.6783 C.3       19 UNK         0.1400 
    106 CB        -2.6421  -23.5414  -55.1106 C.3       19 UNK        -0.1800 
    107 C         -3.3963  -21.1763  -55.5862 C.2       19 UNK         0.5000 
    108 O         -3.4464  -20.5994  -54.4973 O.2       19 UNK        -0.5000 
    109 N         -2.9883  -20.5965  -56.7238 N.am      20 UNK        -0.5000 
    110 CA        -2.5068  -19.2200  -56.8854 C.3       20 UNK         0.1400 
    111 CB        -1.0832  -19.0928  -56.2956 C.3       20 UNK        -0.1800 
    112 C         -3.5111  -18.1764  -56.3447 C.2       20 UNK         0.5000 
    113 O         -4.6778  -18.1979  -56.7430 O.2       20 UNK        -0.5000 
    114 N         -3.0579  -17.3035  -55.4340 N.am      21 UNK        -0.5000 
    115 CA        -3.8457  -16.2500  -54.7866 C.3       21 UNK         0.1400 
    116 CB        -2.9011  -15.3768  -53.9442 C.3       21 UNK        -0.1800 
    117 C         -5.0183  -16.7645  -53.9252 C.2       21 UNK         0.5000 
    118 O         -5.9463  -15.9997  -53.6589 O.2       21 UNK        -0.5000 
    119 N         -4.9645  -18.0383  -53.5162 N.am      22 UNK        -0.5000 
    120 CA        -6.0371  -18.7343  -52.7925 C.3       22 UNK         0.1400 
    121 C         -7.1342  -19.3076  -53.7373 C.2       22 UNK         0.5000 
    122 N         -7.0043  -19.2212  -55.0571 N.am      22 UNK        -0.7600 
    123 O         -8.1391  -19.8264  -53.2607 O.2       22 UNK        -0.5000 
    124 C124       -5.4671  -19.8198  -51.8377 C.3       23 UNK        -0.0398 
    125 S125       -4.6897  -19.1236  -50.3394 S.3       23 UNK        -0.2404 
    126 C126       -3.0579  -18.5718  -50.9483 C.3       23 UNK        -0.0205 
    127 H127        0.9961  -13.1769  -53.1127 H         1 UNK         0.0600 
    128 H128       -0.7352  -13.2623  -52.7722 H         1 UNK         0.0600 
    129 H129        0.1726  -14.7402  -53.1023 H         1 UNK         0.0600 
    130 H130       -1.1392  -12.9291  -50.6050 H         1 UNK         0.3000 
    131 H131        0.2550  -14.4725  -48.5830 H         1 UNK         0.0600 
    132 H132       -2.0130  -12.5012  -48.0473 H         1 UNK         0.0800 
    133 H133       -2.3178  -14.0693  -48.7296 H         1 UNK         0.0800 
    134 H134       -3.4550  -15.6626  -46.8895 H         1 UNK         0.0800 
    135 H135       -2.3510  -16.4358  -45.7828 H         1 UNK         0.0800 
    136 H136       -3.7134  -17.0151  -48.7759 H         1 UNK         0.1150 
    137 H137       -0.3613  -18.8297  -50.7392 H         1 UNK         0.1150 
    138 H138        0.2146  -16.5801  -47.1388 H         1 UNK         0.1150 
    139 H139        1.9026  -17.6337  -50.0840 H         1 UNK         0.0800 
    140 H140        2.1271  -17.2572  -48.3971 H         1 UNK         0.0800 
    141 H141        1.1122  -18.9760  -46.6470 H         1 UNK         0.0800 
    142 H142        2.6448  -19.7754  -46.4641 H         1 UNK         0.0800 
    143 H143        1.5800  -21.9589  -47.0952 H         1 UNK         0.0600 
    144 H144        1.2512  -20.6013  -44.6465 H         1 UNK         0.3000 
    145 H145       -0.0304  -23.3737  -42.7663 H         1 UNK         0.0600 
    146 H146        1.9501  -22.7296  -41.4200 H         1 UNK         0.0600 
    147 H147        2.4522  -23.5800  -42.8741 H         1 UNK         0.0600 
    148 H148        2.6195  -21.8314  -42.7792 H         1 UNK         0.0600 
    149 H149        0.5353  -20.6752  -42.0314 H         1 UNK         0.3000 
    150 H150       -2.7478  -19.3657  -42.6561 H         1 UNK         0.0600 
    151 H151       -2.7429  -20.4861  -40.4107 H         1 UNK         0.0600 
    152 H152       -2.4531  -18.7578  -40.2817 H         1 UNK         0.0600 
    153 H153       -1.1128  -19.8893  -40.1160 H         1 UNK         0.0600 
    154 H154       -0.4359  -18.0718  -41.6774 H         1 UNK         0.3000 
    155 H155        0.9042  -17.0553  -44.8681 H         1 UNK         0.0600 
    156 H156       -0.1925  -15.6103  -42.4026 H         1 UNK         0.0600 
    157 H157       -0.9322  -15.5051  -43.9817 H         1 UNK         0.0600 
    158 H158        0.7009  -14.8999  -43.7414 H         1 UNK         0.0600 
    159 H159        1.9675  -16.6487  -42.2999 H         1 UNK         0.3000 
    160 H160        3.8662  -19.6370  -41.9088 H         1 UNK         0.0600 
    161 H161        5.6638  -17.9844  -41.6581 H         1 UNK         0.0600 
    162 H162        4.6660  -16.7122  -42.3542 H         1 UNK         0.0600 
    163 H163        5.2021  -18.0602  -43.3518 H         1 UNK         0.0600 
    164 H164        3.3901  -17.2161  -40.3729 H         1 UNK         0.3000 
    165 H165        0.8652  -18.6076  -38.2814 H         1 UNK         0.0600 
    166 H166        2.5115  -17.9588  -36.5521 H         1 UNK         0.0600 
    167 H167        3.0407  -19.4234  -37.3642 H         1 UNK         0.0600 
    168 H168        3.7980  -17.8842  -37.7563 H         1 UNK         0.0600 
    169 H169        2.2023  -16.0665  -38.3181 H         1 UNK         0.3000 
    170 H170       -0.2822  -14.4236  -40.3308 H         1 UNK         0.0600 
    171 H171       -1.1167  -14.6054  -37.9739 H         1 UNK         0.0600 
    172 H172        0.4940  -14.2171  -37.3812 H         1 UNK         0.0600 
    173 H173       -0.4169  -13.0332  -38.3187 H         1 UNK         0.0600 
    174 H174        1.7638  -13.0375  -39.3522 H         1 UNK         0.3000 
    175 H175        3.1794  -12.1633  -40.9962 H         1 UNK         0.0600 
    176 H176        5.2668  -14.2970  -40.2522 H         1 UNK         0.0600 
    177 H177        5.5740  -12.5645  -40.3749 H         1 UNK         0.0600 
    178 H178        4.5018  -13.1803  -39.1282 H         1 UNK         0.0600 
    179 H179        4.9480  -13.8116  -42.6150 H         1 UNK         0.3000 
    180 H180        5.0293  -13.2961  -44.9010 H         1 UNK         0.0600 
    181 H181        2.6095  -15.1650  -45.2652 H         1 UNK         0.0600 
    182 H182        4.0495  -15.5715  -44.3431 H         1 UNK         0.0600 
    183 H183        4.1650  -15.3190  -46.0755 H         1 UNK         0.0600 
    184 H184        2.4514  -12.3060  -45.8284 H         1 UNK         0.3000 
    185 H185        2.7602  -10.7660  -47.7499 H         1 UNK         0.0600 
    186 H186        4.8038  -10.6284  -49.1688 H         1 UNK         0.0600 
    187 H187        4.3466  -12.1090  -50.0057 H         1 UNK         0.0600 
    188 H188        3.3514  -10.6631  -50.1565 H         1 UNK         0.0600 
    189 H189        2.2510  -13.2470  -49.3455 H         1 UNK         0.3000 
    190 H190       -1.2382  -20.0689  -45.8571 H         1 UNK         0.3000 
    191 H191       -2.8977  -20.4005  -48.1160 H         1 UNK         0.0600 
    192 H192       -3.6463  -20.0621  -45.1622 H         1 UNK         0.0600 
    193 H193       -4.7343  -19.8165  -46.5262 H         1 UNK         0.0600 
    194 H194       -3.3473  -18.7617  -46.3118 H         1 UNK         0.0600 
    195 H195       -2.4111  -22.5263  -45.2752 H         1 UNK         0.3000 
    196 H196       -4.4010  -24.4684  -45.9919 H         1 UNK         0.0600 
    197 H197       -3.5399  -24.2431  -43.6813 H         1 UNK         0.0600 
    198 H198       -1.9252  -24.7147  -44.2032 H         1 UNK         0.0600 
    199 H199       -3.2499  -25.8689  -44.2822 H         1 UNK         0.0600 
    200 H200       -0.8900  -24.1929  -46.6692 H         1 UNK         0.3000 
    201 H201       -0.6006  -26.6757  -48.0303 H         1 UNK         0.0600 
    202 H202        1.3135  -25.4085  -47.0878 H         1 UNK         0.0600 
    203 H203        1.0526  -24.1056  -48.2459 H         1 UNK         0.0600 
    204 H204        1.5529  -25.6959  -48.8045 H         1 UNK         0.0600 
    205 H205       -1.5751  -23.4605  -49.1718 H         1 UNK         0.3000 
    206 H206       -1.5737  -24.0596  -51.9809 H         1 UNK         0.0600 
    207 H207       -2.6541  -21.8264  -52.1429 H         1 UNK         0.0600 
    208 H208       -2.9072  -21.8036  -50.4019 H         1 UNK         0.0600 
    209 H209       -1.2738  -21.7687  -51.0621 H         1 UNK         0.0600 
    210 H210       -2.9033  -26.1390  -50.7983 H         1 UNK         0.3000 
    211 H211       -5.7296  -26.0255  -50.6929 H         1 UNK         0.0600 
    212 H212       -3.8283  -28.3786  -51.2232 H         1 UNK         0.0600 
    213 H213       -5.5170  -28.5279  -50.7505 H         1 UNK         0.0600 
    214 H214       -4.3587  -27.8160  -49.6383 H         1 UNK         0.0600 
    215 H215       -7.2800  -26.9513  -52.0868 H         1 UNK         0.3000 
    216 H216       -8.4710  -27.0840  -53.9324 H         1 UNK         0.0600 
    217 H217       -7.5967  -28.1727  -55.9404 H         1 UNK         0.0600 
    218 H218       -6.9393  -28.9851  -54.5300 H         1 UNK         0.0600 
    219 H219       -5.9354  -27.8711  -55.4579 H         1 UNK         0.0600 
    220 H220       -7.3268  -24.5869  -53.1278 H         1 UNK         0.3000 
    221 H221       -7.3026  -22.4366  -53.6193 H         1 UNK         0.0600 
    222 H222       -8.9695  -23.1989  -56.0811 H         1 UNK         0.0600 
    223 H223       -9.6012  -22.8888  -54.4644 H         1 UNK         0.0600 
    224 H224       -8.8440  -21.5956  -55.3759 H         1 UNK         0.0600 
    225 H225       -4.9180  -23.3311  -54.0242 H         1 UNK         0.3000 
    226 H226       -3.9068  -22.9386  -56.7272 H         1 UNK         0.0600 
    227 H227       -1.7234  -23.4137  -55.6842 H         1 UNK         0.0600 
    228 H228       -2.4193  -23.2824  -54.0772 H         1 UNK         0.0600 
    229 H229       -2.9048  -24.5991  -55.1435 H         1 UNK         0.0600 
    230 H230       -3.0176  -21.1424  -57.5733 H         1 UNK         0.3000 
    231 H231       -2.4366  -19.0404  -57.9591 H         1 UNK         0.0600 
    232 H232       -0.4108  -19.8224  -56.7473 H         1 UNK         0.0600 
    233 H233       -1.0682  -19.2592  -55.2176 H         1 UNK         0.0600 
    234 H234       -0.6572  -18.1080  -56.4919 H         1 UNK         0.0600 
    235 H235       -2.0914  -17.3740  -55.1517 H         1 UNK         0.3000 
    236 H236       -4.2754  -15.6278  -55.5742 H         1 UNK         0.0600 
    237 H237       -2.1316  -14.9172  -54.5648 H         1 UNK         0.0600 
    238 H238       -3.4455  -14.5681  -53.4549 H         1 UNK         0.0600 
    239 H239       -2.4032  -15.9547  -53.1648 H         1 UNK         0.0600 
    240 H240       -4.1960  -18.6222  -53.8237 H         1 UNK         0.3000 
    241 H241       -6.5601  -18.0041  -52.1720 H         1 UNK         0.0600 
    242 H242       -6.1822  -18.8055  -55.4800 H         1 UNK         0.3800 
    243 H243       -7.7283  -19.5901  -55.6513 H         1 UNK         0.3800 
    244 H244       -6.2640  -20.4751  -51.4820 H         1 UNK         0.0800 
    245 H245       -4.7621  -20.4746  -52.3477 H         1 UNK         0.0800 
    246 H246       -2.5734  -19.3981  -51.4688 H         1 UNK         0.0800 
    247 H247       -3.1908  -17.7757  -51.6766 H         1 UNK         0.0800 
@<TRIPOS>BOND
     1    1    2 1    
     2    1  127 1    
     3    1  128 1    
     4    1  129 1    
     5    2    3 2    
     6    2    4 am   BACKBONE|DICT|INTERRES
     7    4    5 1    
     8    4  130 1    
     9    5    6 1    
    10    5   65 1    
    11    5  131 1    
    12    6    7 1    
    13    6  132 1    
    14    6  133 1    
    15    7    8 1    
    16    8    9 1    
    17    8  134 1    
    18    8  135 1    
    19    9   10 ar   
    20    9   14 ar   
    21   10   11 ar   
    22   10  136 1    
    23   11   12 ar   
    24   11  126 1    
    25   12   13 ar   
    26   12  137 1    
    27   13   14 ar   
    28   13   15 1    
    29   14  138 1    
    30   15   16 1    
    31   15  139 1    
    32   15  140 1    
    33   16   17 1    
    34   17   18 1    
    35   17  141 1    
    36   17  142 1    
    37   18   19 1    
    38   18   67 1    
    39   18  143 1    
    40   19   20 am   BACKBONE|DICT|INTERRES
    41   19  144 1    
    42   20   21 2    
    43   20   22 1    
    44   22   23 1    
    45   22   24 1    
    46   22  145 1    
    47   23  146 1    
    48   23  147 1    
    49   23  148 1    
    50   24   25 am   BACKBONE|DICT|INTERRES
    51   24  149 1    
    52   25   26 2    
    53   25   27 1    
    54   27   28 1    
    55   27   29 1    
    56   27  150 1    
    57   28  151 1    
    58   28  152 1    
    59   28  153 1    
    60   29   30 am   BACKBONE|DICT|INTERRES
    61   29  154 1    
    62   30   31 2    
    63   30   32 1    
    64   32   33 1    
    65   32   34 1    
    66   32  155 1    
    67   33  156 1    
    68   33  157 1    
    69   33  158 1    
    70   34   35 am   BACKBONE|DICT|INTERRES
    71   34  159 1    
    72   35   36 2    
    73   35   37 1    
    74   37   38 1    
    75   37   39 1    
    76   37  160 1    
    77   38  161 1    
    78   38  162 1    
    79   38  163 1    
    80   39   40 am   BACKBONE|DICT|INTERRES
    81   39  164 1    
    82   40   41 2    
    83   40   42 1    
    84   42   43 1    
    85   42   44 1    
    86   42  165 1    
    87   43  166 1    
    88   43  167 1    
    89   43  168 1    
    90   44   45 am   BACKBONE|DICT|INTERRES
    91   44  169 1    
    92   45   46 2    
    93   45   47 1    
    94   47   48 1    
    95   47   49 1    
    96   47  170 1    
    97   48  171 1    
    98   48  172 1    
    99   48  173 1    
   100   49   50 am   BACKBONE|DICT|INTERRES
   101   49  174 1    
   102   50   51 2    
   103   50   52 1    
   104   52   53 1    
   105   52   54 1    
   106   52  175 1    
   107   53  176 1    
   108   53  177 1    
   109   53  178 1    
   110   54   55 am   BACKBONE|DICT|INTERRES
   111   54  179 1    
   112   55   56 2    
   113   55   57 1    
   114   57   58 1    
   115   57   59 1    
   116   57  180 1    
   117   58  181 1    
   118   58  182 1    
   119   58  183 1    
   120   59   60 am   BACKBONE|DICT|INTERRES
   121   59  184 1    
   122   60   61 2    
   123   60   62 1    
   124   62   63 1    
   125   62   64 1    
   126   62  185 1    
   127   63  186 1    
   128   63  187 1    
   129   63  188 1    
   130   64   65 am   BACKBONE|DICT|INTERRES
   131   64  189 1    
   132   65   66 2    
   133   67   68 2    
   134   67   69 am   BACKBONE|DICT|INTERRES
   135   69   70 1    
   136   69  190 1    
   137   70   71 1    
   138   70   72 1    
   139   70  191 1    
   140   71  192 1    
   141   71  193 1    
   142   71  194 1    
   143   72   73 2    
   144   72   74 am   BACKBONE|DICT|INTERRES
   145   74   75 1    
   146   74  195 1    
   147   75   76 1    
   148   75   77 1    
   149   75  196 1    
   150   76  197 1    
   151   76  198 1    
   152   76  199 1    
   153   77   78 2    
   154   77   79 am   BACKBONE|DICT|INTERRES
   155   79   80 1    
   156   79  200 1    
   157   80   81 1    
   158   80   82 1    
   159   80  201 1    
   160   81  202 1    
   161   81  203 1    
   162   81  204 1    
   163   82   83 2    
   164   82   84 am   BACKBONE|DICT|INTERRES
   165   84   85 1    
   166   84  205 1    
   167   85   86 1    
   168   85   87 1    
   169   85  206 1    
   170   86  207 1    
   171   86  208 1    
   172   86  209 1    
   173   87   88 2    
   174   87   89 am   BACKBONE|DICT|INTERRES
   175   89   90 1    
   176   89  210 1    
   177   90   91 1    
   178   90   92 1    
   179   90  211 1    
   180   91  212 1    
   181   91  213 1    
   182   91  214 1    
   183   92   93 2    
   184   92   94 am   BACKBONE|DICT|INTERRES
   185   94   95 1    
   186   94  215 1    
   187   95   96 1    
   188   95   97 1    
   189   95  216 1    
   190   96  217 1    
   191   96  218 1    
   192   96  219 1    
   193   97   98 2    
   194   97   99 am   BACKBONE|DICT|INTERRES
   195   99  100 1    
   196   99  220 1    
   197  100  101 1    
   198  100  102 1    
   199  100  221 1    
   200  101  222 1    
   201  101  223 1    
   202  101  224 1    
   203  102  103 2    
   204  102  104 am   BACKBONE|DICT|INTERRES
   205  104  105 1    
   206  104  225 1    
   207  105  106 1    
   208  105  107 1    
   209  105  226 1    
   210  106  227 1    
   211  106  228 1    
   212  106  229 1    
   213  107  108 2    
   214  107  109 am   BACKBONE|DICT|INTERRES
   215  109  110 1    
   216  109  230 1    
   217  110  111 1    
   218  110  112 1    
   219  110  231 1    
   220  111  232 1    
   221  111  233 1    
   222  111  234 1    
   223  112  113 2    
   224  112  114 am   BACKBONE|DICT|INTERRES
   225  114  115 1    
   226  114  235 1    
   227  115  116 1    
   228  115  117 1    
   229  115  236 1    
   230  116  237 1    
   231  116  238 1    
   232  116  239 1    
   233  117  118 2    
   234  117  119 am   BACKBONE|DICT|INTERRES
   235  119  120 1    
   236  119  240 1    
   237  120  121 1    
   238  120  124 1    
   239  120  241 1    
   240  121  122 am   BACKBONE|DICT|INTERRES
   241  121  123 2    
   242  122  242 1    
   243  122  243 1    
   244  124  125 1    
   245  124  244 1    
   246  124  245 1    
   247  125  126 1    
   248  126  246 1    
   249  126  247 1    
@<TRIPOS>SUBSTRUCTURE
     1 UNK         1 GROUP             0       ****    0 ROOT    
