@<TRIPOS>MOLECULE
3R540
247   249    1
SMALL
USER_CHARGES


@<TRIPOS>ATOM
      1 CA          0.0696  -12.4169  -47.7124 C.3       0 UNK        -0.1800 
      2 C           1.2083  -11.8979  -48.5787 C.2       0 UNK         0.5000 
      3 O           1.2240  -10.7189  -48.9300 O.2       0 UNK        -0.5000 
      4 N           2.1694  -12.7727  -48.9026 N.am      1 UNK        -0.5000 
      5 CA          3.2888  -12.5455  -49.8277 C.3       1 UNK         0.1400 
      6 C6          4.0519  -13.8604  -50.1354 C.3       23 UNK        -0.0398 
      7 S7          4.8429  -14.6868  -48.7001 S.3       23 UNK        -0.2404 
      8 C8          3.5164  -15.6429  -47.8821 C.3       23 UNK        -0.0205 
      9 C9          2.7861  -16.6041  -48.8093 C.ar      23 UNK        -0.0193 
     10 C10         1.6376  -16.1864  -49.4816 C.ar      23 UNK        -0.1150 
     11 C11         0.9472  -17.0400  -50.3507 C.ar      23 UNK        -0.0193 
     12 C12         1.4106  -18.3521  -50.5032 C.ar      23 UNK        -0.1150 
     13 C13         2.5424  -18.7985  -49.8101 C.ar      23 UNK        -0.0193 
     14 C14         3.2323  -17.9157  -48.9743 C.ar      23 UNK        -0.1150 
     15 C15         3.0391  -20.2279  -49.9680 C.3       23 UNK        -0.0205 
     16 S16         2.6245  -21.2550  -48.5214 S.3       23 UNK        -0.2404 
     17 C17         0.8527  -21.5647  -48.8061 C.3       23 UNK        -0.0398 
     18 CA          0.2968  -22.6715  -47.8790 C.3       11 UNK         0.1400 
     19 N           0.1775  -22.2358  -46.4851 N.am      11 UNK        -0.5000 
     20 C          -0.1497  -23.0380  -45.4618 C.2       10 UNK         0.5000 
     21 O          -0.2958  -24.2565  -45.5681 O.2       10 UNK        -0.5000 
     22 CA         -0.4307  -22.3558  -44.1106 C.3       10 UNK         0.1400 
     23 CB          0.8758  -22.0527  -43.3629 C.3       10 UNK        -0.1800 
     24 N          -1.2246  -21.1325  -44.2614 N.am      10 UNK        -0.5000 
     25 C          -2.4897  -21.1096  -44.7062 C.2       9 UNK         0.5000 
     26 O          -3.1284  -22.1265  -44.9714 O.2       9 UNK        -0.5000 
     27 CA         -3.1462  -19.7344  -44.9278 C.3       9 UNK         0.1400 
     28 CB         -3.7450  -19.1984  -43.6195 C.3       9 UNK        -0.1800 
     29 N          -2.2208  -18.7495  -45.4835 N.am      9 UNK        -0.5000 
     30 C          -1.7196  -18.7815  -46.7261 C.2       8 UNK         0.5000 
     31 O          -2.0482  -19.6053  -47.5817 O.2       8 UNK        -0.5000 
     32 CA         -0.6394  -17.7345  -47.0566 C.3       8 UNK         0.1400 
     33 CB         -1.2852  -16.4043  -47.4686 C.3       8 UNK        -0.1800 
     34 N           0.2924  -17.5131  -45.9479 N.am      8 UNK        -0.5000 
     35 C           1.0904  -18.4634  -45.4385 C.2       7 UNK         0.5000 
     36 O           1.1628  -19.6054  -45.8878 O.2       7 UNK        -0.5000 
     37 CA          1.8790  -18.1066  -44.1680 C.3       7 UNK         0.1400 
     38 CB          3.1965  -17.3976  -44.5066 C.3       7 UNK        -0.1800 
     39 N           1.0849  -17.2839  -43.2558 N.am      7 UNK        -0.5000 
     40 C           0.0672  -17.7553  -42.5208 C.2       6 UNK         0.5000 
     41 O          -0.2656  -18.9395  -42.5026 O.2       6 UNK        -0.5000 
     42 CA         -0.7398  -16.7300  -41.7018 C.3       6 UNK         0.1400 
     43 CB         -0.0784  -16.4883  -40.3370 C.3       6 UNK        -0.1800 
     44 N          -0.8995  -15.4514  -42.3955 N.am      6 UNK        -0.5000 
     45 C          -1.5953  -15.2830  -43.5292 C.2       5 UNK         0.5000 
     46 O          -2.2346  -16.1824  -44.0726 O.2       5 UNK        -0.5000 
     47 CA         -1.5166  -13.8939  -44.1947 C.3       5 UNK         0.1400 
     48 CB         -2.6676  -12.9976  -43.7169 C.3       5 UNK        -0.1800 
     49 N          -0.2412  -13.2092  -43.9605 N.am      5 UNK        -0.5000 
     50 C           0.9549  -13.6679  -44.3474 C.2       4 UNK         0.5000 
     51 O           1.1039  -14.7111  -44.9875 O.2       4 UNK        -0.5000 
     52 CA          2.1729  -12.8124  -43.9531 C.3       4 UNK         0.1400 
     53 CB          3.5015  -13.5708  -44.1221 C.3       4 UNK        -0.1800 
     54 N           2.2366  -11.5888  -44.7448 N.am      4 UNK        -0.5000 
     55 C           1.5074  -10.4797  -44.5672 C.2       3 UNK         0.5000 
     56 O           0.6576  -10.3676  -43.6821 O.2       3 UNK        -0.5000 
     57 CA          1.7396   -9.3189  -45.5630 C.3       3 UNK         0.1400 
     58 CB          1.8866   -7.9594  -44.8499 C.3       3 UNK        -0.1800 
     59 N           2.8383   -9.5549  -46.5151 N.am      3 UNK        -0.5000 
     60 C           4.1580   -9.6152  -46.2660 C.2       2 UNK         0.5000 
     61 O           4.6601   -9.3983  -45.1632 O.2       2 UNK        -0.5000 
     62 CA          5.0382  -10.0872  -47.4382 C.3       2 UNK         0.1400 
     63 CB          6.4589  -10.4985  -47.0090 C.3       2 UNK        -0.1800 
     64 N           4.3794  -11.2194  -48.0854 N.am      2 UNK        -0.5000 
     65 C           4.2336  -11.3995  -49.4011 C.2       1 UNK         0.5000 
     66 O           4.7625  -10.6888  -50.2570 O.2       1 UNK        -0.5000 
     67 C          -1.0409  -23.2163  -48.4186 C.2       11 UNK         0.5000 
     68 O          -1.0358  -24.2389  -49.1020 O.2       11 UNK        -0.5000 
     69 N          -2.1613  -22.5624  -48.0766 N.am      12 UNK        -0.5000 
     70 CA         -3.5052  -23.0023  -48.4546 C.3       12 UNK         0.1400 
     71 CB         -4.5347  -21.9133  -48.1337 C.3       12 UNK        -0.1800 
     72 C          -3.8984  -24.3326  -47.7988 C.2       12 UNK         0.5000 
     73 O          -4.4639  -25.1890  -48.4753 O.2       12 UNK        -0.5000 
     74 N          -3.5587  -24.5035  -46.5146 N.am      13 UNK        -0.5000 
     75 CA         -3.7468  -25.7463  -45.7672 C.3       13 UNK         0.1400 
     76 CB         -3.4023  -25.5203  -44.2875 C.3       13 UNK        -0.1800 
     77 C          -2.9318  -26.9116  -46.3575 C.2       13 UNK         0.5000 
     78 O          -3.4730  -28.0056  -46.5195 O.2       13 UNK        -0.5000 
     79 N          -1.6694  -26.6425  -46.7218 N.am      14 UNK        -0.5000 
     80 CA         -0.7796  -27.5881  -47.4005 C.3       14 UNK         0.1400 
     81 CB          0.6400  -27.0038  -47.4570 C.3       14 UNK        -0.1800 
     82 C          -1.2714  -27.9734  -48.8104 C.2       14 UNK         0.5000 
     83 O          -1.1673  -29.1391  -49.1933 O.2       14 UNK        -0.5000 
     84 N          -1.8267  -26.9980  -49.5419 N.am      15 UNK        -0.5000 
     85 CA         -2.4260  -27.1715  -50.8668 C.3       15 UNK         0.1400 
     86 CB         -2.4671  -25.8065  -51.5753 C.3       15 UNK        -0.1800 
     87 C          -3.8375  -27.7927  -50.8385 C.2       15 UNK         0.5000 
     88 O          -4.3874  -28.0568  -51.9069 O.2       15 UNK        -0.5000 
     89 N          -4.4234  -27.9723  -49.6448 N.am      16 UNK        -0.5000 
     90 CA         -5.7983  -28.4228  -49.3935 C.3       16 UNK         0.1400 
     91 CB         -5.9712  -29.9025  -49.7940 C.3       16 UNK        -0.1800 
     92 C          -6.8521  -27.4907  -50.0346 C.2       16 UNK         0.5000 
     93 O          -7.8450  -27.9592  -50.5938 O.2       16 UNK        -0.5000 
     94 N          -6.5845  -26.1793  -49.9553 N.am      17 UNK        -0.5000 
     95 CA         -7.3516  -25.0496  -50.4893 C.3       17 UNK         0.1400 
     96 CB         -8.7569  -24.9863  -49.8565 C.3       17 UNK        -0.1800 
     97 C          -7.3938  -24.9648  -52.0312 C.2       17 UNK         0.5000 
     98 O          -8.1592  -24.1610  -52.5660 O.2       17 UNK        -0.5000 
     99 N          -6.5647  -25.7545  -52.7302 N.am      18 UNK        -0.5000 
    100 CA        -6.4596  -25.7479  -54.1931 C.3       18 UNK         0.1400 
    101 CB        -5.8813  -27.0919  -54.6617 C.3       18 UNK        -0.1800 
    102 C         -5.6106  -24.5816  -54.7394 C.2       18 UNK         0.5000 
    103 O         -5.6517  -24.3201  -55.9426 O.2       18 UNK        -0.5000 
    104 N         -4.8518  -23.9120  -53.8651 N.am      19 UNK        -0.5000 
    105 CA        -3.9695  -22.7927  -54.1734 C.3       19 UNK         0.1400 
    106 CB        -2.6267  -23.3278  -54.7095 C.3       19 UNK        -0.1800 
    107 C         -3.7749  -21.9410  -52.9086 C.2       19 UNK         0.5000 
    108 O         -4.2614  -22.3145  -51.8377 O.2       19 UNK        -0.5000 
    109 N         -3.0476  -20.8263  -53.0645 N.am      20 UNK        -0.5000 
    110 CA        -2.6886  -19.8477  -52.0338 C.3       20 UNK         0.1400 
    111 CB        -1.7475  -20.4737  -50.9853 C.3       20 UNK        -0.1800 
    112 C         -3.9171  -19.1218  -51.4430 C.2       20 UNK         0.5000 
    113 O         -4.8310  -18.7933  -52.2022 O.2       20 UNK        -0.5000 
    114 N         -3.8872  -18.8195  -50.1331 N.am      21 UNK        -0.5000 
    115 CA        -4.8565  -17.9915  -49.3950 C.3       21 UNK         0.1400 
    116 CB        -6.2417  -18.6707  -49.3306 C.3       21 UNK        -0.1800 
    117 C         -4.9289  -16.5411  -49.9269 C.2       21 UNK         0.5000 
    118 O         -5.9924  -15.9187  -49.9065 O.2       21 UNK        -0.5000 
    119 N         -3.7889  -16.0489  -50.4248 N.am      22 UNK        -0.5000 
    120 CA        -3.6091  -14.7233  -51.0238 C.3       22 UNK         0.1400 
    121 C         -3.7127  -13.5479  -50.0060 C.2       22 UNK         0.5000 
    122 N         -3.9553  -12.3338  -50.4821 N.am      22 UNK        -0.7600 
    123 O         -3.5568  -13.7151  -48.7982 O.2       22 UNK        -0.5000 
    124 C124       -2.3088  -14.6827  -51.8717 C.3       23 UNK        -0.0398 
    125 S125       -0.7673  -14.8355  -50.9033 S.3       23 UNK        -0.2404 
    126 C126       -0.2963  -16.5917  -51.1291 C.3       23 UNK        -0.0205 
    127 H127       -0.8491  -12.4707  -48.2970 H         1 UNK         0.0600 
    128 H128       -0.1034  -11.7520  -46.8670 H         1 UNK         0.0600 
    129 H129        0.2804  -13.4124  -47.3237 H         1 UNK         0.0600 
    130 H130        2.1047  -13.7137  -48.5485 H         1 UNK         0.3000 
    131 H131        2.8362  -12.2189  -50.7665 H         1 UNK         0.0600 
    132 H132        3.3937  -14.5624  -50.6445 H         1 UNK         0.0800 
    133 H133        4.8400  -13.6576  -50.8627 H         1 UNK         0.0800 
    134 H134        2.8098  -14.9735  -47.3912 H         1 UNK         0.0800 
    135 H135        3.9806  -16.2130  -47.0780 H         1 UNK         0.0800 
    136 H136        1.2913  -15.1810  -49.3235 H         1 UNK         0.1150 
    137 H137        0.8891  -19.0294  -51.1642 H         1 UNK         0.1150 
    138 H138        4.1111  -18.2552  -48.4442 H         1 UNK         0.1150 
    139 H139        2.6389  -20.6829  -50.8753 H         1 UNK         0.0800 
    140 H140        4.1233  -20.2170  -50.0889 H         1 UNK         0.0800 
    141 H141        0.7378  -21.8495  -49.8534 H         1 UNK         0.0800 
    142 H142        0.3029  -20.6322  -48.6714 H         1 UNK         0.0800 
    143 H143        0.9985  -23.5083  -47.8951 H         1 UNK         0.0600 
    144 H144        0.3566  -21.2512  -46.2998 H         1 UNK         0.3000 
    145 H145       -1.0100  -23.0532  -43.5019 H         1 UNK         0.0600 
    146 H146        0.6794  -21.5974  -42.3922 H         1 UNK         0.0600 
    147 H147        1.4411  -22.9682  -43.1846 H         1 UNK         0.0600 
    148 H148        1.5190  -21.3783  -43.9269 H         1 UNK         0.0600 
    149 H149       -0.7792  -20.2613  -43.9964 H         1 UNK         0.3000 
    150 H150       -3.9617  -19.8665  -45.6416 H         1 UNK         0.0600 
    151 H151       -4.4658  -19.9029  -43.2028 H         1 UNK         0.0600 
    152 H152       -4.2678  -18.2558  -43.7832 H         1 UNK         0.0600 
    153 H153       -2.9779  -19.0275  -42.8643 H         1 UNK         0.0600 
    154 H154       -1.9572  -17.9804  -44.8756 H         1 UNK         0.3000 
    155 H155       -0.0602  -18.1145  -47.8993 H         1 UNK         0.0600 
    156 H156       -1.9456  -16.0128  -46.6961 H         1 UNK         0.0600 
    157 H157       -1.8830  -16.5276  -48.3704 H         1 UNK         0.0600 
    158 H158       -0.5339  -15.6451  -47.6793 H         1 UNK         0.0600 
    159 H159        0.3209  -16.5853  -45.5409 H         1 UNK         0.3000 
    160 H160        2.1293  -19.0397  -43.6593 H         1 UNK         0.0600 
    161 H161        3.0237  -16.4378  -44.9888 H         1 UNK         0.0600 
    162 H162        3.8010  -18.0025  -45.1839 H         1 UNK         0.0600 
    163 H163        3.7901  -17.2198  -43.6100 H         1 UNK         0.0600 
    164 H164        1.2560  -16.2891  -43.2784 H         1 UNK         0.3000 
    165 H165       -1.7337  -17.1491  -41.5311 H         1 UNK         0.0600 
    166 H166       -0.6811  -15.8224  -39.7191 H         1 UNK         0.0600 
    167 H167        0.0357  -17.4242  -39.7883 H         1 UNK         0.0600 
    168 H168        0.9130  -16.0457  -40.4410 H         1 UNK         0.0600 
    169 H169       -0.4117  -14.6568  -42.0093 H         1 UNK         0.3000 
    170 H170       -1.6214  -14.0384  -45.2718 H         1 UNK         0.0600 
    171 H171       -3.6331  -13.4704  -43.9022 H         1 UNK         0.0600 
    172 H172       -2.6010  -12.7920  -42.6478 H         1 UNK         0.0600 
    173 H173       -2.6677  -12.0431  -44.2436 H         1 UNK         0.0600 
    174 H174       -0.2789  -12.3075  -43.4992 H         1 UNK         0.3000 
    175 H175        2.0699  -12.5482  -42.8985 H         1 UNK         0.0600 
    176 H176        3.6742  -13.8662  -45.1578 H         1 UNK         0.0600 
    177 H177        4.3465  -12.9593  -43.8049 H         1 UNK         0.0600 
    178 H178        3.5133  -14.4756  -43.5137 H         1 UNK         0.0600 
    179 H179        2.9160  -11.5767  -45.4861 H         1 UNK         0.3000 
    180 H180        0.8346   -9.2687  -46.1702 H         1 UNK         0.0600 
    181 H181        2.7176   -7.9551  -44.1444 H         1 UNK         0.0600 
    182 H182        0.9849   -7.7162  -44.2866 H         1 UNK         0.0600 
    183 H183        2.0474   -7.1533  -45.5656 H         1 UNK         0.0600 
    184 H184        2.5334   -9.7608  -47.4608 H         1 UNK         0.3000 
    185 H185        5.1130   -9.2467  -48.1313 H         1 UNK         0.0600 
    186 H186        6.9863   -9.6641  -46.5453 H         1 UNK         0.0600 
    187 H187        6.4395  -11.3192  -46.2909 H         1 UNK         0.0600 
    188 H188        7.0503  -10.8191  -47.8668 H         1 UNK         0.0600 
    189 H189        3.9248  -11.8818  -47.4764 H         1 UNK         0.3000 
    190 H190       -2.0918  -21.7009  -47.5476 H         1 UNK         0.3000 
    191 H191       -3.5060  -23.1595  -49.5333 H         1 UNK         0.0600 
    192 H192       -4.6648  -21.7720  -47.0618 H         1 UNK         0.0600 
    193 H193       -5.5092  -22.1687  -48.5515 H         1 UNK         0.0600 
    194 H194       -4.2352  -20.9607  -48.5621 H         1 UNK         0.0600 
    195 H195       -3.1569  -23.7183  -46.0091 H         1 UNK         0.3000 
    196 H196       -4.8035  -26.0139  -45.8314 H         1 UNK         0.0600 
    197 H197       -3.5742  -26.4258  -43.7046 H         1 UNK         0.0600 
    198 H198       -4.0197  -24.7323  -43.8559 H         1 UNK         0.0600 
    199 H199       -2.3586  -25.2367  -44.1529 H         1 UNK         0.0600 
    200 H200       -1.2887  -25.7235  -46.5164 H         1 UNK         0.3000 
    201 H201       -0.7460  -28.5005  -46.8016 H         1 UNK         0.0600 
    202 H202        1.0176  -26.7887  -46.4572 H         1 UNK         0.0600 
    203 H203        0.6728  -26.0783  -48.0319 H         1 UNK         0.0600 
    204 H204        1.3327  -27.7052  -47.9235 H         1 UNK         0.0600 
    205 H205       -1.8033  -26.0482  -49.1821 H         1 UNK         0.3000 
    206 H206       -1.7902  -27.8386  -51.4521 H         1 UNK         0.0600 
    207 H207       -1.4705  -25.3720  -51.6550 H         1 UNK         0.0600 
    208 H208       -2.8601  -25.9004  -52.5883 H         1 UNK         0.0600 
    209 H209       -3.0997  -25.0957  -51.0426 H         1 UNK         0.0600 
    210 H210       -3.9041  -27.6885  -48.8241 H         1 UNK         0.3000 
    211 H211       -5.9475  -28.3532  -48.3151 H         1 UNK         0.0600 
    212 H212       -5.8899  -30.0443  -50.8720 H         1 UNK         0.0600 
    213 H213       -6.9484  -30.2780  -49.4881 H         1 UNK         0.0600 
    214 H214       -5.2191  -30.5296  -49.3154 H         1 UNK         0.0600 
    215 H215       -5.7353  -25.9095  -49.4570 H         1 UNK         0.3000 
    216 H216       -6.8116  -24.1583  -50.1658 H         1 UNK         0.0600 
    217 H217       -9.2638  -24.0572  -50.1193 H         1 UNK         0.0600 
    218 H218       -8.7014  -25.0258  -48.7686 H         1 UNK         0.0600 
    219 H219       -9.3905  -25.8077  -50.1915 H         1 UNK         0.0600 
    220 H220       -5.9747  -26.4122  -52.2362 H         1 UNK         0.3000 
    221 H221       -7.4624  -25.6505  -54.6144 H         1 UNK         0.0600 
    222 H222       -4.8393  -27.2072  -54.3619 H         1 UNK         0.0600 
    223 H223       -6.4447  -27.9317  -54.2543 H         1 UNK         0.0600 
    224 H224       -5.9166  -27.1726  -55.7488 H         1 UNK         0.0600 
    225 H225       -4.9232  -24.1248  -52.8788 H         1 UNK         0.3000 
    226 H226       -4.4411  -22.1616  -54.9295 H         1 UNK         0.0600 
    227 H227       -2.7714  -23.9570  -55.5878 H         1 UNK         0.0600 
    228 H228       -1.9638  -22.5147  -55.0063 H         1 UNK         0.0600 
    229 H229       -2.1030  -23.9197  -53.9583 H         1 UNK         0.0600 
    230 H230       -2.7293  -20.5982  -53.9955 H         1 UNK         0.3000 
    231 H231       -2.1187  -19.0743  -52.5505 H         1 UNK         0.0600 
    232 H232       -0.8980  -20.9580  -51.4661 H         1 UNK         0.0600 
    233 H233       -2.2627  -21.2245  -50.3915 H         1 UNK         0.0600 
    234 H234       -1.3465  -19.7247  -50.3028 H         1 UNK         0.0600 
    235 H235       -3.1145  -19.1679  -49.5784 H         1 UNK         0.3000 
    236 H236       -4.4795  -17.9202  -48.3735 H         1 UNK         0.0600 
    237 H237       -6.9141  -18.1223  -48.6701 H         1 UNK         0.0600 
    238 H238       -6.7170  -18.7184  -50.3105 H         1 UNK         0.0600 
    239 H239       -6.1739  -19.6859  -48.9441 H         1 UNK         0.0600 
    240 H240       -2.9606  -16.6166  -50.3665 H         1 UNK         0.3000 
    241 H241       -4.4426  -14.5925  -51.7170 H         1 UNK         0.0600 
    242 H242       -4.0182  -11.5626  -49.8361 H         1 UNK         0.3800 
    243 H243       -4.0882  -12.1638  -51.4669 H         1 UNK         0.3800 
    244 H244       -2.2583  -13.7455  -52.4279 H         1 UNK         0.0800 
    245 H245       -2.3351  -15.4656  -52.6310 H         1 UNK         0.0800 
    246 H246       -0.1276  -16.7709  -52.1919 H         1 UNK         0.0800 
    247 H247       -1.1325  -17.2229  -50.8316 H         1 UNK         0.0800 
@<TRIPOS>BOND
     1    1    2 1    
     2    1  127 1    
     3    1  128 1    
     4    1  129 1    
     5    2    3 2    
     6    2    4 am   BACKBONE|DICT|INTERRES
     7    4    5 1    
     8    4  130 1    
     9    5    6 1    
    10    5   65 1    
    11    5  131 1    
    12    6    7 1    
    13    6  132 1    
    14    6  133 1    
    15    7    8 1    
    16    8    9 1    
    17    8  134 1    
    18    8  135 1    
    19    9   10 ar   
    20    9   14 ar   
    21   10   11 ar   
    22   10  136 1    
    23   11   12 ar   
    24   11  126 1    
    25   12   13 ar   
    26   12  137 1    
    27   13   14 ar   
    28   13   15 1    
    29   14  138 1    
    30   15   16 1    
    31   15  139 1    
    32   15  140 1    
    33   16   17 1    
    34   17   18 1    
    35   17  141 1    
    36   17  142 1    
    37   18   19 1    
    38   18   67 1    
    39   18  143 1    
    40   19   20 am   BACKBONE|DICT|INTERRES
    41   19  144 1    
    42   20   21 2    
    43   20   22 1    
    44   22   23 1    
    45   22   24 1    
    46   22  145 1    
    47   23  146 1    
    48   23  147 1    
    49   23  148 1    
    50   24   25 am   BACKBONE|DICT|INTERRES
    51   24  149 1    
    52   25   26 2    
    53   25   27 1    
    54   27   28 1    
    55   27   29 1    
    56   27  150 1    
    57   28  151 1    
    58   28  152 1    
    59   28  153 1    
    60   29   30 am   BACKBONE|DICT|INTERRES
    61   29  154 1    
    62   30   31 2    
    63   30   32 1    
    64   32   33 1    
    65   32   34 1    
    66   32  155 1    
    67   33  156 1    
    68   33  157 1    
    69   33  158 1    
    70   34   35 am   BACKBONE|DICT|INTERRES
    71   34  159 1    
    72   35   36 2    
    73   35   37 1    
    74   37   38 1    
    75   37   39 1    
    76   37  160 1    
    77   38  161 1    
    78   38  162 1    
    79   38  163 1    
    80   39   40 am   BACKBONE|DICT|INTERRES
    81   39  164 1    
    82   40   41 2    
    83   40   42 1    
    84   42   43 1    
    85   42   44 1    
    86   42  165 1    
    87   43  166 1    
    88   43  167 1    
    89   43  168 1    
    90   44   45 am   BACKBONE|DICT|INTERRES
    91   44  169 1    
    92   45   46 2    
    93   45   47 1    
    94   47   48 1    
    95   47   49 1    
    96   47  170 1    
    97   48  171 1    
    98   48  172 1    
    99   48  173 1    
   100   49   50 am   BACKBONE|DICT|INTERRES
   101   49  174 1    
   102   50   51 2    
   103   50   52 1    
   104   52   53 1    
   105   52   54 1    
   106   52  175 1    
   107   53  176 1    
   108   53  177 1    
   109   53  178 1    
   110   54   55 am   BACKBONE|DICT|INTERRES
   111   54  179 1    
   112   55   56 2    
   113   55   57 1    
   114   57   58 1    
   115   57   59 1    
   116   57  180 1    
   117   58  181 1    
   118   58  182 1    
   119   58  183 1    
   120   59   60 am   BACKBONE|DICT|INTERRES
   121   59  184 1    
   122   60   61 2    
   123   60   62 1    
   124   62   63 1    
   125   62   64 1    
   126   62  185 1    
   127   63  186 1    
   128   63  187 1    
   129   63  188 1    
   130   64   65 am   BACKBONE|DICT|INTERRES
   131   64  189 1    
   132   65   66 2    
   133   67   68 2    
   134   67   69 am   BACKBONE|DICT|INTERRES
   135   69   70 1    
   136   69  190 1    
   137   70   71 1    
   138   70   72 1    
   139   70  191 1    
   140   71  192 1    
   141   71  193 1    
   142   71  194 1    
   143   72   73 2    
   144   72   74 am   BACKBONE|DICT|INTERRES
   145   74   75 1    
   146   74  195 1    
   147   75   76 1    
   148   75   77 1    
   149   75  196 1    
   150   76  197 1    
   151   76  198 1    
   152   76  199 1    
   153   77   78 2    
   154   77   79 am   BACKBONE|DICT|INTERRES
   155   79   80 1    
   156   79  200 1    
   157   80   81 1    
   158   80   82 1    
   159   80  201 1    
   160   81  202 1    
   161   81  203 1    
   162   81  204 1    
   163   82   83 2    
   164   82   84 am   BACKBONE|DICT|INTERRES
   165   84   85 1    
   166   84  205 1    
   167   85   86 1    
   168   85   87 1    
   169   85  206 1    
   170   86  207 1    
   171   86  208 1    
   172   86  209 1    
   173   87   88 2    
   174   87   89 am   BACKBONE|DICT|INTERRES
   175   89   90 1    
   176   89  210 1    
   177   90   91 1    
   178   90   92 1    
   179   90  211 1    
   180   91  212 1    
   181   91  213 1    
   182   91  214 1    
   183   92   93 2    
   184   92   94 am   BACKBONE|DICT|INTERRES
   185   94   95 1    
   186   94  215 1    
   187   95   96 1    
   188   95   97 1    
   189   95  216 1    
   190   96  217 1    
   191   96  218 1    
   192   96  219 1    
   193   97   98 2    
   194   97   99 am   BACKBONE|DICT|INTERRES
   195   99  100 1    
   196   99  220 1    
   197  100  101 1    
   198  100  102 1    
   199  100  221 1    
   200  101  222 1    
   201  101  223 1    
   202  101  224 1    
   203  102  103 2    
   204  102  104 am   BACKBONE|DICT|INTERRES
   205  104  105 1    
   206  104  225 1    
   207  105  106 1    
   208  105  107 1    
   209  105  226 1    
   210  106  227 1    
   211  106  228 1    
   212  106  229 1    
   213  107  108 2    
   214  107  109 am   BACKBONE|DICT|INTERRES
   215  109  110 1    
   216  109  230 1    
   217  110  111 1    
   218  110  112 1    
   219  110  231 1    
   220  111  232 1    
   221  111  233 1    
   222  111  234 1    
   223  112  113 2    
   224  112  114 am   BACKBONE|DICT|INTERRES
   225  114  115 1    
   226  114  235 1    
   227  115  116 1    
   228  115  117 1    
   229  115  236 1    
   230  116  237 1    
   231  116  238 1    
   232  116  239 1    
   233  117  118 2    
   234  117  119 am   BACKBONE|DICT|INTERRES
   235  119  120 1    
   236  119  240 1    
   237  120  121 1    
   238  120  124 1    
   239  120  241 1    
   240  121  122 am   BACKBONE|DICT|INTERRES
   241  121  123 2    
   242  122  242 1    
   243  122  243 1    
   244  124  125 1    
   245  124  244 1    
   246  124  245 1    
   247  125  126 1    
   248  126  246 1    
   249  126  247 1    
@<TRIPOS>SUBSTRUCTURE
     1 UNK         1 GROUP             0       ****    0 ROOT    
