@<TRIPOS>MOLECULE
3R540
247   249    1
SMALL
USER_CHARGES


@<TRIPOS>ATOM
      1 CA          2.6544   -9.9496  -47.3683 C.3       0 UNK        -0.1800 
      2 C           3.0009  -11.4201  -47.5507 C.2       0 UNK         0.5000 
      3 O           3.9827  -11.8925  -46.9769 O.2       0 UNK        -0.5000 
      4 N           2.2147  -12.1359  -48.3649 N.am      1 UNK        -0.5000 
      5 CA          2.4123  -13.5556  -48.6723 C.3       1 UNK         0.1400 
      6 C6          1.7119  -13.9606  -49.9947 C.3       23 UNK        -0.0398 
      7 S7          2.6240  -15.2728  -50.8764 S.3       23 UNK        -0.2404 
      8 C8          1.3349  -15.9500  -51.9655 C.3       23 UNK        -0.0205 
      9 C9          0.4004  -16.8976  -51.2294 C.ar      23 UNK        -0.0193 
     10 C10        -0.8480  -16.4554  -50.7855 C.ar      23 UNK        -0.1150 
     11 C11        -1.7353  -17.3369  -50.1618 C.ar      23 UNK        -0.0193 
     12 C12        -1.3561  -18.6697  -49.9743 C.ar      23 UNK        -0.1150 
     13 C13        -0.1036  -19.1228  -50.3988 C.ar      23 UNK        -0.0193 
     14 C14         0.7697  -18.2303  -51.0266 C.ar      23 UNK        -0.1150 
     15 C15         0.2936  -20.5826  -50.2255 C.3       23 UNK        -0.0205 
     16 S16         1.4699  -20.8298  -48.8569 S.3       23 UNK        -0.2404 
     17 C17         0.3866  -20.7699  -47.3886 C.3       23 UNK        -0.0398 
     18 CA          0.3004  -22.1336  -46.6585 C.3       11 UNK         0.1400 
     19 N           1.5920  -22.5568  -46.1032 N.am      11 UNK        -0.5000 
     20 C           2.3194  -23.5816  -46.5721 C.2       10 UNK         0.5000 
     21 O           1.9486  -24.3303  -47.4765 O.2       10 UNK        -0.5000 
     22 CA          3.7027  -23.8203  -45.9340 C.3       10 UNK         0.1400 
     23 CB          4.7827  -23.0488  -46.7083 C.3       10 UNK        -0.1800 
     24 N           3.7751  -23.4459  -44.5226 N.am      10 UNK        -0.5000 
     25 C           3.0960  -24.0396  -43.5326 C.2       9 UNK         0.5000 
     26 O           2.3636  -25.0159  -43.6943 O.2       9 UNK        -0.5000 
     27 CA          3.2324  -23.4237  -42.1255 C.3       9 UNK         0.1400 
     28 CB          4.2808  -24.1937  -41.3080 C.3       9 UNK        -0.1800 
     29 N           3.5574  -21.9913  -42.0844 N.am      9 UNK        -0.5000 
     30 C           2.8761  -21.0074  -42.6867 C.2       8 UNK         0.5000 
     31 O           1.9725  -21.1957  -43.5045 O.2       8 UNK        -0.5000 
     32 CA          3.2944  -19.5702  -42.3374 C.3       8 UNK         0.1400 
     33 CB          4.2343  -19.0007  -43.4087 C.3       8 UNK        -0.1800 
     34 N           2.1222  -18.7062  -42.2175 N.am      8 UNK        -0.5000 
     35 C           1.2493  -18.7521  -41.2034 C.2       7 UNK         0.5000 
     36 O           1.3842  -19.4803  -40.2182 O.2       7 UNK        -0.5000 
     37 CA          0.0677  -17.7750  -41.2937 C.3       7 UNK         0.1400 
     38 CB         -0.8598  -17.8127  -40.0633 C.3       7 UNK        -0.1800 
     39 N           0.5956  -16.4270  -41.4878 N.am      7 UNK        -0.5000 
     40 C          -0.0192  -15.4590  -42.1709 C.2       6 UNK         0.5000 
     41 O          -1.1613  -15.5656  -42.6287 O.2       6 UNK        -0.5000 
     42 CA          0.7695  -14.1550  -42.3836 C.3       6 UNK         0.1400 
     43 CB          2.1600  -14.3974  -43.0077 C.3       6 UNK        -0.1800 
     44 N          -0.0245  -13.3017  -43.2556 N.am      6 UNK        -0.5000 
     45 C           0.1077  -11.9875  -43.4475 C.2       5 UNK         0.5000 
     46 O           0.9534  -11.2924  -42.8823 O.2       5 UNK        -0.5000 
     47 CA         -0.8741  -11.3667  -44.4561 C.3       5 UNK         0.1400 
     48 CB         -0.4154   -9.9999  -44.9949 C.3       5 UNK        -0.1800 
     49 N          -1.0987  -12.2950  -45.5653 N.am      5 UNK        -0.5000 
     50 C          -2.2497  -12.4262  -46.2362 C.2       4 UNK         0.5000 
     51 O          -3.2570  -11.7553  -46.0095 O.2       4 UNK        -0.5000 
     52 CA         -2.2866  -13.4991  -47.3355 C.3       4 UNK         0.1400 
     53 CB         -1.6572  -12.9589  -48.6277 C.3       4 UNK        -0.1800 
     54 N          -1.5828  -14.7117  -46.9109 N.am      4 UNK        -0.5000 
     55 C          -2.1836  -15.7732  -46.3534 C.2       3 UNK         0.5000 
     56 O          -3.4028  -15.8554  -46.2017 O.2       3 UNK        -0.5000 
     57 CA         -1.2851  -16.9376  -45.8940 C.3       3 UNK         0.1400 
     58 CB         -1.9067  -18.3193  -46.1582 C.3       3 UNK        -0.1800 
     59 N           0.0541  -16.8650  -46.4844 N.am      3 UNK        -0.5000 
     60 C           1.1869  -17.0466  -45.7966 C.2       2 UNK         0.5000 
     61 O           1.2233  -17.4212  -44.6243 O.2       2 UNK        -0.5000 
     62 CA          2.5181  -16.7531  -46.5136 C.3       2 UNK         0.1400 
     63 CB          3.0709  -18.0325  -47.1583 C.3       2 UNK        -0.1800 
     64 N           2.5213  -15.7020  -47.5357 N.am      2 UNK        -0.5000 
     65 C           2.0022  -14.4679  -47.4938 C.2       1 UNK         0.5000 
     66 O           1.2263  -14.0571  -46.6240 O.2       1 UNK        -0.5000 
     67 C          -0.8180  -22.1389  -45.5984 C.2       11 UNK         0.5000 
     68 O          -1.9727  -21.9249  -45.9614 O.2       11 UNK        -0.5000 
     69 N          -0.5032  -22.4213  -44.3259 N.am      12 UNK        -0.5000 
     70 CA         -1.4627  -22.5000  -43.2167 C.3       12 UNK         0.1400 
     71 CB         -0.7004  -22.7576  -41.9086 C.3       12 UNK        -0.1800 
     72 C          -2.5726  -23.5563  -43.4098 C.2       12 UNK         0.5000 
     73 O          -3.6609  -23.4045  -42.8527 O.2       12 UNK        -0.5000 
     74 N          -2.2967  -24.5846  -44.2233 N.am      13 UNK        -0.5000 
     75 CA         -3.2374  -25.6119  -44.6679 C.3       13 UNK         0.1400 
     76 CB         -2.4312  -26.8163  -45.1865 C.3       13 UNK        -0.1800 
     77 C          -4.2255  -25.0671  -45.7238 C.2       13 UNK         0.5000 
     78 O          -4.1765  -25.4748  -46.8859 O.2       13 UNK        -0.5000 
     79 N          -5.0890  -24.1324  -45.3021 N.am      14 UNK        -0.5000 
     80 CA         -6.1707  -23.5043  -46.0717 C.3       14 UNK         0.1400 
     81 CB         -7.2965  -24.5263  -46.3347 C.3       14 UNK        -0.1800 
     82 C          -5.6751  -22.8214  -47.3635 C.2       14 UNK         0.5000 
     83 O          -6.1897  -23.0972  -48.4492 O.2       14 UNK        -0.5000 
     84 N          -4.6421  -21.9772  -47.2259 N.am      15 UNK        -0.5000 
     85 CA         -3.9317  -21.2855  -48.3088 C.3       15 UNK         0.1400 
     86 CB         -4.8544  -20.2736  -49.0195 C.3       15 UNK        -0.1800 
     87 C          -3.2244  -22.2650  -49.2708 C.2       15 UNK         0.5000 
     88 O          -3.1812  -22.0205  -50.4757 O.2       15 UNK        -0.5000 
     89 N          -2.7169  -23.3770  -48.7148 N.am      16 UNK        -0.5000 
     90 CA         -2.1807  -24.5554  -49.4103 C.3       16 UNK         0.1400 
     91 CB         -0.8295  -24.2395  -50.0840 C.3       16 UNK        -0.1800 
     92 C          -3.2169  -25.1675  -50.3785 C.2       16 UNK         0.5000 
     93 O          -2.9039  -25.4376  -51.5389 O.2       16 UNK        -0.5000 
     94 N          -4.4500  -25.3270  -49.8745 N.am      17 UNK        -0.5000 
     95 CA         -5.6694  -25.6931  -50.6032 C.3       17 UNK         0.1400 
     96 CB         -5.5987  -27.1549  -51.0917 C.3       17 UNK        -0.1800 
     97 C          -6.0042  -24.6848  -51.7264 C.2       17 UNK         0.5000 
     98 O          -6.2893  -25.0858  -52.8565 O.2       17 UNK        -0.5000 
     99 N          -5.9498  -23.3900  -51.3779 N.am      18 UNK        -0.5000 
    100 CA        -6.1563  -22.2170  -52.2362 C.3       18 UNK         0.1400 
    101 CB        -7.6458  -22.0834  -52.6133 C.3       18 UNK        -0.1800 
    102 C         -5.2168  -22.1847  -53.4610 C.2       18 UNK         0.5000 
    103 O         -5.6786  -22.0190  -54.5933 O.2       18 UNK        -0.5000 
    104 N         -3.9105  -22.3491  -53.2089 N.am      19 UNK        -0.5000 
    105 CA        -2.8404  -22.3744  -54.2076 C.3       19 UNK         0.1400 
    106 CB        -1.4929  -22.6129  -53.5125 C.3       19 UNK        -0.1800 
    107 C         -2.8036  -21.0864  -55.0473 C.2       19 UNK         0.5000 
    108 O         -2.5419  -20.0097  -54.5057 O.2       19 UNK        -0.5000 
    109 N         -3.1361  -21.2229  -56.3402 N.am      20 UNK        -0.5000 
    110 CA        -3.2773  -20.1556  -57.3406 C.3       20 UNK         0.1400 
    111 CB        -1.8929  -19.5721  -57.6922 C.3       20 UNK        -0.1800 
    112 C         -4.2902  -19.0577  -56.9405 C.2       20 UNK         0.5000 
    113 O         -4.1617  -17.9167  -57.3888 O.2       20 UNK        -0.5000 
    114 N         -5.2439  -19.4038  -56.0588 N.am      21 UNK        -0.5000 
    115 CA        -6.1917  -18.5099  -55.3833 C.3       21 UNK         0.1400 
    116 CB        -7.2712  -18.0282  -56.3742 C.3       21 UNK        -0.1800 
    117 C         -5.5035  -17.3463  -54.6287 C.2       21 UNK         0.5000 
    118 O         -6.0642  -16.2519  -54.5529 O.2       21 UNK        -0.5000 
    119 N         -4.2896  -17.6001  -54.1153 N.am      22 UNK        -0.5000 
    120 CA        -3.3738  -16.6258  -53.4939 C.3       22 UNK         0.1400 
    121 C         -2.7386  -15.6064  -54.4902 C.2       22 UNK         0.5000 
    122 N         -2.8609  -15.7769  -55.8021 N.am      22 UNK        -0.7600 
    123 O         -2.0884  -14.6531  -54.0700 O.2       22 UNK        -0.5000 
    124 C124       -3.9620  -15.9308  -52.2314 C.3       23 UNK        -0.0398 
    125 S125       -4.4088  -17.1222  -50.9243 S.3       23 UNK        -0.2404 
    126 C126       -3.0987  -16.8487  -49.6893 C.3       23 UNK        -0.0205 
    127 H127        3.3521   -9.3297  -47.9312 H         1 UNK         0.0600 
    128 H128        2.7277   -9.6718  -46.3170 H         1 UNK         0.0600 
    129 H129        1.6442   -9.7264  -47.7126 H         1 UNK         0.0600 
    130 H130        1.4162  -11.6929  -48.7945 H         1 UNK         0.3000 
    131 H131        3.4887  -13.6834  -48.8115 H         1 UNK         0.0600 
    132 H132        0.6811  -14.2683  -49.8226 H         1 UNK         0.0800 
    133 H133        1.6605  -13.1091  -50.6750 H         1 UNK         0.0800 
    134 H134        1.8165  -16.4861  -52.7846 H         1 UNK         0.0800 
    135 H135        0.7749  -15.1352  -52.4280 H         1 UNK         0.0800 
    136 H136       -1.1352  -15.4272  -50.9479 H         1 UNK         0.1150 
    137 H137       -2.0425  -19.3589  -49.5089 H         1 UNK         0.1150 
    138 H138        1.7342  -18.5778  -51.3695 H         1 UNK         0.1150 
    139 H139       -0.5855  -21.2062  -50.0700 H         1 UNK         0.0800 
    140 H140        0.7532  -20.9382  -51.1487 H         1 UNK         0.0800 
    141 H141       -0.6021  -20.4431  -47.7088 H         1 UNK         0.0800 
    142 H142        0.7590  -20.0000  -46.7124 H         1 UNK         0.0800 
    143 H143       -0.0388  -22.8654  -47.3906 H         1 UNK         0.0600 
    144 H144        1.9537  -22.0041  -45.3323 H         1 UNK         0.3000 
    145 H145        3.9221  -24.8873  -46.0101 H         1 UNK         0.0600 
    146 H146        4.6266  -21.9707  -46.6496 H         1 UNK         0.0600 
    147 H147        5.7786  -23.2672  -46.3226 H         1 UNK         0.0600 
    148 H148        4.7766  -23.3229  -47.7642 H         1 UNK         0.0600 
    149 H149        4.3482  -22.6477  -44.2928 H         1 UNK         0.3000 
    150 H150        2.2671  -23.5444  -41.6315 H         1 UNK         0.0600 
    151 H151        4.0580  -25.2615  -41.2902 H         1 UNK         0.0600 
    152 H152        4.3041  -23.8527  -40.2728 H         1 UNK         0.0600 
    153 H153        5.2816  -24.0741  -41.7249 H         1 UNK         0.0600 
    154 H154        4.3035  -21.7351  -41.4539 H         1 UNK         0.3000 
    155 H155        3.8213  -19.5729  -41.3809 H         1 UNK         0.0600 
    156 H156        5.1387  -19.6035  -43.4987 H         1 UNK         0.0600 
    157 H157        4.5421  -17.9840  -43.1640 H         1 UNK         0.0600 
    158 H158        3.7554  -18.9782  -44.3858 H         1 UNK         0.0600 
    159 H159        1.8843  -18.1453  -43.0333 H         1 UNK         0.3000 
    160 H160       -0.5099  -18.0710  -42.1726 H         1 UNK         0.0600 
    161 H161       -1.7101  -17.1423  -40.1894 H         1 UNK         0.0600 
    162 H162       -0.3331  -17.5184  -39.1549 H         1 UNK         0.0600 
    163 H163       -1.2592  -18.8152  -39.9052 H         1 UNK         0.0600 
    164 H164        1.5382  -16.2782  -41.1549 H         1 UNK         0.3000 
    165 H165        0.8813  -13.6696  -41.4122 H         1 UNK         0.0600 
    166 H166        2.0791  -14.8495  -43.9954 H         1 UNK         0.0600 
    167 H167        2.7112  -13.4639  -43.1204 H         1 UNK         0.0600 
    168 H168        2.7735  -15.0545  -42.3912 H         1 UNK         0.0600 
    169 H169       -0.7958  -13.7902  -43.6942 H         1 UNK         0.3000 
    170 H170       -1.8096  -11.2216  -43.9118 H         1 UNK         0.0600 
    171 H171        0.5390  -10.0820  -45.5105 H         1 UNK         0.0600 
    172 H172       -1.1411   -9.5839  -45.6937 H         1 UNK         0.0600 
    173 H173       -0.2939   -9.2783  -44.1862 H         1 UNK         0.0600 
    174 H174       -0.3070  -12.8802  -45.8138 H         1 UNK         0.3000 
    175 H175       -3.3332  -13.7268  -47.5489 H         1 UNK         0.0600 
    176 H176       -0.6154  -12.6780  -48.4806 H         1 UNK         0.0600 
    177 H177       -1.7030  -13.6958  -49.4279 H         1 UNK         0.0600 
    178 H178       -2.1876  -12.0718  -48.9760 H         1 UNK         0.0600 
    179 H179       -0.5688  -14.6692  -46.9056 H         1 UNK         0.3000 
    180 H180       -1.2134  -16.8246  -44.8133 H         1 UNK         0.0600 
    181 H181       -1.9630  -18.5358  -47.2222 H         1 UNK         0.0600 
    182 H182       -2.9164  -18.3908  -45.7525 H         1 UNK         0.0600 
    183 H183       -1.3205  -19.1023  -45.6795 H         1 UNK         0.0600 
    184 H184        0.1099  -16.5926  -47.4553 H         1 UNK         0.3000 
    185 H185        3.2184  -16.4379  -45.7379 H         1 UNK         0.0600 
    186 H186        4.1307  -17.9298  -47.3915 H         1 UNK         0.0600 
    187 H187        2.9654  -18.9002  -46.5073 H         1 UNK         0.0600 
    188 H188        2.5479  -18.2584  -48.0875 H         1 UNK         0.0600 
    189 H189        3.0807  -15.9223  -48.3482 H         1 UNK         0.3000 
    190 H190        0.4749  -22.4958  -44.0773 H         1 UNK         0.3000 
    191 H191       -1.9533  -21.5276  -43.1399 H         1 UNK         0.0600 
    192 H192       -0.1545  -23.7009  -41.9441 H         1 UNK         0.0600 
    193 H193        0.0130  -21.9598  -41.7017 H         1 UNK         0.0600 
    194 H194       -1.3837  -22.8051  -41.0597 H         1 UNK         0.0600 
    195 H195       -1.3773  -24.6134  -44.6382 H         1 UNK         0.3000 
    196 H196       -3.8251  -25.9466  -43.8106 H         1 UNK         0.0600 
    197 H197       -1.7889  -27.2257  -44.4065 H         1 UNK         0.0600 
    198 H198       -1.7988  -26.5456  -46.0331 H         1 UNK         0.0600 
    199 H199       -3.0937  -27.6186  -45.5140 H         1 UNK         0.0600 
    200 H200       -4.9850  -23.8158  -44.3430 H         1 UNK         0.3000 
    201 H201       -6.5822  -22.7126  -45.4442 H         1 UNK         0.0600 
    202 H202       -8.1488  -24.0523  -46.8230 H         1 UNK         0.0600 
    203 H203       -7.6584  -24.9620  -45.4035 H         1 UNK         0.0600 
    204 H204       -6.9628  -25.3412  -46.9783 H         1 UNK         0.0600 
    205 H205       -4.2238  -21.8701  -46.3100 H         1 UNK         0.3000 
    206 H206       -3.1366  -20.7045  -47.8444 H         1 UNK         0.0600 
    207 H207       -5.7568  -20.7370  -49.4138 H         1 UNK         0.0600 
    208 H208       -4.3468  -19.7975  -49.8569 H         1 UNK         0.0600 
    209 H209       -5.1619  -19.4817  -48.3368 H         1 UNK         0.0600 
    210 H210       -2.8393  -23.4810  -47.7168 H         1 UNK         0.3000 
    211 H211       -1.9953  -25.3120  -48.6465 H         1 UNK         0.0600 
    212 H212       -0.0822  -23.9274  -49.3578 H         1 UNK         0.0600 
    213 H213       -0.4287  -25.1174  -50.5916 H         1 UNK         0.0600 
    214 H214       -0.9206  -23.4475  -50.8237 H         1 UNK         0.0600 
    215 H215       -4.5808  -25.1051  -48.8926 H         1 UNK         0.3000 
    216 H216       -6.4852  -25.6275  -49.8818 H         1 UNK         0.0600 
    217 H217       -6.5492  -27.4662  -51.5264 H         1 UNK         0.0600 
    218 H218       -4.8308  -27.2932  -51.8533 H         1 UNK         0.0600 
    219 H219       -5.3808  -27.8347  -50.2681 H         1 UNK         0.0600 
    220 H220       -5.7490  -23.1868  -50.4034 H         1 UNK         0.3000 
    221 H221       -5.8922  -21.3448  -51.6391 H         1 UNK         0.0600 
    222 H222       -7.9816  -22.9127  -53.2365 H         1 UNK         0.0600 
    223 H223       -8.2752  -22.0559  -51.7238 H         1 UNK         0.0600 
    224 H224       -7.8280  -21.1620  -53.1676 H         1 UNK         0.0600 
    225 H225       -3.6157  -22.4056  -52.2359 H         1 UNK         0.3000 
    226 H226       -3.0296  -23.2220  -54.8691 H         1 UNK         0.0600 
    227 H227       -1.4646  -23.6011  -53.0553 H         1 UNK         0.0600 
    228 H228       -0.6679  -22.5634  -54.2241 H         1 UNK         0.0600 
    229 H229       -1.3043  -21.8702  -52.7359 H         1 UNK         0.0600 
    230 H230       -3.3802  -22.1475  -56.6676 H         1 UNK         0.3000 
    231 H231       -3.6796  -20.6252  -58.2391 H         1 UNK         0.0600 
    232 H232       -1.9589  -18.8816  -58.5338 H         1 UNK         0.0600 
    233 H233       -1.1935  -20.3586  -57.9754 H         1 UNK         0.0600 
    234 H234       -1.4609  -19.0248  -56.8535 H         1 UNK         0.0600 
    235 H235       -5.2622  -20.3669  -55.7368 H         1 UNK         0.3000 
    236 H236       -6.6871  -19.1123  -54.6206 H         1 UNK         0.0600 
    237 H237       -7.7475  -18.8698  -56.8770 H         1 UNK         0.0600 
    238 H238       -8.0566  -17.4732  -55.8600 H         1 UNK         0.0600 
    239 H239       -6.8536  -17.3729  -57.1391 H         1 UNK         0.0600 
    240 H240       -3.8855  -18.5208  -54.2558 H         1 UNK         0.3000 
    241 H241       -2.5253  -17.2239  -53.1594 H         1 UNK         0.0600 
    242 H242       -2.4313  -15.1105  -56.4233 H         1 UNK         0.3800 
    243 H243       -3.3838  -16.5541  -56.1926 H         1 UNK         0.3800 
    244 H244       -3.2593  -15.2077  -51.8184 H         1 UNK         0.0800 
    245 H245       -4.8485  -15.3498  -52.4849 H         1 UNK         0.0800 
    246 H246       -3.3794  -17.3721  -48.7750 H         1 UNK         0.0800 
    247 H247       -3.0591  -15.7908  -49.4280 H         1 UNK         0.0800 
@<TRIPOS>BOND
     1    1    2 1    
     2    1  127 1    
     3    1  128 1    
     4    1  129 1    
     5    2    3 2    
     6    2    4 am   BACKBONE|DICT|INTERRES
     7    4    5 1    
     8    4  130 1    
     9    5    6 1    
    10    5   65 1    
    11    5  131 1    
    12    6    7 1    
    13    6  132 1    
    14    6  133 1    
    15    7    8 1    
    16    8    9 1    
    17    8  134 1    
    18    8  135 1    
    19    9   10 ar   
    20    9   14 ar   
    21   10   11 ar   
    22   10  136 1    
    23   11   12 ar   
    24   11  126 1    
    25   12   13 ar   
    26   12  137 1    
    27   13   14 ar   
    28   13   15 1    
    29   14  138 1    
    30   15   16 1    
    31   15  139 1    
    32   15  140 1    
    33   16   17 1    
    34   17   18 1    
    35   17  141 1    
    36   17  142 1    
    37   18   19 1    
    38   18   67 1    
    39   18  143 1    
    40   19   20 am   BACKBONE|DICT|INTERRES
    41   19  144 1    
    42   20   21 2    
    43   20   22 1    
    44   22   23 1    
    45   22   24 1    
    46   22  145 1    
    47   23  146 1    
    48   23  147 1    
    49   23  148 1    
    50   24   25 am   BACKBONE|DICT|INTERRES
    51   24  149 1    
    52   25   26 2    
    53   25   27 1    
    54   27   28 1    
    55   27   29 1    
    56   27  150 1    
    57   28  151 1    
    58   28  152 1    
    59   28  153 1    
    60   29   30 am   BACKBONE|DICT|INTERRES
    61   29  154 1    
    62   30   31 2    
    63   30   32 1    
    64   32   33 1    
    65   32   34 1    
    66   32  155 1    
    67   33  156 1    
    68   33  157 1    
    69   33  158 1    
    70   34   35 am   BACKBONE|DICT|INTERRES
    71   34  159 1    
    72   35   36 2    
    73   35   37 1    
    74   37   38 1    
    75   37   39 1    
    76   37  160 1    
    77   38  161 1    
    78   38  162 1    
    79   38  163 1    
    80   39   40 am   BACKBONE|DICT|INTERRES
    81   39  164 1    
    82   40   41 2    
    83   40   42 1    
    84   42   43 1    
    85   42   44 1    
    86   42  165 1    
    87   43  166 1    
    88   43  167 1    
    89   43  168 1    
    90   44   45 am   BACKBONE|DICT|INTERRES
    91   44  169 1    
    92   45   46 2    
    93   45   47 1    
    94   47   48 1    
    95   47   49 1    
    96   47  170 1    
    97   48  171 1    
    98   48  172 1    
    99   48  173 1    
   100   49   50 am   BACKBONE|DICT|INTERRES
   101   49  174 1    
   102   50   51 2    
   103   50   52 1    
   104   52   53 1    
   105   52   54 1    
   106   52  175 1    
   107   53  176 1    
   108   53  177 1    
   109   53  178 1    
   110   54   55 am   BACKBONE|DICT|INTERRES
   111   54  179 1    
   112   55   56 2    
   113   55   57 1    
   114   57   58 1    
   115   57   59 1    
   116   57  180 1    
   117   58  181 1    
   118   58  182 1    
   119   58  183 1    
   120   59   60 am   BACKBONE|DICT|INTERRES
   121   59  184 1    
   122   60   61 2    
   123   60   62 1    
   124   62   63 1    
   125   62   64 1    
   126   62  185 1    
   127   63  186 1    
   128   63  187 1    
   129   63  188 1    
   130   64   65 am   BACKBONE|DICT|INTERRES
   131   64  189 1    
   132   65   66 2    
   133   67   68 2    
   134   67   69 am   BACKBONE|DICT|INTERRES
   135   69   70 1    
   136   69  190 1    
   137   70   71 1    
   138   70   72 1    
   139   70  191 1    
   140   71  192 1    
   141   71  193 1    
   142   71  194 1    
   143   72   73 2    
   144   72   74 am   BACKBONE|DICT|INTERRES
   145   74   75 1    
   146   74  195 1    
   147   75   76 1    
   148   75   77 1    
   149   75  196 1    
   150   76  197 1    
   151   76  198 1    
   152   76  199 1    
   153   77   78 2    
   154   77   79 am   BACKBONE|DICT|INTERRES
   155   79   80 1    
   156   79  200 1    
   157   80   81 1    
   158   80   82 1    
   159   80  201 1    
   160   81  202 1    
   161   81  203 1    
   162   81  204 1    
   163   82   83 2    
   164   82   84 am   BACKBONE|DICT|INTERRES
   165   84   85 1    
   166   84  205 1    
   167   85   86 1    
   168   85   87 1    
   169   85  206 1    
   170   86  207 1    
   171   86  208 1    
   172   86  209 1    
   173   87   88 2    
   174   87   89 am   BACKBONE|DICT|INTERRES
   175   89   90 1    
   176   89  210 1    
   177   90   91 1    
   178   90   92 1    
   179   90  211 1    
   180   91  212 1    
   181   91  213 1    
   182   91  214 1    
   183   92   93 2    
   184   92   94 am   BACKBONE|DICT|INTERRES
   185   94   95 1    
   186   94  215 1    
   187   95   96 1    
   188   95   97 1    
   189   95  216 1    
   190   96  217 1    
   191   96  218 1    
   192   96  219 1    
   193   97   98 2    
   194   97   99 am   BACKBONE|DICT|INTERRES
   195   99  100 1    
   196   99  220 1    
   197  100  101 1    
   198  100  102 1    
   199  100  221 1    
   200  101  222 1    
   201  101  223 1    
   202  101  224 1    
   203  102  103 2    
   204  102  104 am   BACKBONE|DICT|INTERRES
   205  104  105 1    
   206  104  225 1    
   207  105  106 1    
   208  105  107 1    
   209  105  226 1    
   210  106  227 1    
   211  106  228 1    
   212  106  229 1    
   213  107  108 2    
   214  107  109 am   BACKBONE|DICT|INTERRES
   215  109  110 1    
   216  109  230 1    
   217  110  111 1    
   218  110  112 1    
   219  110  231 1    
   220  111  232 1    
   221  111  233 1    
   222  111  234 1    
   223  112  113 2    
   224  112  114 am   BACKBONE|DICT|INTERRES
   225  114  115 1    
   226  114  235 1    
   227  115  116 1    
   228  115  117 1    
   229  115  236 1    
   230  116  237 1    
   231  116  238 1    
   232  116  239 1    
   233  117  118 2    
   234  117  119 am   BACKBONE|DICT|INTERRES
   235  119  120 1    
   236  119  240 1    
   237  120  121 1    
   238  120  124 1    
   239  120  241 1    
   240  121  122 am   BACKBONE|DICT|INTERRES
   241  121  123 2    
   242  122  242 1    
   243  122  243 1    
   244  124  125 1    
   245  124  244 1    
   246  124  245 1    
   247  125  126 1    
   248  126  246 1    
   249  126  247 1    
@<TRIPOS>SUBSTRUCTURE
     1 UNK         1 GROUP             0       ****    0 ROOT    
