@<TRIPOS>MOLECULE
3R540
247   249    1
SMALL
USER_CHARGES


@<TRIPOS>ATOM
      1 CA          2.1762  -13.1113  -48.9911 C.3       0 UNK        -0.1800 
      2 C           2.7544  -13.8715  -47.8068 C.2       0 UNK         0.5000 
      3 O           2.1189  -14.7955  -47.2976 O.2       0 UNK        -0.5000 
      4 N           3.9584  -13.4737  -47.3705 N.am      1 UNK        -0.5000 
      5 CA          4.7786  -14.0785  -46.3052 C.3       1 UNK         0.1400 
      6 C6          5.2090  -15.5414  -46.6249 C.3       23 UNK        -0.0398 
      7 S7          6.5118  -15.6026  -47.8994 S.3       23 UNK        -0.2404 
      8 C8          5.5448  -15.8685  -49.4246 C.3       23 UNK        -0.0205 
      9 C9          5.2695  -17.3189  -49.8234 C.ar      23 UNK        -0.0193 
     10 C10         4.7432  -17.5400  -51.0995 C.ar      23 UNK        -0.1150 
     11 C11         4.5092  -18.8340  -51.5652 C.ar      23 UNK        -0.0193 
     12 C12         4.8163  -19.9211  -50.7478 C.ar      23 UNK        -0.1150 
     13 C13         5.2914  -19.7253  -49.4493 C.ar      23 UNK        -0.0193 
     14 C14         5.5196  -18.4216  -48.9910 C.ar      23 UNK        -0.1150 
     15 C15         5.5698  -20.9314  -48.5600 C.3       23 UNK        -0.0205 
     16 S16         4.0846  -21.5097  -47.6696 S.3       23 UNK        -0.2404 
     17 C17         2.9961  -22.0335  -49.0394 C.3       23 UNK        -0.0398 
     18 CA          1.8485  -22.9806  -48.6111 C.3       11 UNK         0.1400 
     19 N           0.9008  -22.3469  -47.6890 N.am      11 UNK        -0.5000 
     20 C          -0.1280  -22.9680  -47.0947 C.2       10 UNK         0.5000 
     21 O          -0.3881  -24.1624  -47.2375 O.2       10 UNK        -0.5000 
     22 CA         -1.0583  -22.1014  -46.2294 C.3       10 UNK         0.1400 
     23 CB         -0.4293  -21.8271  -44.8542 C.3       10 UNK        -0.1800 
     24 N          -1.4320  -20.8440  -46.8814 N.am      10 UNK        -0.5000 
     25 C          -2.1054  -20.7626  -48.0388 C.2       9 UNK         0.5000 
     26 O          -2.5158  -21.7421  -48.6579 O.2       9 UNK        -0.5000 
     27 CA         -2.3296  -19.3624  -48.6310 C.3       9 UNK         0.1400 
     28 CB         -3.4490  -18.6166  -47.8912 C.3       9 UNK        -0.1800 
     29 N          -1.1060  -18.5623  -48.6407 N.am      9 UNK        -0.5000 
     30 C           0.0076  -18.8852  -49.3147 C.2       8 UNK         0.5000 
     31 O           0.0749  -19.8305  -50.0991 O.2       8 UNK        -0.5000 
     32 CA          1.2679  -18.0459  -49.0274 C.3       8 UNK         0.1400 
     33 CB          1.3111  -16.8042  -49.9269 C.3       8 UNK        -0.1800 
     34 N           1.3749  -17.6498  -47.6193 N.am      8 UNK        -0.5000 
     35 C           1.4809  -18.5267  -46.6099 C.2       7 UNK         0.5000 
     36 O           1.5472  -19.7417  -46.7734 O.2       7 UNK        -0.5000 
     37 CA          1.4253  -17.9777  -45.1772 C.3       7 UNK         0.1400 
     38 CB          2.7475  -17.3284  -44.7613 C.3       7 UNK        -0.1800 
     39 N           0.3258  -17.0329  -45.0031 N.am      7 UNK        -0.5000 
     40 C          -0.9603  -17.3981  -44.9312 C.2       6 UNK         0.5000 
     41 O          -1.3385  -18.5682  -44.9768 O.2       6 UNK        -0.5000 
     42 CA         -2.0037  -16.2722  -44.8111 C.3       6 UNK         0.1400 
     43 CB         -2.2740  -15.9493  -43.3347 C.3       6 UNK        -0.1800 
     44 N          -1.6502  -15.0392  -45.5190 N.am      6 UNK        -0.5000 
     45 C          -1.4428  -14.9465  -46.8423 C.2       5 UNK         0.5000 
     46 O          -1.4339  -15.9210  -47.5951 O.2       5 UNK        -0.5000 
     47 CA         -1.2066  -13.5335  -47.4160 C.3       5 UNK         0.1400 
     48 CB         -1.5320  -13.4325  -48.9210 C.3       5 UNK        -0.1800 
     49 N          -1.8784  -12.4742  -46.6577 N.am      5 UNK        -0.5000 
     50 C          -3.1969  -12.3241  -46.4499 C.2       4 UNK         0.5000 
     51 O          -4.0557  -13.0391  -46.9678 O.2       4 UNK        -0.5000 
     52 CA         -3.6267  -11.1863  -45.4924 C.3       4 UNK         0.1400 
     53 CB         -4.8861  -11.5514  -44.6785 C.3       4 UNK        -0.1800 
     54 N          -2.5567  -10.7143  -44.5997 N.am      4 UNK        -0.5000 
     55 C          -1.8854  -11.4396  -43.6938 C.2       3 UNK         0.5000 
     56 O          -2.1012  -12.6318  -43.4633 O.2       3 UNK        -0.5000 
     57 CA         -0.7429  -10.7162  -42.9562 C.3       3 UNK         0.1400 
     58 CB         -1.1934  -10.2902  -41.5510 C.3       3 UNK        -0.1800 
     59 N           0.4536  -11.5534  -42.8446 N.am      3 UNK        -0.5000 
     60 C           1.1191  -12.0871  -43.8772 C.2       2 UNK         0.5000 
     61 O           0.8349  -11.8785  -45.0626 O.2       2 UNK        -0.5000 
     62 CA          2.2794  -13.0292  -43.5222 C.3       2 UNK         0.1400 
     63 CB          1.7533  -14.3199  -42.8645 C.3       2 UNK        -0.1800 
     64 N           3.0008  -13.3348  -44.7514 N.am      2 UNK        -0.5000 
     65 C           4.1954  -13.9212  -44.8767 C.2       1 UNK         0.5000 
     66 O           4.8604  -14.3001  -43.9116 O.2       1 UNK        -0.5000 
     67 C           1.1476  -23.5481  -49.8642 C.2       11 UNK         0.5000 
     68 O           1.4562  -24.6694  -50.2707 O.2       11 UNK        -0.5000 
     69 N           0.2284  -22.7702  -50.4529 N.am      12 UNK        -0.5000 
     70 CA         -0.5062  -23.1455  -51.6581 C.3       12 UNK         0.1400 
     71 CB         -1.1317  -21.8950  -52.2889 C.3       12 UNK        -0.1800 
     72 C          -1.5838  -24.2118  -51.4017 C.2       12 UNK         0.5000 
     73 O          -1.6461  -25.1960  -52.1402 O.2       12 UNK        -0.5000 
     74 N          -2.4302  -23.9885  -50.3873 N.am      13 UNK        -0.5000 
     75 CA         -3.6011  -24.8208  -50.1157 C.3       13 UNK         0.1400 
     76 CB         -4.6091  -24.0336  -49.2635 C.3       13 UNK        -0.1800 
     77 C          -3.2589  -26.1381  -49.4078 C.2       13 UNK         0.5000 
     78 O          -3.9428  -27.1348  -49.6436 O.2       13 UNK        -0.5000 
     79 N          -2.2665  -26.1044  -48.5041 N.am      14 UNK        -0.5000 
     80 CA         -1.8634  -27.1422  -47.5420 C.3       14 UNK         0.1400 
     81 CB         -1.4104  -28.4335  -48.2490 C.3       14 UNK        -0.1800 
     82 C          -2.9256  -27.4330  -46.4595 C.2       14 UNK         0.5000 
     83 O          -2.5905  -27.4996  -45.2759 O.2       14 UNK        -0.5000 
     84 N          -4.1901  -27.5704  -46.8725 N.am      15 UNK        -0.5000 
     85 CA         -5.3721  -27.7981  -46.0469 C.3       15 UNK         0.1400 
     86 CB         -6.4806  -28.3832  -46.9405 C.3       15 UNK        -0.1800 
     87 C          -5.8216  -26.5183  -45.3118 C.2       15 UNK         0.5000 
     88 O          -6.8823  -25.9696  -45.6134 O.2       15 UNK        -0.5000 
     89 N          -4.9952  -26.0698  -44.3576 N.am      16 UNK        -0.5000 
     90 CA         -5.2606  -25.0088  -43.3778 C.3       16 UNK         0.1400 
     91 CB         -6.3286  -25.4793  -42.3676 C.3       16 UNK        -0.1800 
     92 C          -5.5879  -23.6294  -43.9926 C.2       16 UNK         0.5000 
     93 O          -6.4361  -22.9084  -43.4638 O.2       16 UNK        -0.5000 
     94 N          -4.8869  -23.2819  -45.0836 N.am      17 UNK        -0.5000 
     95 CA         -4.9423  -21.9906  -45.7843 C.3       17 UNK         0.1400 
     96 CB         -4.3885  -20.8661  -44.8817 C.3       17 UNK        -0.1800 
     97 C          -6.3353  -21.6597  -46.3620 C.2       17 UNK         0.5000 
     98 O          -6.8022  -20.5271  -46.2316 O.2       17 UNK        -0.5000 
     99 N          -6.9766  -22.6690  -46.9690 N.am      18 UNK        -0.5000 
    100 CA        -8.3510  -22.6300  -47.4742 C.3       18 UNK         0.1400 
    101 CB        -8.7067  -23.9943  -48.0877 C.3       18 UNK        -0.1800 
    102 C         -8.6514  -21.4902  -48.4686 C.2       18 UNK         0.5000 
    103 O         -9.5914  -20.7277  -48.2384 O.2       18 UNK        -0.5000 
    104 N         -7.8631  -21.3965  -49.5475 N.am      19 UNK        -0.5000 
    105 CA        -8.0313  -20.4447  -50.6474 C.3       19 UNK         0.1400 
    106 CB        -9.3526  -20.7214  -51.4025 C.3       19 UNK        -0.1800 
    107 C         -6.8426  -20.5564  -51.6172 C.2       19 UNK         0.5000 
    108 O         -6.0352  -21.4795  -51.4892 O.2       19 UNK        -0.5000 
    109 N         -6.8034  -19.6406  -52.5974 N.am      20 UNK        -0.5000 
    110 CA        -5.9271  -19.6305  -53.7755 C.3       20 UNK         0.1400 
    111 CB        -6.2640  -20.8174  -54.7039 C.3       20 UNK        -0.1800 
    112 C         -4.4276  -19.5461  -53.4282 C.2       20 UNK         0.5000 
    113 O         -3.6512  -20.4226  -53.8104 O.2       20 UNK        -0.5000 
    114 N         -4.0526  -18.4808  -52.7070 N.am      21 UNK        -0.5000 
    115 CA        -2.6710  -18.1631  -52.3393 C.3       21 UNK         0.1400 
    116 CB        -2.6675  -16.9288  -51.4231 C.3       21 UNK        -0.1800 
    117 C         -1.7658  -17.9181  -53.5609 C.2       21 UNK         0.5000 
    118 O         -2.1994  -17.3001  -54.5361 O.2       21 UNK        -0.5000 
    119 N         -0.5170  -18.3823  -53.4617 N.am      22 UNK        -0.5000 
    120 CA         0.5295  -18.2454  -54.4886 C.3       22 UNK         0.1400 
    121 C          1.2510  -16.8639  -54.5161 C.2       22 UNK         0.5000 
    122 N          0.9309  -15.9215  -53.6377 N.am      22 UNK        -0.7600 
    123 O          2.1093  -16.6357  -55.3642 O.2       22 UNK        -0.5000 
    124 C124        1.5280  -19.4333  -54.4348 C.3       23 UNK        -0.0398 
    125 S125        2.2180  -19.7267  -52.7707 S.3       23 UNK        -0.2404 
    126 C126        3.8999  -19.0613  -52.9376 C.3       23 UNK        -0.0205 
    127 H127        2.9643  -12.6785  -49.6074 H         1 UNK         0.0600 
    128 H128        1.5874  -13.7774  -49.6207 H         1 UNK         0.0600 
    129 H129        1.5307  -12.3046  -48.6448 H         1 UNK         0.0600 
    130 H130        4.3940  -12.6852  -47.8288 H         1 UNK         0.3000 
    131 H131        5.6871  -13.4747  -46.2751 H         1 UNK         0.0600 
    132 H132        5.6194  -16.0336  -45.7418 H         1 UNK         0.0800 
    133 H133        4.3653  -16.1534  -46.9435 H         1 UNK         0.0800 
    134 H134        4.5976  -15.3367  -49.3626 H         1 UNK         0.0800 
    135 H135        6.0996  -15.3948  -50.2358 H         1 UNK         0.0800 
    136 H136        4.5169  -16.6965  -51.7371 H         1 UNK         0.1150 
    137 H137        4.6472  -20.9219  -51.1175 H         1 UNK         0.1150 
    138 H138        5.9012  -18.2787  -47.9909 H         1 UNK         0.1150 
    139 H139        5.9768  -21.7497  -49.1560 H         1 UNK         0.0800 
    140 H140        6.3391  -20.6807  -47.8283 H         1 UNK         0.0800 
    141 H141        3.6226  -22.5283  -49.7835 H         1 UNK         0.0800 
    142 H142        2.5878  -21.1411  -49.5172 H         1 UNK         0.0800 
    143 H143        2.2912  -23.8268  -48.0815 H         1 UNK         0.0600 
    144 H144        1.0712  -21.3667  -47.4688 H         1 UNK         0.3000 
    145 H145       -1.9746  -22.6709  -46.0672 H         1 UNK         0.0600 
    146 H146       -1.0936  -21.2443  -44.2175 H         1 UNK         0.0600 
    147 H147       -0.2172  -22.7611  -44.3326 H         1 UNK         0.0600 
    148 H148        0.5099  -21.2816  -44.9374 H         1 UNK         0.0600 
    149 H149       -1.1528  -19.9896  -46.4102 H         1 UNK         0.3000 
    150 H150       -2.6528  -19.5008  -49.6618 H         1 UNK         0.0600 
    151 H151       -4.3780  -19.1880  -47.9096 H         1 UNK         0.0600 
    152 H152       -3.6531  -17.6480  -48.3455 H         1 UNK         0.0600 
    153 H153       -3.1919  -18.4380  -46.8494 H         1 UNK         0.0600 
    154 H154       -1.1044  -17.7170  -48.0744 H         1 UNK         0.3000 
    155 H155        2.1366  -18.6637  -49.2656 H         1 UNK         0.0600 
    156 H156        2.2458  -16.2604  -49.7965 H         1 UNK         0.0600 
    157 H157        0.4892  -16.1220  -49.7100 H         1 UNK         0.0600 
    158 H158        1.2463  -17.0854  -50.9783 H         1 UNK         0.0600 
    159 H159        1.3505  -16.6550  -47.4192 H         1 UNK         0.3000 
    160 H160        1.2591  -18.8281  -44.5120 H         1 UNK         0.0600 
    161 H161        2.8652  -16.3589  -45.2361 H         1 UNK         0.0600 
    162 H162        3.6020  -17.9479  -45.0373 H         1 UNK         0.0600 
    163 H163        2.7879  -17.1787  -43.6828 H         1 UNK         0.0600 
    164 H164        0.5525  -16.0501  -45.0185 H         1 UNK         0.3000 
    165 H165       -2.9322  -16.6422  -45.2495 H         1 UNK         0.0600 
    166 H166       -1.4002  -15.5099  -42.8520 H         1 UNK         0.0600 
    167 H167       -3.1013  -15.2468  -43.2312 H         1 UNK         0.0600 
    168 H168       -2.5417  -16.8486  -42.7783 H         1 UNK         0.0600 
    169 H169       -1.6691  -14.1874  -44.9700 H         1 UNK         0.3000 
    170 H170       -0.1424  -13.3447  -47.2930 H         1 UNK         0.0600 
    171 H171       -2.5761  -13.6689  -49.1269 H         1 UNK         0.0600 
    172 H172       -0.9235  -14.1261  -49.5015 H         1 UNK         0.0600 
    173 H173       -1.3310  -12.4313  -49.3016 H         1 UNK         0.0600 
    174 H174       -1.2540  -11.8505  -46.1618 H         1 UNK         0.3000 
    175 H175       -3.8827  -10.3404  -46.1318 H         1 UNK         0.0600 
    176 H176       -5.1761  -10.7378  -44.0137 H         1 UNK         0.0600 
    177 H177       -5.7345  -11.7487  -45.3348 H         1 UNK         0.0600 
    178 H178       -4.7310  -12.4430  -44.0701 H         1 UNK         0.0600 
    179 H179       -2.2905   -9.7474  -44.7270 H         1 UNK         0.3000 
    180 H180       -0.4678   -9.8217  -43.5189 H         1 UNK         0.0600 
    181 H181       -1.4546  -11.1517  -40.9347 H         1 UNK         0.0600 
    182 H182       -2.0713   -9.6447  -41.6011 H         1 UNK         0.0600 
    183 H183       -0.4105   -9.7330  -41.0362 H         1 UNK         0.0600 
    184 H184        0.7355  -11.7986  -41.9070 H         1 UNK         0.3000 
    185 H185        2.9518  -12.5092  -42.8372 H         1 UNK         0.0600 
    186 H186        2.5648  -15.0004  -42.6093 H         1 UNK         0.0600 
    187 H187        1.2193  -14.1041  -41.9387 H         1 UNK         0.0600 
    188 H188        1.0633  -14.8466  -43.5215 H         1 UNK         0.0600 
    189 H189        2.5175  -13.0283  -45.5874 H         1 UNK         0.3000 
    190 H190        0.0562  -21.8377  -50.0891 H         1 UNK         0.3000 
    191 H191        0.2064  -23.5562  -52.3767 H         1 UNK         0.0600 
    192 H192       -0.3708  -21.1611  -52.5464 H         1 UNK         0.0600 
    193 H193       -1.6612  -22.1476  -53.2080 H         1 UNK         0.0600 
    194 H194       -1.8459  -21.4179  -51.6169 H         1 UNK         0.0600 
    195 H195       -2.3268  -23.1502  -49.8183 H         1 UNK         0.3000 
    196 H196       -4.0824  -25.0623  -51.0660 H         1 UNK         0.0600 
    197 H197       -5.5380  -24.5923  -49.1440 H         1 UNK         0.0600 
    198 H198       -4.8573  -23.0783  -49.7241 H         1 UNK         0.0600 
    199 H199       -4.2170  -23.8322  -48.2670 H         1 UNK         0.0600 
    200 H200       -1.7710  -25.2269  -48.3841 H         1 UNK         0.3000 
    201 H201       -0.9933  -26.7405  -47.0213 H         1 UNK         0.0600 
    202 H202       -0.6316  -28.2265  -48.9830 H         1 UNK         0.0600 
    203 H203       -2.2320  -28.9328  -48.7628 H         1 UNK         0.0600 
    204 H204       -0.9998  -29.1435  -47.5302 H         1 UNK         0.0600 
    205 H205       -4.3492  -27.4936  -47.8738 H         1 UNK         0.3000 
    206 H206       -5.1288  -28.5436  -45.2871 H         1 UNK         0.0600 
    207 H207       -6.1661  -29.3239  -47.3927 H         1 UNK         0.0600 
    208 H208       -7.3831  -28.5872  -46.3629 H         1 UNK         0.0600 
    209 H209       -6.7516  -27.6994  -47.7463 H         1 UNK         0.0600 
    210 H210       -4.1100  -26.5563  -44.2551 H         1 UNK         0.3000 
    211 H211       -4.3303  -24.8712  -42.8250 H         1 UNK         0.0600 
    212 H212       -7.3053  -25.5961  -42.8386 H         1 UNK         0.0600 
    213 H213       -6.4414  -24.7644  -41.5517 H         1 UNK         0.0600 
    214 H214       -6.0553  -26.4354  -41.9211 H         1 UNK         0.0600 
    215 H215       -4.2349  -23.9603  -45.4494 H         1 UNK         0.3000 
    216 H216       -4.2809  -22.0795  -46.6435 H         1 UNK         0.0600 
    217 H217       -3.3995  -21.1133  -44.5009 H         1 UNK         0.0600 
    218 H218       -5.0353  -20.6760  -44.0251 H         1 UNK         0.0600 
    219 H219       -4.2979  -19.9291  -45.4288 H         1 UNK         0.0600 
    220 H220       -6.5328  -23.5757  -46.9729 H         1 UNK         0.3000 
    221 H221       -8.9985  -22.4787  -46.6081 H         1 UNK         0.0600 
    222 H222       -8.0442  -24.2527  -48.9143 H         1 UNK         0.0600 
    223 H223       -8.6420  -24.7898  -47.3454 H         1 UNK         0.0600 
    224 H224       -9.7273  -23.9960  -48.4727 H         1 UNK         0.0600 
    225 H225       -7.0832  -22.0308  -49.6677 H         1 UNK         0.3000 
    226 H226       -8.0434  -19.4334  -50.2365 H         1 UNK         0.0600 
    227 H227      -10.2251  -20.5784  -50.7661 H         1 UNK         0.0600 
    228 H228       -9.4787  -20.0502  -52.2524 H         1 UNK         0.0600 
    229 H229       -9.3847  -21.7421  -51.7858 H         1 UNK         0.0600 
    230 H230       -7.5040  -18.9125  -52.5858 H         1 UNK         0.3000 
    231 H231       -6.1618  -18.7177  -54.3253 H         1 UNK         0.0600 
    232 H232       -5.6883  -20.7648  -55.6288 H         1 UNK         0.0600 
    233 H233       -7.3188  -20.8161  -54.9784 H         1 UNK         0.0600 
    234 H234       -6.0412  -21.7766  -54.2352 H         1 UNK         0.0600 
    235 H235       -4.7539  -17.8026  -52.4492 H         1 UNK         0.3000 
    236 H236       -2.2729  -19.0156  -51.7892 H         1 UNK         0.0600 
    237 H237       -3.0154  -16.0377  -51.9472 H         1 UNK         0.0600 
    238 H238       -3.3107  -17.0748  -50.5571 H         1 UNK         0.0600 
    239 H239       -1.6650  -16.7191  -51.0490 H         1 UNK         0.0600 
    240 H240       -0.2281  -18.8684  -52.6230 H         1 UNK         0.3000 
    241 H241        0.0348  -18.3102  -55.4596 H         1 UNK         0.0600 
    242 H242        0.2090  -16.0800  -52.9561 H         1 UNK         0.3800 
    243 H243        1.4003  -15.0310  -53.6777 H         1 UNK         0.3800 
    244 H244        1.0079  -20.3453  -54.7305 H         1 UNK         0.0800 
    245 H245        2.3330  -19.3136  -55.1620 H         1 UNK         0.0800 
    246 H246        4.5157  -19.7582  -53.5077 H         1 UNK         0.0800 
    247 H247        3.8727  -18.1285  -53.5029 H         1 UNK         0.0800 
@<TRIPOS>BOND
     1    1    2 1    
     2    1  127 1    
     3    1  128 1    
     4    1  129 1    
     5    2    3 2    
     6    2    4 am   BACKBONE|DICT|INTERRES
     7    4    5 1    
     8    4  130 1    
     9    5    6 1    
    10    5   65 1    
    11    5  131 1    
    12    6    7 1    
    13    6  132 1    
    14    6  133 1    
    15    7    8 1    
    16    8    9 1    
    17    8  134 1    
    18    8  135 1    
    19    9   10 ar   
    20    9   14 ar   
    21   10   11 ar   
    22   10  136 1    
    23   11   12 ar   
    24   11  126 1    
    25   12   13 ar   
    26   12  137 1    
    27   13   14 ar   
    28   13   15 1    
    29   14  138 1    
    30   15   16 1    
    31   15  139 1    
    32   15  140 1    
    33   16   17 1    
    34   17   18 1    
    35   17  141 1    
    36   17  142 1    
    37   18   19 1    
    38   18   67 1    
    39   18  143 1    
    40   19   20 am   BACKBONE|DICT|INTERRES
    41   19  144 1    
    42   20   21 2    
    43   20   22 1    
    44   22   23 1    
    45   22   24 1    
    46   22  145 1    
    47   23  146 1    
    48   23  147 1    
    49   23  148 1    
    50   24   25 am   BACKBONE|DICT|INTERRES
    51   24  149 1    
    52   25   26 2    
    53   25   27 1    
    54   27   28 1    
    55   27   29 1    
    56   27  150 1    
    57   28  151 1    
    58   28  152 1    
    59   28  153 1    
    60   29   30 am   BACKBONE|DICT|INTERRES
    61   29  154 1    
    62   30   31 2    
    63   30   32 1    
    64   32   33 1    
    65   32   34 1    
    66   32  155 1    
    67   33  156 1    
    68   33  157 1    
    69   33  158 1    
    70   34   35 am   BACKBONE|DICT|INTERRES
    71   34  159 1    
    72   35   36 2    
    73   35   37 1    
    74   37   38 1    
    75   37   39 1    
    76   37  160 1    
    77   38  161 1    
    78   38  162 1    
    79   38  163 1    
    80   39   40 am   BACKBONE|DICT|INTERRES
    81   39  164 1    
    82   40   41 2    
    83   40   42 1    
    84   42   43 1    
    85   42   44 1    
    86   42  165 1    
    87   43  166 1    
    88   43  167 1    
    89   43  168 1    
    90   44   45 am   BACKBONE|DICT|INTERRES
    91   44  169 1    
    92   45   46 2    
    93   45   47 1    
    94   47   48 1    
    95   47   49 1    
    96   47  170 1    
    97   48  171 1    
    98   48  172 1    
    99   48  173 1    
   100   49   50 am   BACKBONE|DICT|INTERRES
   101   49  174 1    
   102   50   51 2    
   103   50   52 1    
   104   52   53 1    
   105   52   54 1    
   106   52  175 1    
   107   53  176 1    
   108   53  177 1    
   109   53  178 1    
   110   54   55 am   BACKBONE|DICT|INTERRES
   111   54  179 1    
   112   55   56 2    
   113   55   57 1    
   114   57   58 1    
   115   57   59 1    
   116   57  180 1    
   117   58  181 1    
   118   58  182 1    
   119   58  183 1    
   120   59   60 am   BACKBONE|DICT|INTERRES
   121   59  184 1    
   122   60   61 2    
   123   60   62 1    
   124   62   63 1    
   125   62   64 1    
   126   62  185 1    
   127   63  186 1    
   128   63  187 1    
   129   63  188 1    
   130   64   65 am   BACKBONE|DICT|INTERRES
   131   64  189 1    
   132   65   66 2    
   133   67   68 2    
   134   67   69 am   BACKBONE|DICT|INTERRES
   135   69   70 1    
   136   69  190 1    
   137   70   71 1    
   138   70   72 1    
   139   70  191 1    
   140   71  192 1    
   141   71  193 1    
   142   71  194 1    
   143   72   73 2    
   144   72   74 am   BACKBONE|DICT|INTERRES
   145   74   75 1    
   146   74  195 1    
   147   75   76 1    
   148   75   77 1    
   149   75  196 1    
   150   76  197 1    
   151   76  198 1    
   152   76  199 1    
   153   77   78 2    
   154   77   79 am   BACKBONE|DICT|INTERRES
   155   79   80 1    
   156   79  200 1    
   157   80   81 1    
   158   80   82 1    
   159   80  201 1    
   160   81  202 1    
   161   81  203 1    
   162   81  204 1    
   163   82   83 2    
   164   82   84 am   BACKBONE|DICT|INTERRES
   165   84   85 1    
   166   84  205 1    
   167   85   86 1    
   168   85   87 1    
   169   85  206 1    
   170   86  207 1    
   171   86  208 1    
   172   86  209 1    
   173   87   88 2    
   174   87   89 am   BACKBONE|DICT|INTERRES
   175   89   90 1    
   176   89  210 1    
   177   90   91 1    
   178   90   92 1    
   179   90  211 1    
   180   91  212 1    
   181   91  213 1    
   182   91  214 1    
   183   92   93 2    
   184   92   94 am   BACKBONE|DICT|INTERRES
   185   94   95 1    
   186   94  215 1    
   187   95   96 1    
   188   95   97 1    
   189   95  216 1    
   190   96  217 1    
   191   96  218 1    
   192   96  219 1    
   193   97   98 2    
   194   97   99 am   BACKBONE|DICT|INTERRES
   195   99  100 1    
   196   99  220 1    
   197  100  101 1    
   198  100  102 1    
   199  100  221 1    
   200  101  222 1    
   201  101  223 1    
   202  101  224 1    
   203  102  103 2    
   204  102  104 am   BACKBONE|DICT|INTERRES
   205  104  105 1    
   206  104  225 1    
   207  105  106 1    
   208  105  107 1    
   209  105  226 1    
   210  106  227 1    
   211  106  228 1    
   212  106  229 1    
   213  107  108 2    
   214  107  109 am   BACKBONE|DICT|INTERRES
   215  109  110 1    
   216  109  230 1    
   217  110  111 1    
   218  110  112 1    
   219  110  231 1    
   220  111  232 1    
   221  111  233 1    
   222  111  234 1    
   223  112  113 2    
   224  112  114 am   BACKBONE|DICT|INTERRES
   225  114  115 1    
   226  114  235 1    
   227  115  116 1    
   228  115  117 1    
   229  115  236 1    
   230  116  237 1    
   231  116  238 1    
   232  116  239 1    
   233  117  118 2    
   234  117  119 am   BACKBONE|DICT|INTERRES
   235  119  120 1    
   236  119  240 1    
   237  120  121 1    
   238  120  124 1    
   239  120  241 1    
   240  121  122 am   BACKBONE|DICT|INTERRES
   241  121  123 2    
   242  122  242 1    
   243  122  243 1    
   244  124  125 1    
   245  124  244 1    
   246  124  245 1    
   247  125  126 1    
   248  126  246 1    
   249  126  247 1    
@<TRIPOS>SUBSTRUCTURE
     1 UNK         1 GROUP             0       ****    0 ROOT    
