@<TRIPOS>MOLECULE
3R540
247   249    1
SMALL
USER_CHARGES


@<TRIPOS>ATOM
      1 CA          0.1300  -14.1339  -52.7517 C.3       0 UNK        -0.1800 
      2 C           0.7720  -13.9752  -51.3823 C.2       0 UNK         0.5000 
      3 O           0.3735  -14.6598  -50.4420 O.2       0 UNK        -0.5000 
      4 N           1.7569  -13.0729  -51.2673 N.am      1 UNK        -0.5000 
      5 CA          2.5622  -12.7456  -50.0788 C.3       1 UNK         0.1400 
      6 C6          3.3693  -13.9457  -49.5071 C.3       23 UNK        -0.0398 
      7 S7          4.8614  -14.3281  -50.4807 S.3       23 UNK        -0.2404 
      8 C8          4.2517  -15.5656  -51.6743 C.3       23 UNK        -0.0205 
      9 C9          3.8499  -16.9332  -51.1168 C.ar      23 UNK        -0.0193 
     10 C10         3.2234  -17.8212  -51.9941 C.ar      23 UNK        -0.1150 
     11 C11         2.8403  -19.0962  -51.5760 C.ar      23 UNK        -0.0193 
     12 C12         3.1089  -19.4948  -50.2660 C.ar      23 UNK        -0.1150 
     13 C13         3.7402  -18.6287  -49.3667 C.ar      23 UNK        -0.0193 
     14 C14         4.1051  -17.3475  -49.8003 C.ar      23 UNK        -0.1150 
     15 C15         4.0876  -19.0874  -47.9505 C.3       23 UNK        -0.0205 
     16 S16         2.6280  -19.4899  -46.9291 S.3       23 UNK        -0.2404 
     17 C17         2.2656  -21.2086  -47.4271 C.3       23 UNK        -0.0398 
     18 CA          2.1273  -22.1789  -46.2299 C.3       11 UNK         0.1400 
     19 N           0.9578  -21.8681  -45.4009 N.am      11 UNK        -0.5000 
     20 C           0.6744  -22.4242  -44.2137 C.2       10 UNK         0.5000 
     21 O           1.4057  -23.2474  -43.6621 O.2       10 UNK        -0.5000 
     22 CA         -0.6422  -22.0073  -43.5268 C.3       10 UNK         0.1400 
     23 CB         -0.4167  -21.5838  -42.0657 C.3       10 UNK        -0.1800 
     24 N          -1.3509  -20.9418  -44.2430 N.am      10 UNK        -0.5000 
     25 C          -2.2101  -21.1615  -45.2478 C.2       9 UNK         0.5000 
     26 O          -2.4485  -22.2835  -45.6877 O.2       9 UNK        -0.5000 
     27 CA         -2.9016  -19.9405  -45.8784 C.3       9 UNK         0.1400 
     28 CB         -4.2397  -19.6710  -45.1803 C.3       9 UNK        -0.1800 
     29 N          -2.0642  -18.7426  -45.8250 N.am      9 UNK        -0.5000 
     30 C          -1.1099  -18.4621  -46.7230 C.2       8 UNK         0.5000 
     31 O          -0.9143  -19.1561  -47.7209 O.2       8 UNK        -0.5000 
     32 CA         -0.2144  -17.2303  -46.4623 C.3       8 UNK         0.1400 
     33 CB          0.2942  -16.5746  -47.7626 C.3       8 UNK        -0.1800 
     34 N          -0.7979  -16.2401  -45.5525 N.am      8 UNK        -0.5000 
     35 C          -1.8826  -15.4752  -45.7397 C.2       7 UNK         0.5000 
     36 O          -2.5293  -15.4319  -46.7857 O.2       7 UNK        -0.5000 
     37 CA         -2.3050  -14.6210  -44.5246 C.3       7 UNK         0.1400 
     38 CB         -3.7399  -14.0641  -44.6378 C.3       7 UNK        -0.1800 
     39 N          -2.0985  -15.3296  -43.2522 N.am      7 UNK        -0.5000 
     40 C          -2.7132  -16.4554  -42.8596 C.2       6 UNK         0.5000 
     41 O          -3.5948  -17.0093  -43.5146 O.2       6 UNK        -0.5000 
     42 CA         -2.2227  -17.0880  -41.5396 C.3       6 UNK         0.1400 
     43 CB         -2.8886  -18.4499  -41.2489 C.3       6 UNK        -0.1800 
     44 N          -0.7631  -17.2201  -41.4675 N.am      6 UNK        -0.5000 
     45 C           0.0439  -17.8729  -42.3149 C.2       5 UNK         0.5000 
     46 O          -0.3542  -18.4169  -43.3457 O.2       5 UNK        -0.5000 
     47 CA          1.5472  -17.9127  -41.9509 C.3       5 UNK         0.1400 
     48 CB          2.3794  -18.6950  -42.9862 C.3       5 UNK        -0.1800 
     49 N           2.1222  -16.5740  -41.8333 N.am      5 UNK        -0.5000 
     50 C           1.8751  -15.6645  -40.8808 C.2       4 UNK         0.5000 
     51 O           1.2156  -15.9020  -39.8678 O.2       4 UNK        -0.5000 
     52 CA          2.4067  -14.2356  -41.1275 C.3       4 UNK         0.1400 
     53 CB          3.6467  -13.9672  -40.2615 C.3       4 UNK        -0.1800 
     54 N           2.7335  -13.9463  -42.5306 N.am      4 UNK        -0.5000 
     55 C           1.8755  -14.0017  -43.5594 C.2       3 UNK         0.5000 
     56 O           0.6876  -14.3091  -43.4431 O.2       3 UNK        -0.5000 
     57 CA          2.4871  -13.7725  -44.9525 C.3       3 UNK         0.1400 
     58 CB          3.2753  -15.0206  -45.3892 C.3       3 UNK        -0.1800 
     59 N           1.4978  -13.4813  -45.9876 N.am      3 UNK        -0.5000 
     60 C           0.7017  -12.4057  -46.0547 C.2       2 UNK         0.5000 
     61 O           0.6626  -11.5194  -45.1996 O.2       2 UNK        -0.5000 
     62 CA         -0.1485  -12.3024  -47.3420 C.3       2 UNK         0.1400 
     63 CB         -0.8505  -10.9390  -47.5052 C.3       2 UNK        -0.1800 
     64 N           0.6400  -12.6394  -48.5354 N.am      2 UNK        -0.5000 
     65 C           1.7680  -12.0463  -48.9544 C.2       1 UNK         0.5000 
     66 O           2.2193  -11.0091  -48.4671 O.2       1 UNK        -0.5000 
     67 C           2.1419  -23.6378  -46.7431 C.2       11 UNK         0.5000 
     68 O           3.2238  -24.1550  -47.0260 O.2       11 UNK        -0.5000 
     69 N           0.9696  -24.2749  -46.8658 N.am      12 UNK        -0.5000 
     70 CA          0.8219  -25.6546  -47.3170 C.3       12 UNK         0.1400 
     71 CB          0.7351  -25.6910  -48.8537 C.3       12 UNK        -0.1800 
     72 C          -0.4353  -26.2701  -46.6934 C.2       12 UNK         0.5000 
     73 O          -1.3870  -25.5483  -46.3864 O.2       12 UNK        -0.5000 
     74 N          -0.4445  -27.6056  -46.5837 N.am      13 UNK        -0.5000 
     75 CA         -1.5698  -28.4097  -46.0883 C.3       13 UNK         0.1400 
     76 CB         -1.1031  -29.8628  -45.9113 C.3       13 UNK        -0.1800 
     77 C          -2.8231  -28.3504  -46.9875 C.2       13 UNK         0.5000 
     78 O          -3.9225  -28.6486  -46.5208 O.2       13 UNK        -0.5000 
     79 N          -2.6387  -27.9342  -48.2483 N.am      14 UNK        -0.5000 
     80 CA         -3.6931  -27.6496  -49.2227 C.3       14 UNK         0.1400 
     81 CB         -3.0520  -27.5752  -50.6185 C.3       14 UNK        -0.1800 
     82 C          -4.4891  -26.3586  -48.9249 C.2       14 UNK         0.5000 
     83 O          -5.4682  -26.0983  -49.6209 O.2       14 UNK        -0.5000 
     84 N          -4.0506  -25.5747  -47.9270 N.am      15 UNK        -0.5000 
     85 CA         -4.6043  -24.3021  -47.4453 C.3       15 UNK         0.1400 
     86 CB         -6.1172  -24.3800  -47.1520 C.3       15 UNK        -0.1800 
     87 C          -4.2221  -23.0790  -48.3020 C.2       15 UNK         0.5000 
     88 O          -4.6852  -21.9780  -48.0034 O.2       15 UNK        -0.5000 
     89 N          -3.3509  -23.2818  -49.3039 N.am      16 UNK        -0.5000 
     90 CA         -2.6150  -22.2804  -50.0850 C.3       16 UNK         0.1400 
     91 CB         -1.3257  -21.9124  -49.3235 C.3       16 UNK        -0.1800 
     92 C          -3.4668  -21.0650  -50.5174 C.2       16 UNK         0.5000 
     93 O          -4.3674  -21.2300  -51.3428 O.2       16 UNK        -0.5000 
     94 N          -3.2025  -19.8804  -49.9478 N.am      17 UNK        -0.5000 
     95 CA         -3.9153  -18.6383  -50.2545 C.3       17 UNK         0.1400 
     96 CB         -3.2380  -17.4698  -49.5274 C.3       17 UNK        -0.1800 
     97 C          -5.4241  -18.6697  -49.9341 C.2       17 UNK         0.5000 
     98 O          -6.1957  -18.0197  -50.6399 O.2       17 UNK        -0.5000 
     99 N          -5.8379  -19.4430  -48.9179 N.am      18 UNK        -0.5000 
    100 CA        -7.2485  -19.6253  -48.5562 C.3       18 UNK         0.1400 
    101 CB        -7.3633  -20.1055  -47.1020 C.3       18 UNK        -0.1800 
    102 C         -7.9882  -20.5814  -49.5114 C.2       18 UNK         0.5000 
    103 O         -9.2125  -20.5035  -49.6140 O.2       18 UNK        -0.5000 
    104 N         -7.2371  -21.4320  -50.2240 N.am      19 UNK        -0.5000 
    105 CA        -7.7288  -22.2837  -51.3091 C.3       19 UNK         0.1400 
    106 CB        -6.9121  -23.5846  -51.3261 C.3       19 UNK        -0.1800 
    107 C         -7.6813  -21.5746  -52.6796 C.2       19 UNK         0.5000 
    108 O         -7.9812  -22.2059  -53.6936 O.2       19 UNK        -0.5000 
    109 N         -7.3018  -20.2871  -52.6884 N.am      20 UNK        -0.5000 
    110 CA        -7.1342  -19.4044  -53.8459 C.3       20 UNK         0.1400 
    111 CB        -8.4627  -19.2161  -54.6090 C.3       20 UNK        -0.1800 
    112 C         -5.9584  -19.8011  -54.7631 C.2       20 UNK         0.5000 
    113 O         -5.9467  -19.4247  -55.9371 O.2       20 UNK        -0.5000 
    114 N         -4.9704  -20.5183  -54.2104 N.am      21 UNK        -0.5000 
    115 CA        -3.6723  -20.7517  -54.8395 C.3       21 UNK         0.1400 
    116 CB        -3.1020  -22.0876  -54.3297 C.3       21 UNK        -0.1800 
    117 C         -2.7210  -19.5734  -54.5437 C.2       21 UNK         0.5000 
    118 O         -3.1174  -18.5979  -53.9006 O.2       21 UNK        -0.5000 
    119 N         -1.4757  -19.6872  -55.0202 N.am      22 UNK        -0.5000 
    120 CA        -0.3783  -18.7213  -54.8117 C.3       22 UNK         0.1400 
    121 C         -0.5062  -17.3905  -55.6153 C.2       22 UNK         0.5000 
    122 N         -1.4614  -17.2480  -56.5257 N.am      22 UNK        -0.7600 
    123 O          0.3039  -16.4839  -55.4460 O.2       22 UNK        -0.5000 
    124 C124       -0.0467  -18.4719  -53.3100 C.3       23 UNK        -0.0398 
    125 S125        0.3503  -20.0091  -52.4060 S.3       23 UNK        -0.2404 
    126 C126        2.1653  -20.0575  -52.5437 C.3       23 UNK        -0.0205 
    127 H127        0.6635  -13.5734  -53.5196 H         1 UNK         0.0600 
    128 H128       -0.9023  -13.7853  -52.7254 H         1 UNK         0.0600 
    129 H129        0.1275  -15.1848  -53.0395 H         1 UNK         0.0600 
    130 H130        1.9962  -12.5305  -52.0855 H         1 UNK         0.3000 
    131 H131        3.2828  -12.0018  -50.4237 H         1 UNK         0.0600 
    132 H132        3.7322  -13.7196  -48.5029 H         1 UNK         0.0800 
    133 H133        2.7494  -14.8358  -49.3991 H         1 UNK         0.0800 
    134 H134        5.0390  -15.7249  -52.4121 H         1 UNK         0.0800 
    135 H135        3.4109  -15.1380  -52.2205 H         1 UNK         0.0800 
    136 H136        3.0413  -17.5174  -53.0153 H         1 UNK         0.1150 
    137 H137        2.8280  -20.4899  -49.9634 H         1 UNK         0.1150 
    138 H138        4.6082  -16.6863  -49.1106 H         1 UNK         0.1150 
    139 H139        4.6437  -18.3045  -47.4327 H         1 UNK         0.0800 
    140 H140        4.7606  -19.9442  -47.9989 H         1 UNK         0.0800 
    141 H141        3.0712  -21.5534  -48.0763 H         1 UNK         0.0800 
    142 H142        1.3583  -21.2083  -48.0339 H         1 UNK         0.0800 
    143 H143        3.0108  -22.0634  -45.5982 H         1 UNK         0.0600 
    144 H144        0.3138  -21.1855  -45.7722 H         1 UNK         0.3000 
    145 H145       -1.2741  -22.8978  -43.5048 H         1 UNK         0.0600 
    146 H146       -0.0091  -22.4082  -41.4797 H         1 UNK         0.0600 
    147 H147       -1.3513  -21.2843  -41.5917 H         1 UNK         0.0600 
    148 H148        0.2824  -20.7549  -41.9843 H         1 UNK         0.0600 
    149 H149       -1.1391  -19.9868  -43.9611 H         1 UNK         0.3000 
    150 H150       -3.1160  -20.1744  -46.9220 H         1 UNK         0.0600 
    151 H151       -4.1140  -19.5254  -44.1073 H         1 UNK         0.0600 
    152 H152       -4.9199  -20.5125  -45.3165 H         1 UNK         0.0600 
    153 H153       -4.7250  -18.7838  -45.5869 H         1 UNK         0.0600 
    154 H154       -2.1737  -18.1397  -45.0193 H         1 UNK         0.3000 
    155 H155        0.6561  -17.6166  -45.9334 H         1 UNK         0.0600 
    156 H156       -0.5242  -16.1727  -48.3592 H         1 UNK         0.0600 
    157 H157        0.8242  -17.2947  -48.3877 H         1 UNK         0.0600 
    158 H158        0.9909  -15.7652  -47.5565 H         1 UNK         0.0600 
    159 H159       -0.3663  -16.1920  -44.6391 H         1 UNK         0.3000 
    160 H160       -1.6339  -13.7621  -44.5100 H         1 UNK         0.0600 
    161 H161       -4.4793  -14.8575  -44.7495 H         1 UNK         0.0600 
    162 H162       -3.8343  -13.4095  -45.5050 H         1 UNK         0.0600 
    163 H163       -4.0058  -13.4773  -43.7587 H         1 UNK         0.0600 
    164 H164       -1.3287  -14.9795  -42.6948 H         1 UNK         0.3000 
    165 H165       -2.5127  -16.4008  -40.7437 H         1 UNK         0.0600 
    166 H166       -3.9731  -18.3508  -41.1897 H         1 UNK         0.0600 
    167 H167       -2.6699  -19.1818  -42.0268 H         1 UNK         0.0600 
    168 H168       -2.5485  -18.8608  -40.2984 H         1 UNK         0.0600 
    169 H169       -0.3155  -16.7645  -40.6769 H         1 UNK         0.3000 
    170 H170        1.6370  -18.4182  -40.9875 H         1 UNK         0.0600 
    171 H171        3.4254  -18.7565  -42.6859 H         1 UNK         0.0600 
    172 H172        2.0200  -19.7170  -43.1027 H         1 UNK         0.0600 
    173 H173        2.3422  -18.2252  -43.9699 H         1 UNK         0.0600 
    174 H174        2.6681  -16.2649  -42.6225 H         1 UNK         0.3000 
    175 H175        1.6187  -13.5436  -40.8238 H         1 UNK         0.0600 
    176 H176        3.4328  -14.1421  -39.2061 H         1 UNK         0.0600 
    177 H177        4.4790  -14.6151  -40.5393 H         1 UNK         0.0600 
    178 H178        3.9786  -12.9331  -40.3560 H         1 UNK         0.0600 
    179 H179        3.6963  -13.7040  -42.7162 H         1 UNK         0.3000 
    180 H180        3.1688  -12.9218  -44.8923 H         1 UNK         0.0600 
    181 H181        2.6316  -15.8981  -45.4661 H         1 UNK         0.0600 
    182 H182        4.0689  -15.2592  -44.6802 H         1 UNK         0.0600 
    183 H183        3.7516  -14.8717  -46.3580 H         1 UNK         0.0600 
    184 H184        1.4341  -14.1536  -46.7351 H         1 UNK         0.3000 
    185 H185       -0.9256  -13.0630  -47.2635 H         1 UNK         0.0600 
    186 H186       -1.5291  -10.7493  -46.6728 H         1 UNK         0.0600 
    187 H187       -0.1381  -10.1144  -47.5397 H         1 UNK         0.0600 
    188 H188       -1.4429  -10.9089  -48.4196 H         1 UNK         0.0600 
    189 H189        0.3523  -13.4728  -49.0464 H         1 UNK         0.3000 
    190 H190        0.1115  -23.8275  -46.5675 H         1 UNK         0.3000 
    191 H191        1.6829  -26.2400  -46.9870 H         1 UNK         0.0600 
    192 H192        1.6194  -25.2473  -49.3115 H         1 UNK         0.0600 
    193 H193        0.6635  -26.7158  -49.2196 H         1 UNK         0.0600 
    194 H194       -0.1379  -25.1500  -49.2202 H         1 UNK         0.0600 
    195 H195        0.3746  -28.1228  -46.8704 H         1 UNK         0.3000 
    196 H196       -1.8553  -28.0190  -45.1094 H         1 UNK         0.0600 
    197 H197       -1.9053  -30.4859  -45.5135 H         1 UNK         0.0600 
    198 H198       -0.2683  -29.9274  -45.2132 H         1 UNK         0.0600 
    199 H199       -0.7856  -30.3016  -46.8581 H         1 UNK         0.0600 
    200 H200       -1.6942  -27.7357  -48.5414 H         1 UNK         0.3000 
    201 H201       -4.4038  -28.4785  -49.2134 H         1 UNK         0.0600 
    202 H202       -3.8054  -27.4059  -51.3891 H         1 UNK         0.0600 
    203 H203       -2.5411  -28.5054  -50.8680 H         1 UNK         0.0600 
    204 H204       -2.3258  -26.7642  -50.6860 H         1 UNK         0.0600 
    205 H205       -3.2115  -25.8645  -47.4366 H         1 UNK         0.3000 
    206 H206       -4.1143  -24.1415  -46.4849 H         1 UNK         0.0600 
    207 H207       -6.3598  -25.2582  -46.5539 H         1 UNK         0.0600 
    208 H208       -6.4471  -23.5057  -46.5903 H         1 UNK         0.0600 
    209 H209       -6.7112  -24.4167  -48.0640 H         1 UNK         0.0600 
    210 H210       -3.0889  -24.2400  -49.4763 H         1 UNK         0.3000 
    211 H211       -2.3140  -22.7715  -51.0110 H         1 UNK         0.0600 
    212 H212       -0.6578  -22.7700  -49.2522 H         1 UNK         0.0600 
    213 H213       -0.7692  -21.1187  -49.8228 H         1 UNK         0.0600 
    214 H214       -1.5403  -21.5874  -48.3066 H         1 UNK         0.0600 
    215 H215       -2.4485  -19.8144  -49.2738 H         1 UNK         0.3000 
    216 H216       -3.8168  -18.4670  -51.3277 H         1 UNK         0.0600 
    217 H217       -3.3265  -17.5683  -48.4453 H         1 UNK         0.0600 
    218 H218       -3.6927  -16.5183  -49.8054 H         1 UNK         0.0600 
    219 H219       -2.1784  -17.4079  -49.7767 H         1 UNK         0.0600 
    220 H220       -5.1702  -20.0415  -48.4422 H         1 UNK         0.3000 
    221 H221       -7.7487  -18.6565  -48.6204 H         1 UNK         0.0600 
    222 H222       -6.8668  -21.0624  -46.9471 H         1 UNK         0.0600 
    223 H223       -6.9292  -19.3807  -46.4146 H         1 UNK         0.0600 
    224 H224       -8.4081  -20.2323  -46.8156 H         1 UNK         0.0600 
    225 H225       -6.2321  -21.4124  -50.0979 H         1 UNK         0.3000 
    226 H226       -8.7715  -22.5479  -51.1221 H         1 UNK         0.0600 
    227 H227       -7.0086  -24.1101  -50.3781 H         1 UNK         0.0600 
    228 H228       -7.2623  -24.2634  -52.1044 H         1 UNK         0.0600 
    229 H229       -5.8522  -23.4022  -51.5027 H         1 UNK         0.0600 
    230 H230       -7.0612  -19.8692  -51.7996 H         1 UNK         0.3000 
    231 H231       -6.8621  -18.4325  -53.4317 H         1 UNK         0.0600 
    232 H232       -8.7614  -20.1219  -55.1368 H         1 UNK         0.0600 
    233 H233       -8.3770  -18.4220  -55.3514 H         1 UNK         0.0600 
    234 H234       -9.2707  -18.9385  -53.9321 H         1 UNK         0.0600 
    235 H235       -5.0250  -20.7454  -53.2229 H         1 UNK         0.3000 
    236 H236       -3.7989  -20.8253  -55.9215 H         1 UNK         0.0600 
    237 H237       -2.7617  -22.0154  -53.2979 H         1 UNK         0.0600 
    238 H238       -3.8453  -22.8835  -54.3830 H         1 UNK         0.0600 
    239 H239       -2.2485  -22.4052  -54.9290 H         1 UNK         0.0600 
    240 H240       -1.2306  -20.5100  -55.5516 H         1 UNK         0.3000 
    241 H241        0.4978  -19.2020  -55.2478 H         1 UNK         0.0600 
    242 H242       -1.5220  -16.3892  -57.0498 H         1 UNK         0.3800 
    243 H243       -2.1318  -17.9823  -56.6857 H         1 UNK         0.3800 
    244 H244       -0.8811  -17.9866  -52.8031 H         1 UNK         0.0800 
    245 H245        0.7845  -17.7767  -53.2105 H         1 UNK         0.0800 
    246 H246        2.5025  -21.0748  -52.3395 H         1 UNK         0.0800 
    247 H247        2.4635  -19.8424  -53.5709 H         1 UNK         0.0800 
@<TRIPOS>BOND
     1    1    2 1    
     2    1  127 1    
     3    1  128 1    
     4    1  129 1    
     5    2    3 2    
     6    2    4 am   BACKBONE|DICT|INTERRES
     7    4    5 1    
     8    4  130 1    
     9    5    6 1    
    10    5   65 1    
    11    5  131 1    
    12    6    7 1    
    13    6  132 1    
    14    6  133 1    
    15    7    8 1    
    16    8    9 1    
    17    8  134 1    
    18    8  135 1    
    19    9   10 ar   
    20    9   14 ar   
    21   10   11 ar   
    22   10  136 1    
    23   11   12 ar   
    24   11  126 1    
    25   12   13 ar   
    26   12  137 1    
    27   13   14 ar   
    28   13   15 1    
    29   14  138 1    
    30   15   16 1    
    31   15  139 1    
    32   15  140 1    
    33   16   17 1    
    34   17   18 1    
    35   17  141 1    
    36   17  142 1    
    37   18   19 1    
    38   18   67 1    
    39   18  143 1    
    40   19   20 am   BACKBONE|DICT|INTERRES
    41   19  144 1    
    42   20   21 2    
    43   20   22 1    
    44   22   23 1    
    45   22   24 1    
    46   22  145 1    
    47   23  146 1    
    48   23  147 1    
    49   23  148 1    
    50   24   25 am   BACKBONE|DICT|INTERRES
    51   24  149 1    
    52   25   26 2    
    53   25   27 1    
    54   27   28 1    
    55   27   29 1    
    56   27  150 1    
    57   28  151 1    
    58   28  152 1    
    59   28  153 1    
    60   29   30 am   BACKBONE|DICT|INTERRES
    61   29  154 1    
    62   30   31 2    
    63   30   32 1    
    64   32   33 1    
    65   32   34 1    
    66   32  155 1    
    67   33  156 1    
    68   33  157 1    
    69   33  158 1    
    70   34   35 am   BACKBONE|DICT|INTERRES
    71   34  159 1    
    72   35   36 2    
    73   35   37 1    
    74   37   38 1    
    75   37   39 1    
    76   37  160 1    
    77   38  161 1    
    78   38  162 1    
    79   38  163 1    
    80   39   40 am   BACKBONE|DICT|INTERRES
    81   39  164 1    
    82   40   41 2    
    83   40   42 1    
    84   42   43 1    
    85   42   44 1    
    86   42  165 1    
    87   43  166 1    
    88   43  167 1    
    89   43  168 1    
    90   44   45 am   BACKBONE|DICT|INTERRES
    91   44  169 1    
    92   45   46 2    
    93   45   47 1    
    94   47   48 1    
    95   47   49 1    
    96   47  170 1    
    97   48  171 1    
    98   48  172 1    
    99   48  173 1    
   100   49   50 am   BACKBONE|DICT|INTERRES
   101   49  174 1    
   102   50   51 2    
   103   50   52 1    
   104   52   53 1    
   105   52   54 1    
   106   52  175 1    
   107   53  176 1    
   108   53  177 1    
   109   53  178 1    
   110   54   55 am   BACKBONE|DICT|INTERRES
   111   54  179 1    
   112   55   56 2    
   113   55   57 1    
   114   57   58 1    
   115   57   59 1    
   116   57  180 1    
   117   58  181 1    
   118   58  182 1    
   119   58  183 1    
   120   59   60 am   BACKBONE|DICT|INTERRES
   121   59  184 1    
   122   60   61 2    
   123   60   62 1    
   124   62   63 1    
   125   62   64 1    
   126   62  185 1    
   127   63  186 1    
   128   63  187 1    
   129   63  188 1    
   130   64   65 am   BACKBONE|DICT|INTERRES
   131   64  189 1    
   132   65   66 2    
   133   67   68 2    
   134   67   69 am   BACKBONE|DICT|INTERRES
   135   69   70 1    
   136   69  190 1    
   137   70   71 1    
   138   70   72 1    
   139   70  191 1    
   140   71  192 1    
   141   71  193 1    
   142   71  194 1    
   143   72   73 2    
   144   72   74 am   BACKBONE|DICT|INTERRES
   145   74   75 1    
   146   74  195 1    
   147   75   76 1    
   148   75   77 1    
   149   75  196 1    
   150   76  197 1    
   151   76  198 1    
   152   76  199 1    
   153   77   78 2    
   154   77   79 am   BACKBONE|DICT|INTERRES
   155   79   80 1    
   156   79  200 1    
   157   80   81 1    
   158   80   82 1    
   159   80  201 1    
   160   81  202 1    
   161   81  203 1    
   162   81  204 1    
   163   82   83 2    
   164   82   84 am   BACKBONE|DICT|INTERRES
   165   84   85 1    
   166   84  205 1    
   167   85   86 1    
   168   85   87 1    
   169   85  206 1    
   170   86  207 1    
   171   86  208 1    
   172   86  209 1    
   173   87   88 2    
   174   87   89 am   BACKBONE|DICT|INTERRES
   175   89   90 1    
   176   89  210 1    
   177   90   91 1    
   178   90   92 1    
   179   90  211 1    
   180   91  212 1    
   181   91  213 1    
   182   91  214 1    
   183   92   93 2    
   184   92   94 am   BACKBONE|DICT|INTERRES
   185   94   95 1    
   186   94  215 1    
   187   95   96 1    
   188   95   97 1    
   189   95  216 1    
   190   96  217 1    
   191   96  218 1    
   192   96  219 1    
   193   97   98 2    
   194   97   99 am   BACKBONE|DICT|INTERRES
   195   99  100 1    
   196   99  220 1    
   197  100  101 1    
   198  100  102 1    
   199  100  221 1    
   200  101  222 1    
   201  101  223 1    
   202  101  224 1    
   203  102  103 2    
   204  102  104 am   BACKBONE|DICT|INTERRES
   205  104  105 1    
   206  104  225 1    
   207  105  106 1    
   208  105  107 1    
   209  105  226 1    
   210  106  227 1    
   211  106  228 1    
   212  106  229 1    
   213  107  108 2    
   214  107  109 am   BACKBONE|DICT|INTERRES
   215  109  110 1    
   216  109  230 1    
   217  110  111 1    
   218  110  112 1    
   219  110  231 1    
   220  111  232 1    
   221  111  233 1    
   222  111  234 1    
   223  112  113 2    
   224  112  114 am   BACKBONE|DICT|INTERRES
   225  114  115 1    
   226  114  235 1    
   227  115  116 1    
   228  115  117 1    
   229  115  236 1    
   230  116  237 1    
   231  116  238 1    
   232  116  239 1    
   233  117  118 2    
   234  117  119 am   BACKBONE|DICT|INTERRES
   235  119  120 1    
   236  119  240 1    
   237  120  121 1    
   238  120  124 1    
   239  120  241 1    
   240  121  122 am   BACKBONE|DICT|INTERRES
   241  121  123 2    
   242  122  242 1    
   243  122  243 1    
   244  124  125 1    
   245  124  244 1    
   246  124  245 1    
   247  125  126 1    
   248  126  246 1    
   249  126  247 1    
@<TRIPOS>SUBSTRUCTURE
     1 UNK         1 GROUP             0       ****    0 ROOT    
