@<TRIPOS>MOLECULE
3R540
247   249    1
SMALL
USER_CHARGES


@<TRIPOS>ATOM
      1 CA          0.3173   -6.8270  -46.4261 C.3       0 UNK        -0.1800 
      2 C           1.1301   -8.0584  -46.7988 C.2       0 UNK         0.5000 
      3 O           2.3598   -8.0212  -46.7537 O.2       0 UNK        -0.5000 
      4 N           0.4531   -9.1583  -47.1482 N.am      1 UNK        -0.5000 
      5 CA          1.0253  -10.4484  -47.5580 C.3       1 UNK         0.1400 
      6 C6          0.0422  -11.2477  -48.4565 C.3       23 UNK        -0.0398 
      7 S7         -1.6079  -11.5086  -47.7114 S.3       23 UNK        -0.2404 
      8 C8         -2.5541  -12.1003  -49.1486 C.3       23 UNK        -0.0205 
      9 C9         -2.3610  -13.5911  -49.3835 C.ar      23 UNK        -0.0193 
     10 C10        -1.3561  -14.0544  -50.2366 C.ar      23 UNK        -0.1150 
     11 C11        -1.2020  -15.4236  -50.4766 C.ar      23 UNK        -0.0193 
     12 C12        -2.0555  -16.3352  -49.8455 C.ar      23 UNK        -0.1150 
     13 C13        -3.0671  -15.8824  -48.9923 C.ar      23 UNK        -0.0193 
     14 C14        -3.2132  -14.5104  -48.7673 C.ar      23 UNK        -0.1150 
     15 C15        -4.0411  -16.8609  -48.3519 C.3       23 UNK        -0.0205 
     16 S16        -3.9347  -16.8656  -46.5334 S.3       23 UNK        -0.2404 
     17 C17        -2.5588  -18.0272  -46.2406 C.3       23 UNK        -0.0398 
     18 CA         -2.9675  -19.5214  -46.2281 C.3       11 UNK         0.1400 
     19 N          -1.7935  -20.3798  -46.0420 N.am      11 UNK        -0.5000 
     20 C          -1.7660  -21.7159  -46.1429 C.2       10 UNK         0.5000 
     21 O          -2.7593  -22.3896  -46.4237 O.2       10 UNK        -0.5000 
     22 CA         -0.4153  -22.4124  -45.8717 C.3       10 UNK         0.1400 
     23 CB         -0.3149  -23.7873  -46.5615 C.3       10 UNK        -0.1800 
     24 N           0.7517  -21.5876  -46.2042 N.am      10 UNK        -0.5000 
     25 C           1.0609  -21.0650  -47.4023 C.2       9 UNK         0.5000 
     26 O           0.3749  -21.2208  -48.4140 O.2       9 UNK        -0.5000 
     27 CA          2.3415  -20.2127  -47.4664 C.3       9 UNK         0.1400 
     28 CB          2.2810  -19.1529  -48.5796 C.3       9 UNK        -0.1800 
     29 N           2.5968  -19.5719  -46.1716 N.am      9 UNK        -0.5000 
     30 C           3.7448  -19.6607  -45.4895 C.2       8 UNK         0.5000 
     31 O           4.7686  -20.1778  -45.9385 O.2       8 UNK        -0.5000 
     32 CA          3.7448  -19.1432  -44.0358 C.3       8 UNK         0.1400 
     33 CB          4.0478  -17.6408  -43.9730 C.3       8 UNK        -0.1800 
     34 N           2.5316  -19.4313  -43.2596 N.am      8 UNK        -0.5000 
     35 C           2.0324  -20.6560  -43.0282 C.2       7 UNK         0.5000 
     36 O           2.4026  -21.6664  -43.6259 O.2       7 UNK        -0.5000 
     37 CA          0.9542  -20.8037  -41.9356 C.3       7 UNK         0.1400 
     38 CB          1.5570  -21.4444  -40.6759 C.3       7 UNK        -0.1800 
     39 N           0.3124  -19.5454  -41.5563 N.am      7 UNK        -0.5000 
     40 C          -0.6330  -18.9435  -42.2837 C.2       6 UNK         0.5000 
     41 O          -1.0373  -19.3921  -43.3574 O.2       6 UNK        -0.5000 
     42 CA         -1.2559  -17.6428  -41.7332 C.3       6 UNK         0.1400 
     43 CB         -0.6475  -17.1476  -40.4013 C.3       6 UNK        -0.1800 
     44 N          -1.2409  -16.5905  -42.7503 N.am      6 UNK        -0.5000 
     45 C          -0.1541  -16.0669  -43.3320 C.2       5 UNK         0.5000 
     46 O           1.0033  -16.3091  -42.9784 O.2       5 UNK        -0.5000 
     47 CA         -0.4288  -15.1008  -44.5007 C.3       5 UNK         0.1400 
     48 CB         -0.6854  -13.6805  -43.9748 C.3       5 UNK        -0.1800 
     49 N           0.6574  -15.0503  -45.4767 N.am      5 UNK        -0.5000 
     50 C           1.1559  -16.0912  -46.1565 C.2       4 UNK         0.5000 
     51 O           0.7302  -17.2446  -46.0595 O.2       4 UNK        -0.5000 
     52 CA          2.3349  -15.8070  -47.1014 C.3       4 UNK         0.1400 
     53 CB          1.8170  -15.4570  -48.5013 C.3       4 UNK        -0.1800 
     54 N           3.1946  -14.7185  -46.6319 N.am      4 UNK        -0.5000 
     55 C           4.5194  -14.8125  -46.4476 C.2       3 UNK         0.5000 
     56 O           5.1603  -15.8455  -46.6428 O.2       3 UNK        -0.5000 
     57 CA          5.2831  -13.5466  -46.0004 C.3       3 UNK         0.1400 
     58 CB          6.1818  -13.0331  -47.1370 C.3       3 UNK        -0.1800 
     59 N           4.4136  -12.4521  -45.5706 N.am      3 UNK        -0.5000 
     60 C           3.7843  -12.3823  -44.3906 C.2       2 UNK         0.5000 
     61 O           3.9281  -13.2093  -43.4906 O.2       2 UNK        -0.5000 
     62 CA          2.8101  -11.2016  -44.1911 C.3       2 UNK         0.1400 
     63 CB          3.4795  -10.0843  -43.3768 C.3       2 UNK        -0.1800 
     64 N           2.2745  -10.6251  -45.4313 N.am      2 UNK        -0.5000 
     65 C           1.5725  -11.2763  -46.3685 C.2       1 UNK         0.5000 
     66 O           1.3770  -12.4904  -46.3205 O.2       1 UNK        -0.5000 
     67 C          -4.0865  -19.8523  -45.2117 C.2       11 UNK         0.5000 
     68 O          -5.2590  -19.8837  -45.5865 O.2       11 UNK        -0.5000 
     69 N          -3.6967  -20.1997  -43.9765 N.am      12 UNK        -0.5000 
     70 CA         -4.5718  -20.7120  -42.9156 C.3       12 UNK         0.1400 
     71 CB         -3.7510  -20.8813  -41.6274 C.3       12 UNK        -0.1800 
     72 C          -5.2846  -22.0364  -43.2659 C.2       12 UNK         0.5000 
     73 O          -6.3331  -22.3265  -42.6895 O.2       12 UNK        -0.5000 
     74 N          -4.7203  -22.7991  -44.2110 N.am      13 UNK        -0.5000 
     75 CA         -5.2777  -24.0319  -44.7632 C.3       13 UNK         0.1400 
     76 CB         -4.1804  -25.1120  -44.7630 C.3       13 UNK        -0.1800 
     77 C          -5.8514  -23.7979  -46.1759 C.2       13 UNK         0.5000 
     78 O          -5.9015  -24.7375  -46.9682 O.2       13 UNK        -0.5000 
     79 N          -6.2534  -22.5544  -46.4835 N.am      14 UNK        -0.5000 
     80 CA         -6.8166  -22.0941  -47.7583 C.3       14 UNK         0.1400 
     81 CB         -8.1816  -22.7604  -48.0326 C.3       14 UNK        -0.1800 
     82 C          -5.8262  -22.2387  -48.9313 C.2       14 UNK         0.5000 
     83 O          -6.2026  -22.6990  -50.0099 O.2       14 UNK        -0.5000 
     84 N          -4.5637  -21.8645  -48.6784 N.am      15 UNK        -0.5000 
     85 CA         -3.4125  -21.9616  -49.5827 C.3       15 UNK         0.1400 
     86 CB         -3.5810  -21.0226  -50.7915 C.3       15 UNK        -0.1800 
     87 C          -3.1321  -23.4277  -49.9632 C.2       15 UNK         0.5000 
     88 O          -3.0583  -23.7679  -51.1489 O.2       15 UNK        -0.5000 
     89 N          -3.0331  -24.2623  -48.9168 N.am      16 UNK        -0.5000 
     90 CA         -2.8696  -25.7187  -48.9443 C.3       16 UNK         0.1400 
     91 CB         -1.4816  -26.0981  -49.5048 C.3       16 UNK        -0.1800 
     92 C          -4.0259  -26.4177  -49.6875 C.2       16 UNK         0.5000 
     93 O          -3.7827  -27.2098  -50.5959 O.2       16 UNK        -0.5000 
     94 N          -5.2692  -26.0709  -49.3246 N.am      17 UNK        -0.5000 
     95 CA         -6.5247  -26.5006  -49.9543 C.3       17 UNK         0.1400 
     96 CB         -6.8039  -27.9855  -49.6441 C.3       17 UNK        -0.1800 
     97 C          -6.5677  -26.1770  -51.4642 C.2       17 UNK         0.5000 
     98 O          -6.9965  -27.0044  -52.2706 O.2       17 UNK        -0.5000 
     99 N          -6.0766  -24.9783  -51.8068 N.am      18 UNK        -0.5000 
    100 CA        -5.8742  -24.4347  -53.1498 C.3       18 UNK         0.1400 
    101 CB        -7.2240  -24.2124  -53.8623 C.3       18 UNK        -0.1800 
    102 C         -4.8601  -25.2181  -54.0141 C.2       18 UNK         0.5000 
    103 O         -4.8891  -25.0846  -55.2383 O.2       18 UNK        -0.5000 
    104 N         -3.9610  -25.9968  -53.3915 N.am      19 UNK        -0.5000 
    105 CA        -2.8478  -26.6501  -54.0852 C.3       19 UNK         0.1400 
    106 CB        -2.3172  -27.8332  -53.2633 C.3       19 UNK        -0.1800 
    107 C         -1.7139  -25.6580  -54.3946 C.2       19 UNK         0.5000 
    108 O         -1.1055  -25.7552  -55.4612 O.2       19 UNK        -0.5000 
    109 N         -1.4613  -24.7150  -53.4741 N.am      20 UNK        -0.5000 
    110 CA        -0.5257  -23.6107  -53.6831 C.3       20 UNK         0.1400 
    111 CB         0.0766  -23.1675  -52.3394 C.3       20 UNK        -0.1800 
    112 C         -1.2331  -22.4410  -54.3843 C.2       20 UNK         0.5000 
    113 O         -0.6778  -21.8667  -55.3216 O.2       20 UNK        -0.5000 
    114 N         -2.4477  -22.1140  -53.9110 N.am      21 UNK        -0.5000 
    115 CA        -3.3886  -21.1150  -54.4475 C.3       21 UNK         0.1400 
    116 CB        -3.9276  -21.5855  -55.8137 C.3       21 UNK        -0.1800 
    117 C         -2.8545  -19.6646  -54.5289 C.2       21 UNK         0.5000 
    118 O         -3.4850  -18.8293  -55.1788 O.2       21 UNK        -0.5000 
    119 N         -1.7043  -19.3879  -53.8975 N.am      22 UNK        -0.5000 
    120 CA        -0.8928  -18.1755  -54.1030 C.3       22 UNK         0.1400 
    121 C         -0.2923  -18.0691  -55.5456 C.2       22 UNK         0.5000 
    122 N         -0.0926  -19.1751  -56.2549 N.am      22 UNK        -0.7600 
    123 O          0.0140  -16.9855  -56.0347 O.2       22 UNK        -0.5000 
    124 C124       -1.6119  -16.8884  -53.6017 C.3       23 UNK        -0.0398 
    125 S125       -0.4584  -15.5459  -53.1525 S.3       23 UNK        -0.2404 
    126 C126       -0.1005  -15.9094  -51.4072 C.3       23 UNK        -0.0205 
    127 H127        0.5704   -5.9971  -47.0858 H         1 UNK         0.0600 
    128 H128        0.5369   -6.5288  -45.4010 H         1 UNK         0.0600 
    129 H129       -0.7546   -7.0100  -46.5053 H         1 UNK         0.0600 
    130 H130       -0.5573   -9.1392  -47.1269 H         1 UNK         0.3000 
    131 H131        1.8988  -10.2337  -48.1773 H         1 UNK         0.0600 
    132 H132       -0.0931  -10.7055  -49.3931 H         1 UNK         0.0800 
    133 H133        0.4642  -12.2131  -48.7387 H         1 UNK         0.0800 
    134 H134       -3.6113  -11.8929  -48.9761 H         1 UNK         0.0800 
    135 H135       -2.2806  -11.5339  -50.0399 H         1 UNK         0.0800 
    136 H136       -0.6981  -13.3493  -50.7248 H         1 UNK         0.1150 
    137 H137       -1.9407  -17.3942  -50.0296 H         1 UNK         0.1150 
    138 H138       -3.9991  -14.1577  -48.1139 H         1 UNK         0.1150 
    139 H139       -5.0545  -16.5748  -48.6368 H         1 UNK         0.0800 
    140 H140       -3.8949  -17.8715  -48.7354 H         1 UNK         0.0800 
    141 H141       -2.0934  -17.7638  -45.2910 H         1 UNK         0.0800 
    142 H142       -1.7955  -17.8558  -47.0013 H         1 UNK         0.0800 
    143 H143       -3.3657  -19.7520  -47.2171 H         1 UNK         0.0600 
    144 H144       -0.9497  -19.9115  -45.7424 H         1 UNK         0.3000 
    145 H145       -0.3751  -22.5784  -44.7945 H         1 UNK         0.0600 
    146 H146        0.6370  -24.2702  -46.3412 H         1 UNK         0.0600 
    147 H147       -1.1028  -24.4607  -46.2240 H         1 UNK         0.0600 
    148 H148       -0.4014  -23.6964  -47.6440 H         1 UNK         0.0600 
    149 H149        1.4055  -21.4366  -45.4434 H         1 UNK         0.3000 
    150 H150        3.1469  -20.9080  -47.7102 H         1 UNK         0.0600 
    151 H151        2.1745  -19.6189  -49.5598 H         1 UNK         0.0600 
    152 H152        3.1913  -18.5547  -48.6079 H         1 UNK         0.0600 
    153 H153        1.4309  -18.4859  -48.4426 H         1 UNK         0.0600 
    154 H154        1.8172  -19.0694  -45.7605 H         1 UNK         0.3000 
    155 H155        4.5616  -19.6573  -43.5251 H         1 UNK         0.0600 
    156 H156        4.9851  -17.4130  -44.4808 H         1 UNK         0.0600 
    157 H157        4.1474  -17.2984  -42.9430 H         1 UNK         0.0600 
    158 H158        3.2631  -17.0512  -44.4437 H         1 UNK         0.0600 
    159 H159        2.1199  -18.6475  -42.7712 H         1 UNK         0.3000 
    160 H160        0.1910  -21.4822  -42.3234 H         1 UNK         0.0600 
    161 H161        2.3259  -20.8116  -40.2309 H         1 UNK         0.0600 
    162 H162        2.0168  -22.4064  -40.9066 H         1 UNK         0.0600 
    163 H163        0.7918  -21.6257  -39.9208 H         1 UNK         0.0600 
    164 H164        0.6079  -19.1234  -40.6879 H         1 UNK         0.3000 
    165 H165       -2.3069  -17.8640  -41.5479 H         1 UNK         0.0600 
    166 H166       -1.1335  -16.2293  -40.0718 H         1 UNK         0.0600 
    167 H167       -0.7874  -17.8823  -39.6074 H         1 UNK         0.0600 
    168 H168        0.4204  -16.9422  -40.4809 H         1 UNK         0.0600 
    169 H169       -2.1481  -16.3263  -43.1068 H         1 UNK         0.3000 
    170 H170       -1.3206  -15.4404  -45.0304 H         1 UNK         0.0600 
    171 H171       -1.5131  -13.6655  -43.2647 H         1 UNK         0.0600 
    172 H172        0.1920  -13.2797  -43.4663 H         1 UNK         0.0600 
    173 H173       -0.9436  -12.9998  -44.7866 H         1 UNK         0.0600 
    174 H174        1.0201  -14.1225  -45.6764 H         1 UNK         0.3000 
    175 H175        2.9058  -16.7335  -47.1668 H         1 UNK         0.0600 
    176 H176        2.6357  -15.3716  -49.2156 H         1 UNK         0.0600 
    177 H177        1.1411  -16.2293  -48.8660 H         1 UNK         0.0600 
    178 H178        1.2666  -14.5158  -48.5023 H         1 UNK         0.0600 
    179 H179        2.7352  -13.8320  -46.4508 H         1 UNK         0.3000 
    180 H180        5.9232  -13.8329  -45.1632 H         1 UNK         0.0600 
    181 H181        5.5969  -12.7321  -48.0072 H         1 UNK         0.0600 
    182 H182        6.8816  -13.8038  -47.4629 H         1 UNK         0.0600 
    183 H183        6.7736  -12.1756  -46.8159 H         1 UNK         0.0600 
    184 H184        4.2387  -11.7218  -46.2449 H         1 UNK         0.3000 
    185 H185        1.9626  -11.5797  -43.6168 H         1 UNK         0.0600 
    186 H186        3.8655  -10.4655  -42.4304 H         1 UNK         0.0600 
    187 H187        4.3155   -9.6397  -43.9183 H         1 UNK         0.0600 
    188 H188        2.7715   -9.2895  -43.1407 H         1 UNK         0.0600 
    189 H189        2.4310   -9.6335  -45.5798 H         1 UNK         0.3000 
    190 H190       -2.7075  -20.1143  -43.7549 H         1 UNK         0.3000 
    191 H191       -5.3479  -19.9657  -42.7345 H         1 UNK         0.0600 
    192 H192       -2.8910  -21.5347  -41.7807 H         1 UNK         0.0600 
    193 H193       -3.3864  -19.9229  -41.2627 H         1 UNK         0.0600 
    194 H194       -4.3551  -21.3151  -40.8292 H         1 UNK         0.0600 
    195 H195       -3.8860  -22.4617  -44.6754 H         1 UNK         0.3000 
    196 H196       -6.1010  -24.3893  -44.1421 H         1 UNK         0.0600 
    197 H197       -3.7652  -25.2515  -43.7649 H         1 UNK         0.0600 
    198 H198       -3.3613  -24.8537  -45.4336 H         1 UNK         0.0600 
    199 H199       -4.5765  -26.0758  -45.0849 H         1 UNK         0.0600 
    200 H200       -6.1169  -21.8263  -45.7920 H         1 UNK         0.3000 
    201 H201       -6.9930  -21.0236  -47.6441 H         1 UNK         0.0600 
    202 H202       -8.6574  -22.3258  -48.9125 H         1 UNK         0.0600 
    203 H203       -8.8634  -22.6207  -47.1939 H         1 UNK         0.0600 
    204 H204       -8.0852  -23.8314  -48.2115 H         1 UNK         0.0600 
    205 H205       -4.3379  -21.6183  -47.7238 H         1 UNK         0.3000 
    206 H206       -2.5397  -21.6148  -49.0285 H         1 UNK         0.0600 
    207 H207       -3.7943  -20.0031  -50.4709 H         1 UNK         0.0600 
    208 H208       -4.3924  -21.3446  -51.4434 H         1 UNK         0.0600 
    209 H209       -2.6655  -20.9880  -51.3809 H         1 UNK         0.0600 
    210 H210       -3.1272  -23.8511  -47.9953 H         1 UNK         0.3000 
    211 H211       -2.9166  -26.0595  -47.9090 H         1 UNK         0.0600 
    212 H212       -0.6803  -25.6442  -48.9241 H         1 UNK         0.0600 
    213 H213       -1.3289  -27.1774  -49.4715 H         1 UNK         0.0600 
    214 H214       -1.3599  -25.7839  -50.5415 H         1 UNK         0.0600 
    215 H215       -5.3854  -25.4398  -48.5326 H         1 UNK         0.3000 
    216 H216       -7.3168  -25.9103  -49.4919 H         1 UNK         0.0600 
    217 H217       -7.7881  -28.2825  -50.0077 H         1 UNK         0.0600 
    218 H218       -6.0697  -28.6421  -50.1121 H         1 UNK         0.0600 
    219 H219       -6.7852  -28.1725  -48.5704 H         1 UNK         0.0600 
    220 H220       -5.8029  -24.3513  -51.0558 H         1 UNK         0.3000 
    221 H221       -5.4254  -23.4525  -52.9960 H         1 UNK         0.0600 
    222 H222       -7.7079  -25.1556  -54.1168 H         1 UNK         0.0600 
    223 H223       -7.9093  -23.6403  -53.2367 H         1 UNK         0.0600 
    224 H224       -7.0911  -23.6530  -54.7890 H         1 UNK         0.0600 
    225 H225       -4.0026  -26.1066  -52.3843 H         1 UNK         0.3000 
    226 H226       -3.2145  -27.0491  -55.0335 H         1 UNK         0.0600 
    227 H227       -3.1172  -28.5279  -53.0067 H         1 UNK         0.0600 
    228 H228       -1.5692  -28.3914  -53.8275 H         1 UNK         0.0600 
    229 H229       -1.8447  -27.5041  -52.3378 H         1 UNK         0.0600 
    230 H230       -2.0286  -24.6784  -52.6333 H         1 UNK         0.3000 
    231 H231        0.2966  -23.9426  -54.3207 H         1 UNK         0.0600 
    232 H232        0.8380  -22.4016  -52.4910 H         1 UNK         0.0600 
    233 H233        0.5544  -24.0030  -51.8277 H         1 UNK         0.0600 
    234 H234       -0.6717  -22.7501  -51.6666 H         1 UNK         0.0600 
    235 H235       -2.7819  -22.6374  -53.1114 H         1 UNK         0.3000 
    236 H236       -4.2331  -21.0850  -53.7594 H         1 UNK         0.0600 
    237 H237       -4.3379  -22.5914  -55.7521 H         1 UNK         0.0600 
    238 H238       -4.7291  -20.9369  -56.1689 H         1 UNK         0.0600 
    239 H239       -3.1477  -21.5891  -56.5758 H         1 UNK         0.0600 
    240 H240       -1.2522  -20.1388  -53.3984 H         1 UNK         0.3000 
    241 H241       -0.0237  -18.3250  -53.4618 H         1 UNK         0.0600 
    242 H242        0.2984  -19.1011  -57.1804 H         1 UNK         0.3800 
    243 H243       -0.3278  -20.0930  -55.8850 H         1 UNK         0.3800 
    244 H244       -2.3024  -16.5153  -54.3594 H         1 UNK         0.0800 
    245 H245       -2.2256  -17.1136  -52.7289 H         1 UNK         0.0800 
    246 H246        0.0825  -16.9772  -51.2777 H         1 UNK         0.0800 
    247 H247        0.8313  -15.4066  -51.1474 H         1 UNK         0.0800 
@<TRIPOS>BOND
     1    1    2 1    
     2    1  127 1    
     3    1  128 1    
     4    1  129 1    
     5    2    3 2    
     6    2    4 am   BACKBONE|DICT|INTERRES
     7    4    5 1    
     8    4  130 1    
     9    5    6 1    
    10    5   65 1    
    11    5  131 1    
    12    6    7 1    
    13    6  132 1    
    14    6  133 1    
    15    7    8 1    
    16    8    9 1    
    17    8  134 1    
    18    8  135 1    
    19    9   10 ar   
    20    9   14 ar   
    21   10   11 ar   
    22   10  136 1    
    23   11   12 ar   
    24   11  126 1    
    25   12   13 ar   
    26   12  137 1    
    27   13   14 ar   
    28   13   15 1    
    29   14  138 1    
    30   15   16 1    
    31   15  139 1    
    32   15  140 1    
    33   16   17 1    
    34   17   18 1    
    35   17  141 1    
    36   17  142 1    
    37   18   19 1    
    38   18   67 1    
    39   18  143 1    
    40   19   20 am   BACKBONE|DICT|INTERRES
    41   19  144 1    
    42   20   21 2    
    43   20   22 1    
    44   22   23 1    
    45   22   24 1    
    46   22  145 1    
    47   23  146 1    
    48   23  147 1    
    49   23  148 1    
    50   24   25 am   BACKBONE|DICT|INTERRES
    51   24  149 1    
    52   25   26 2    
    53   25   27 1    
    54   27   28 1    
    55   27   29 1    
    56   27  150 1    
    57   28  151 1    
    58   28  152 1    
    59   28  153 1    
    60   29   30 am   BACKBONE|DICT|INTERRES
    61   29  154 1    
    62   30   31 2    
    63   30   32 1    
    64   32   33 1    
    65   32   34 1    
    66   32  155 1    
    67   33  156 1    
    68   33  157 1    
    69   33  158 1    
    70   34   35 am   BACKBONE|DICT|INTERRES
    71   34  159 1    
    72   35   36 2    
    73   35   37 1    
    74   37   38 1    
    75   37   39 1    
    76   37  160 1    
    77   38  161 1    
    78   38  162 1    
    79   38  163 1    
    80   39   40 am   BACKBONE|DICT|INTERRES
    81   39  164 1    
    82   40   41 2    
    83   40   42 1    
    84   42   43 1    
    85   42   44 1    
    86   42  165 1    
    87   43  166 1    
    88   43  167 1    
    89   43  168 1    
    90   44   45 am   BACKBONE|DICT|INTERRES
    91   44  169 1    
    92   45   46 2    
    93   45   47 1    
    94   47   48 1    
    95   47   49 1    
    96   47  170 1    
    97   48  171 1    
    98   48  172 1    
    99   48  173 1    
   100   49   50 am   BACKBONE|DICT|INTERRES
   101   49  174 1    
   102   50   51 2    
   103   50   52 1    
   104   52   53 1    
   105   52   54 1    
   106   52  175 1    
   107   53  176 1    
   108   53  177 1    
   109   53  178 1    
   110   54   55 am   BACKBONE|DICT|INTERRES
   111   54  179 1    
   112   55   56 2    
   113   55   57 1    
   114   57   58 1    
   115   57   59 1    
   116   57  180 1    
   117   58  181 1    
   118   58  182 1    
   119   58  183 1    
   120   59   60 am   BACKBONE|DICT|INTERRES
   121   59  184 1    
   122   60   61 2    
   123   60   62 1    
   124   62   63 1    
   125   62   64 1    
   126   62  185 1    
   127   63  186 1    
   128   63  187 1    
   129   63  188 1    
   130   64   65 am   BACKBONE|DICT|INTERRES
   131   64  189 1    
   132   65   66 2    
   133   67   68 2    
   134   67   69 am   BACKBONE|DICT|INTERRES
   135   69   70 1    
   136   69  190 1    
   137   70   71 1    
   138   70   72 1    
   139   70  191 1    
   140   71  192 1    
   141   71  193 1    
   142   71  194 1    
   143   72   73 2    
   144   72   74 am   BACKBONE|DICT|INTERRES
   145   74   75 1    
   146   74  195 1    
   147   75   76 1    
   148   75   77 1    
   149   75  196 1    
   150   76  197 1    
   151   76  198 1    
   152   76  199 1    
   153   77   78 2    
   154   77   79 am   BACKBONE|DICT|INTERRES
   155   79   80 1    
   156   79  200 1    
   157   80   81 1    
   158   80   82 1    
   159   80  201 1    
   160   81  202 1    
   161   81  203 1    
   162   81  204 1    
   163   82   83 2    
   164   82   84 am   BACKBONE|DICT|INTERRES
   165   84   85 1    
   166   84  205 1    
   167   85   86 1    
   168   85   87 1    
   169   85  206 1    
   170   86  207 1    
   171   86  208 1    
   172   86  209 1    
   173   87   88 2    
   174   87   89 am   BACKBONE|DICT|INTERRES
   175   89   90 1    
   176   89  210 1    
   177   90   91 1    
   178   90   92 1    
   179   90  211 1    
   180   91  212 1    
   181   91  213 1    
   182   91  214 1    
   183   92   93 2    
   184   92   94 am   BACKBONE|DICT|INTERRES
   185   94   95 1    
   186   94  215 1    
   187   95   96 1    
   188   95   97 1    
   189   95  216 1    
   190   96  217 1    
   191   96  218 1    
   192   96  219 1    
   193   97   98 2    
   194   97   99 am   BACKBONE|DICT|INTERRES
   195   99  100 1    
   196   99  220 1    
   197  100  101 1    
   198  100  102 1    
   199  100  221 1    
   200  101  222 1    
   201  101  223 1    
   202  101  224 1    
   203  102  103 2    
   204  102  104 am   BACKBONE|DICT|INTERRES
   205  104  105 1    
   206  104  225 1    
   207  105  106 1    
   208  105  107 1    
   209  105  226 1    
   210  106  227 1    
   211  106  228 1    
   212  106  229 1    
   213  107  108 2    
   214  107  109 am   BACKBONE|DICT|INTERRES
   215  109  110 1    
   216  109  230 1    
   217  110  111 1    
   218  110  112 1    
   219  110  231 1    
   220  111  232 1    
   221  111  233 1    
   222  111  234 1    
   223  112  113 2    
   224  112  114 am   BACKBONE|DICT|INTERRES
   225  114  115 1    
   226  114  235 1    
   227  115  116 1    
   228  115  117 1    
   229  115  236 1    
   230  116  237 1    
   231  116  238 1    
   232  116  239 1    
   233  117  118 2    
   234  117  119 am   BACKBONE|DICT|INTERRES
   235  119  120 1    
   236  119  240 1    
   237  120  121 1    
   238  120  124 1    
   239  120  241 1    
   240  121  122 am   BACKBONE|DICT|INTERRES
   241  121  123 2    
   242  122  242 1    
   243  122  243 1    
   244  124  125 1    
   245  124  244 1    
   246  124  245 1    
   247  125  126 1    
   248  126  246 1    
   249  126  247 1    
@<TRIPOS>SUBSTRUCTURE
     1 UNK         1 GROUP             0       ****    0 ROOT    
