@<TRIPOS>MOLECULE
3R540
247   249    1
SMALL
USER_CHARGES


@<TRIPOS>ATOM
      1 CA         -2.6569  -12.9362  -45.5422 C.3       0 UNK        -0.1800 
      2 C          -1.6994  -12.4752  -46.6314 C.2       0 UNK         0.5000 
      3 O          -2.0543  -11.6069  -47.4295 O.2       0 UNK        -0.5000 
      4 N          -0.4957  -13.0589  -46.6770 N.am      1 UNK        -0.5000 
      5 CA          0.5561  -12.7190  -47.6414 C.3       1 UNK         0.1400 
      6 C6          1.6070  -13.8503  -47.8149 C.3       23 UNK        -0.0398 
      7 S7          0.8929  -15.5199  -47.9292 S.3       23 UNK        -0.2404 
      8 C8          0.4161  -15.6242  -49.6742 C.3       23 UNK        -0.0205 
      9 C9         -0.4053  -16.8806  -49.8976 C.ar      23 UNK        -0.0193 
     10 C10        -1.7912  -16.8498  -49.7231 C.ar      23 UNK        -0.1150 
     11 C11        -2.5545  -18.0087  -49.8886 C.ar      23 UNK        -0.0193 
     12 C12        -1.9172  -19.2035  -50.2317 C.ar      23 UNK        -0.1150 
     13 C13        -0.5278  -19.2528  -50.3804 C.ar      23 UNK        -0.0193 
     14 C14         0.2223  -18.0847  -50.2256 C.ar      23 UNK        -0.1150 
     15 C15         0.1664  -20.5730  -50.6768 C.3       23 UNK        -0.0205 
     16 S16         0.6972  -21.4078  -49.1451 S.3       23 UNK        -0.2404 
     17 C17        -0.9175  -21.7656  -48.3838 C.3       23 UNK        -0.0398 
     18 CA         -0.8584  -22.8973  -47.3337 C.3       11 UNK         0.1400 
     19 N          -0.2637  -22.4826  -46.0590 N.am      11 UNK        -0.5000 
     20 C          -0.0166  -23.3188  -45.0384 C.2       10 UNK         0.5000 
     21 O          -0.1949  -24.5355  -45.0929 O.2       10 UNK        -0.5000 
     22 CA          0.4398  -22.6917  -43.7101 C.3       10 UNK         0.1400 
     23 CB          1.9361  -22.3481  -43.7448 C.3       10 UNK        -0.1800 
     24 N          -0.3435  -21.5075  -43.3568 N.am      10 UNK        -0.5000 
     25 C          -1.6606  -21.5169  -43.1035 C.2       9 UNK         0.5000 
     26 O          -2.3418  -22.5420  -43.0757 O.2       9 UNK        -0.5000 
     27 CA         -2.3426  -20.1510  -42.8969 C.3       9 UNK         0.1400 
     28 CB         -2.1502  -19.6512  -41.4580 C.3       9 UNK        -0.1800 
     29 N          -1.8672  -19.1373  -43.8392 N.am      9 UNK        -0.5000 
     30 C          -2.0280  -19.2009  -45.1695 C.2       8 UNK         0.5000 
     31 O          -2.6500  -20.0949  -45.7423 O.2       8 UNK        -0.5000 
     32 CA         -1.3319  -18.1100  -46.0001 C.3       8 UNK         0.1400 
     33 CB         -2.1898  -16.8371  -46.0541 C.3       8 UNK        -0.1800 
     34 N          -0.0013  -17.8009  -45.4740 N.am      8 UNK        -0.5000 
     35 C           1.0378  -18.6467  -45.5264 C.2       7 UNK         0.5000 
     36 O           0.9825  -19.7614  -46.0454 O.2       7 UNK        -0.5000 
     37 CA          2.3330  -18.2042  -44.8190 C.3       7 UNK         0.1400 
     38 CB          3.1851  -17.2902  -45.7111 C.3       7 UNK        -0.1800 
     39 N           2.0709  -17.5326  -43.5464 N.am      7 UNK        -0.5000 
     40 C           1.5852  -18.1491  -42.4595 C.2       6 UNK         0.5000 
     41 O           1.3493  -19.3549  -42.4106 O.2       6 UNK        -0.5000 
     42 CA          1.2726  -17.2713  -41.2331 C.3       6 UNK         0.1400 
     43 CB          2.4982  -17.1814  -40.3120 C.3       6 UNK        -0.1800 
     44 N           0.8350  -15.9190  -41.5801 N.am      6 UNK        -0.5000 
     45 C          -0.2500  -15.6143  -42.3068 C.2       5 UNK         0.5000 
     46 O          -1.0310  -16.4562  -42.7510 O.2       5 UNK        -0.5000 
     47 CA         -0.4747  -14.1228  -42.6251 C.3       5 UNK         0.1400 
     48 CB         -1.5279  -13.5189  -41.6857 C.3       5 UNK        -0.1800 
     49 N           0.7554  -13.3268  -42.5548 N.am      5 UNK        -0.5000 
     50 C           1.7579  -13.4188  -43.4374 C.2       4 UNK         0.5000 
     51 O           1.7198  -14.1390  -44.4386 O.2       4 UNK        -0.5000 
     52 CA          3.0377  -12.6415  -43.1019 C.3       4 UNK         0.1400 
     53 CB          3.8772  -13.4451  -42.0864 C.3       4 UNK        -0.1800 
     54 N           3.7885  -12.4207  -44.3338 N.am      4 UNK        -0.5000 
     55 C           4.8813  -11.6603  -44.4743 C.2       3 UNK         0.5000 
     56 O           5.4061  -11.0290  -43.5561 O.2       3 UNK        -0.5000 
     57 CA          5.4760  -11.5761  -45.8923 C.3       3 UNK         0.1400 
     58 CB          6.0528  -12.9315  -46.3346 C.3       3 UNK        -0.1800 
     59 N           4.4860  -11.1255  -46.8696 N.am      3 UNK        -0.5000 
     60 C           3.9951   -9.8791  -46.9421 C.2       2 UNK         0.5000 
     61 O           4.3953   -8.9426  -46.2496 O.2       2 UNK        -0.5000 
     62 CA          2.8525   -9.6398  -47.9518 C.3       2 UNK         0.1400 
     63 CB          3.4144   -9.1535  -49.2966 C.3       2 UNK        -0.1800 
     64 N           2.0188  -10.8253  -48.1792 N.am      2 UNK        -0.5000 
     65 C           1.2583  -11.4046  -47.2396 C.2       1 UNK         0.5000 
     66 O           1.1514  -10.9674  -46.0903 O.2       1 UNK        -0.5000 
     67 C          -2.2614  -23.5026  -47.1437 C.2       11 UNK         0.5000 
     68 O          -2.5341  -24.5487  -47.7226 O.2       11 UNK        -0.5000 
     69 N          -3.1165  -22.8649  -46.3323 N.am      12 UNK        -0.5000 
     70 CA         -4.4639  -23.3481  -46.0205 C.3       12 UNK         0.1400 
     71 CB         -5.2157  -22.2941  -45.1946 C.3       12 UNK        -0.1800 
     72 C          -4.4663  -24.7163  -45.3119 C.2       12 UNK         0.5000 
     73 O          -5.2874  -25.5699  -45.6486 O.2       12 UNK        -0.5000 
     74 N          -3.5282  -24.9137  -44.3756 N.am      13 UNK        -0.5000 
     75 CA         -3.3207  -26.1734  -43.6610 C.3       13 UNK         0.1400 
     76 CB         -2.3765  -25.9332  -42.4730 C.3       13 UNK        -0.1800 
     77 C          -2.7830  -27.2985  -44.5670 C.2       13 UNK         0.5000 
     78 O          -3.2452  -28.4352  -44.4634 O.2       13 UNK        -0.5000 
     79 N          -1.8234  -26.9641  -45.4395 N.am      14 UNK        -0.5000 
     80 CA         -1.1639  -27.8969  -46.3581 C.3       14 UNK         0.1400 
     81 CB          0.2343  -27.3456  -46.6817 C.3       14 UNK        -0.1800 
     82 C          -1.9466  -28.1553  -47.6622 C.2       14 UNK         0.5000 
     83 O          -1.5152  -28.9866  -48.4628 O.2       14 UNK        -0.5000 
     84 N          -3.0352  -27.4077  -47.8873 N.am      15 UNK        -0.5000 
     85 CA         -3.8254  -27.2612  -49.1172 C.3       15 UNK         0.1400 
     86 CB         -4.3734  -28.6031  -49.6396 C.3       15 UNK        -0.1800 
     87 C          -3.0720  -26.4731  -50.2071 C.2       15 UNK         0.5000 
     88 O          -3.6051  -25.4761  -50.6948 O.2       15 UNK        -0.5000 
     89 N          -1.8379  -26.9047  -50.5143 N.am      16 UNK        -0.5000 
     90 CA         -0.7904  -26.2351  -51.2946 C.3       16 UNK         0.1400 
     91 CB          0.0219  -25.3220  -50.3513 C.3       16 UNK        -0.1800 
     92 C          -1.3074  -25.5050  -52.5532 C.2       16 UNK         0.5000 
     93 O          -1.6286  -26.1606  -53.5457 O.2       16 UNK        -0.5000 
     94 N          -1.3919  -24.1721  -52.4713 N.am      17 UNK        -0.5000 
     95 CA         -1.9518  -23.2837  -53.4839 C.3       17 UNK         0.1400 
     96 CB         -0.8075  -22.5511  -54.2085 C.3       17 UNK        -0.1800 
     97 C          -2.9738  -22.3209  -52.8499 C.2       17 UNK         0.5000 
     98 O          -3.1013  -21.1792  -53.2991 O.2       17 UNK        -0.5000 
     99 N          -3.6964  -22.7794  -51.8168 N.am      18 UNK        -0.5000 
    100 CA        -4.8142  -22.0489  -51.2184 C.3       18 UNK         0.1400 
    101 CB        -5.2935  -22.7754  -49.9541 C.3       18 UNK        -0.1800 
    102 C         -5.9530  -21.8762  -52.2402 C.2       18 UNK         0.5000 
    103 O         -6.3983  -22.8630  -52.8297 O.2       18 UNK        -0.5000 
    104 N         -6.3526  -20.6170  -52.4584 N.am      19 UNK        -0.5000 
    105 CA        -7.2860  -20.1434  -53.4869 C.3       19 UNK         0.1400 
    106 CB        -8.6955  -20.7392  -53.2840 C.3       19 UNK        -0.1800 
    107 C         -6.7623  -20.3106  -54.9331 C.2       19 UNK         0.5000 
    108 O         -7.5624  -20.2909  -55.8708 O.2       19 UNK        -0.5000 
    109 N         -5.4388  -20.4499  -55.0958 N.am      20 UNK        -0.5000 
    110 CA        -4.7484  -20.4727  -56.3849 C.3       20 UNK         0.1400 
    111 CB        -4.1724  -21.8731  -56.6482 C.3       20 UNK        -0.1800 
    112 C         -3.6536  -19.3951  -56.4224 C.2       20 UNK         0.5000 
    113 O         -3.5915  -18.6346  -57.3893 O.2       20 UNK        -0.5000 
    114 N         -2.8263  -19.3257  -55.3685 N.am      21 UNK        -0.5000 
    115 CA        -1.8439  -18.2611  -55.1595 C.3       21 UNK         0.1400 
    116 CB        -0.8049  -18.7128  -54.1201 C.3       21 UNK        -0.1800 
    117 C         -2.5401  -16.9612  -54.7233 C.2       21 UNK         0.5000 
    118 O         -2.3440  -15.9163  -55.3455 O.2       21 UNK        -0.5000 
    119 N         -3.3715  -17.0718  -53.6824 N.am      22 UNK        -0.5000 
    120 CA        -4.3308  -16.0492  -53.2507 C.3       22 UNK         0.1400 
    121 C         -5.6084  -16.0324  -54.1363 C.2       22 UNK         0.5000 
    122 N         -6.2806  -14.8938  -54.2394 N.am      22 UNK        -0.7600 
    123 O         -6.0164  -17.0415  -54.7058 O.2       22 UNK        -0.5000 
    124 C124       -4.6787  -16.1809  -51.7435 C.3       23 UNK        -0.0398 
    125 S125       -5.0221  -17.8899  -51.1820 S.3       23 UNK        -0.2404 
    126 C126       -4.0562  -17.9844  -49.6412 C.3       23 UNK        -0.0205 
    127 H127       -2.5237  -12.3341  -44.6434 H         1 UNK         0.0600 
    128 H128       -2.4960  -13.9830  -45.2896 H         1 UNK         0.0600 
    129 H129       -3.6899  -12.8309  -45.8740 H         1 UNK         0.0600 
    130 H130       -0.2270  -13.7377  -45.9789 H         1 UNK         0.3000 
    131 H131        0.0806  -12.5571  -48.6112 H         1 UNK         0.0600 
    132 H132        2.2988  -13.8687  -46.9720 H         1 UNK         0.0800 
    133 H133        2.2205  -13.6742  -48.6998 H         1 UNK         0.0800 
    134 H134        1.3082  -15.6314  -50.3022 H         1 UNK         0.0800 
    135 H135       -0.1630  -14.7432  -49.9546 H         1 UNK         0.0800 
    136 H136       -2.2695  -15.9251  -49.4331 H         1 UNK         0.1150 
    137 H137       -2.4987  -20.1042  -50.3516 H         1 UNK         0.1150 
    138 H138        1.2976  -18.1192  -50.3297 H         1 UNK         0.1150 
    139 H139       -0.4948  -21.2288  -51.2429 H         1 UNK         0.0800 
    140 H140        1.0384  -20.3990  -51.3089 H         1 UNK         0.0800 
    141 H141       -1.5994  -22.0334  -49.1936 H         1 UNK         0.0800 
    142 H142       -1.3111  -20.8499  -47.9416 H         1 UNK         0.0800 
    143 H143       -0.2266  -23.6957  -47.7275 H         1 UNK         0.0600 
    144 H144       -0.0366  -21.4978  -45.9594 H         1 UNK         0.3000 
    145 H145        0.2851  -23.4346  -42.9248 H         1 UNK         0.0600 
    146 H146        2.1605  -21.5864  -44.4909 H         1 UNK         0.0600 
    147 H147        2.2779  -21.9797  -42.7775 H         1 UNK         0.0600 
    148 H148        2.5322  -23.2290  -43.9862 H         1 UNK         0.0600 
    149 H149        0.1641  -20.6304  -43.2919 H         1 UNK         0.3000 
    150 H150       -3.4126  -20.2839  -43.0681 H         1 UNK         0.0600 
    151 H151       -2.5722  -20.3577  -40.7423 H         1 UNK         0.0600 
    152 H152       -2.6460  -18.6928  -41.3022 H         1 UNK         0.0600 
    153 H153       -1.0963  -19.5275  -41.2113 H         1 UNK         0.0600 
    154 H154       -1.3814  -18.3363  -43.4492 H         1 UNK         0.3000 
    155 H155       -1.2147  -18.4823  -47.0204 H         1 UNK         0.0600 
    156 H156       -3.1672  -17.0490  -46.4890 H         1 UNK         0.0600 
    157 H157       -1.7244  -16.0692  -46.6706 H         1 UNK         0.0600 
    158 H158       -2.3575  -16.4186  -45.0620 H         1 UNK         0.0600 
    159 H159        0.1112  -16.9180  -44.9989 H         1 UNK         0.3000 
    160 H160        2.9149  -19.1058  -44.6154 H         1 UNK         0.0600 
    161 H161        2.7318  -16.3066  -45.8279 H         1 UNK         0.0600 
    162 H162        3.3123  -17.7172  -46.7069 H         1 UNK         0.0600 
    163 H163        4.1791  -17.1465  -45.2878 H         1 UNK         0.0600 
    164 H164        2.2102  -16.5324  -43.5212 H         1 UNK         0.3000 
    165 H165        0.4625  -17.7501  -40.6802 H         1 UNK         0.0600 
    166 H166        2.2661  -16.6347  -39.3979 H         1 UNK         0.0600 
    167 H167        2.8385  -18.1750  -40.0171 H         1 UNK         0.0600 
    168 H168        3.3342  -16.6796  -40.8012 H         1 UNK         0.0600 
    169 H169        1.4120  -15.1607  -41.2499 H         1 UNK         0.3000 
    170 H170       -0.8543  -14.0690  -43.6450 H         1 UNK         0.0600 
    171 H171       -2.4648  -14.0750  -41.7412 H         1 UNK         0.0600 
    172 H172       -1.1974  -13.5341  -40.6464 H         1 UNK         0.0600 
    173 H173       -1.7491  -12.4857  -41.9540 H         1 UNK         0.0600 
    174 H174        0.8529  -12.7150  -41.7568 H         1 UNK         0.3000 
    175 H175        2.7627  -11.6733  -42.6790 H         1 UNK         0.0600 
    176 H176        4.1957  -14.4031  -42.5000 H         1 UNK         0.0600 
    177 H177        4.7706  -12.9021  -41.7796 H         1 UNK         0.0600 
    178 H178        3.3091  -13.6518  -41.1788 H         1 UNK         0.0600 
    179 H179        3.3960  -12.8953  -45.1355 H         1 UNK         0.3000 
    180 H180        6.2941  -10.8528  -45.8715 H         1 UNK         0.0600 
    181 H181        5.2800  -13.6960  -46.4245 H         1 UNK         0.0600 
    182 H182        6.7901  -13.2934  -45.6169 H         1 UNK         0.0600 
    183 H183        6.5541  -12.8487  -47.2991 H         1 UNK         0.0600 
    184 H184        4.1138  -11.8217  -47.4963 H         1 UNK         0.3000 
    185 H185        2.2141   -8.8531  -47.5442 H         1 UNK         0.0600 
    186 H186        2.6131   -8.9031  -49.9922 H         1 UNK         0.0600 
    187 H187        4.0200   -8.2559  -49.1648 H         1 UNK         0.0600 
    188 H188        4.0454   -9.9087  -49.7669 H         1 UNK         0.0600 
    189 H189        2.0529  -11.2233  -49.1069 H         1 UNK         0.3000 
    190 H190       -2.8454  -21.9712  -45.9298 H         1 UNK         0.3000 
    191 H191       -4.9958  -23.4722  -46.9654 H         1 UNK         0.0600 
    192 H192       -5.2718  -21.3438  -45.7260 H         1 UNK         0.0600 
    193 H193       -6.2381  -22.6149  -44.9915 H         1 UNK         0.0600 
    194 H194       -4.7326  -22.1126  -44.2350 H         1 UNK         0.0600 
    195 H195       -2.9239  -24.1377  -44.1216 H         1 UNK         0.3000 
    196 H196       -4.2850  -26.4984  -43.2649 H         1 UNK         0.0600 
    197 H197       -2.2187  -26.8517  -41.9064 H         1 UNK         0.0600 
    198 H198       -2.7884  -25.1932  -41.7865 H         1 UNK         0.0600 
    199 H199       -1.3995  -25.5758  -42.8001 H         1 UNK         0.0600 
    200 H200       -1.4639  -26.0134  -45.4307 H         1 UNK         0.3000 
    201 H201       -1.0403  -28.8599  -45.8586 H         1 UNK         0.0600 
    202 H202        0.8268  -27.2185  -45.7755 H         1 UNK         0.0600 
    203 H203        0.1744  -26.3768  -47.1790 H         1 UNK         0.0600 
    204 H204        0.7859  -28.0201  -47.3377 H         1 UNK         0.0600 
    205 H205       -3.2226  -26.6917  -47.1969 H         1 UNK         0.3000 
    206 H206       -4.6842  -26.6518  -48.8305 H         1 UNK         0.0600 
    207 H207       -3.5851  -29.2567  -50.0128 H         1 UNK         0.0600 
    208 H208       -4.9131  -29.1385  -48.8585 H         1 UNK         0.0600 
    209 H209       -5.0699  -28.4381  -50.4624 H         1 UNK         0.0600 
    210 H210       -1.5445  -27.7543  -50.0431 H         1 UNK         0.3000 
    211 H211       -0.1205  -27.0187  -51.6513 H         1 UNK         0.0600 
    212 H212        0.8216  -24.8058  -50.8844 H         1 UNK         0.0600 
    213 H213        0.4916  -25.9030  -49.5582 H         1 UNK         0.0600 
    214 H214       -0.6082  -24.5698  -49.8777 H         1 UNK         0.0600 
    215 H215       -1.1332  -23.7365  -51.5983 H         1 UNK         0.3000 
    216 H216       -2.5072  -23.8635  -54.2235 H         1 UNK         0.0600 
    217 H217       -1.1864  -21.9100  -55.0049 H         1 UNK         0.0600 
    218 H218       -0.1190  -23.2598  -54.6687 H         1 UNK         0.0600 
    219 H219       -0.2333  -21.9246  -53.5264 H         1 UNK         0.0600 
    220 H220       -3.5833  -23.7459  -51.5181 H         1 UNK         0.3000 
    221 H221       -4.4540  -21.0636  -50.9206 H         1 UNK         0.0600 
    222 H222       -5.6984  -23.7615  -50.1846 H         1 UNK         0.0600 
    223 H223       -4.4746  -22.9078  -49.2479 H         1 UNK         0.0600 
    224 H224       -6.0752  -22.2071  -49.4491 H         1 UNK         0.0600 
    225 H225       -5.9104  -19.8775  -51.9259 H         1 UNK         0.3000 
    226 H226       -7.3685  -19.0670  -53.3303 H         1 UNK         0.0600 
    227 H227       -9.0344  -20.6102  -52.2561 H         1 UNK         0.0600 
    228 H228       -9.4240  -20.2454  -53.9278 H         1 UNK         0.0600 
    229 H229       -8.7255  -21.8034  -53.5179 H         1 UNK         0.0600 
    230 H230       -4.8500  -20.4714  -54.2730 H         1 UNK         0.3000 
    231 H231       -5.4460  -20.2421  -57.1927 H         1 UNK         0.0600 
    232 H232       -3.4595  -22.1708  -55.8815 H         1 UNK         0.0600 
    233 H233       -3.6557  -21.9076  -57.6080 H         1 UNK         0.0600 
    234 H234       -4.9635  -22.6225  -56.6763 H         1 UNK         0.0600 
    235 H235       -2.9168  -20.0066  -54.6174 H         1 UNK         0.3000 
    236 H236       -1.3222  -18.0690  -56.0995 H         1 UNK         0.0600 
    237 H237       -0.2284  -19.5619  -54.4855 H         1 UNK         0.0600 
    238 H238       -0.0983  -17.9125  -53.8970 H         1 UNK         0.0600 
    239 H239       -1.2740  -19.0071  -53.1812 H         1 UNK         0.0600 
    240 H240       -3.4798  -17.9732  -53.2424 H         1 UNK         0.3000 
    241 H241       -3.8514  -15.0769  -53.3819 H         1 UNK         0.0600 
    242 H242       -7.1170  -14.8724  -54.8020 H         1 UNK         0.3800 
    243 H243       -5.9728  -14.0495  -53.7819 H         1 UNK         0.3800 
    244 H244       -3.8483  -15.7769  -51.1680 H         1 UNK         0.0800 
    245 H245       -5.5313  -15.5528  -51.4796 H         1 UNK         0.0800 
    246 H246       -4.3451  -18.8869  -49.1005 H         1 UNK         0.0800 
    247 H247       -4.3253  -17.1484  -48.9936 H         1 UNK         0.0800 
@<TRIPOS>BOND
     1    1    2 1    
     2    1  127 1    
     3    1  128 1    
     4    1  129 1    
     5    2    3 2    
     6    2    4 am   BACKBONE|DICT|INTERRES
     7    4    5 1    
     8    4  130 1    
     9    5    6 1    
    10    5   65 1    
    11    5  131 1    
    12    6    7 1    
    13    6  132 1    
    14    6  133 1    
    15    7    8 1    
    16    8    9 1    
    17    8  134 1    
    18    8  135 1    
    19    9   10 ar   
    20    9   14 ar   
    21   10   11 ar   
    22   10  136 1    
    23   11   12 ar   
    24   11  126 1    
    25   12   13 ar   
    26   12  137 1    
    27   13   14 ar   
    28   13   15 1    
    29   14  138 1    
    30   15   16 1    
    31   15  139 1    
    32   15  140 1    
    33   16   17 1    
    34   17   18 1    
    35   17  141 1    
    36   17  142 1    
    37   18   19 1    
    38   18   67 1    
    39   18  143 1    
    40   19   20 am   BACKBONE|DICT|INTERRES
    41   19  144 1    
    42   20   21 2    
    43   20   22 1    
    44   22   23 1    
    45   22   24 1    
    46   22  145 1    
    47   23  146 1    
    48   23  147 1    
    49   23  148 1    
    50   24   25 am   BACKBONE|DICT|INTERRES
    51   24  149 1    
    52   25   26 2    
    53   25   27 1    
    54   27   28 1    
    55   27   29 1    
    56   27  150 1    
    57   28  151 1    
    58   28  152 1    
    59   28  153 1    
    60   29   30 am   BACKBONE|DICT|INTERRES
    61   29  154 1    
    62   30   31 2    
    63   30   32 1    
    64   32   33 1    
    65   32   34 1    
    66   32  155 1    
    67   33  156 1    
    68   33  157 1    
    69   33  158 1    
    70   34   35 am   BACKBONE|DICT|INTERRES
    71   34  159 1    
    72   35   36 2    
    73   35   37 1    
    74   37   38 1    
    75   37   39 1    
    76   37  160 1    
    77   38  161 1    
    78   38  162 1    
    79   38  163 1    
    80   39   40 am   BACKBONE|DICT|INTERRES
    81   39  164 1    
    82   40   41 2    
    83   40   42 1    
    84   42   43 1    
    85   42   44 1    
    86   42  165 1    
    87   43  166 1    
    88   43  167 1    
    89   43  168 1    
    90   44   45 am   BACKBONE|DICT|INTERRES
    91   44  169 1    
    92   45   46 2    
    93   45   47 1    
    94   47   48 1    
    95   47   49 1    
    96   47  170 1    
    97   48  171 1    
    98   48  172 1    
    99   48  173 1    
   100   49   50 am   BACKBONE|DICT|INTERRES
   101   49  174 1    
   102   50   51 2    
   103   50   52 1    
   104   52   53 1    
   105   52   54 1    
   106   52  175 1    
   107   53  176 1    
   108   53  177 1    
   109   53  178 1    
   110   54   55 am   BACKBONE|DICT|INTERRES
   111   54  179 1    
   112   55   56 2    
   113   55   57 1    
   114   57   58 1    
   115   57   59 1    
   116   57  180 1    
   117   58  181 1    
   118   58  182 1    
   119   58  183 1    
   120   59   60 am   BACKBONE|DICT|INTERRES
   121   59  184 1    
   122   60   61 2    
   123   60   62 1    
   124   62   63 1    
   125   62   64 1    
   126   62  185 1    
   127   63  186 1    
   128   63  187 1    
   129   63  188 1    
   130   64   65 am   BACKBONE|DICT|INTERRES
   131   64  189 1    
   132   65   66 2    
   133   67   68 2    
   134   67   69 am   BACKBONE|DICT|INTERRES
   135   69   70 1    
   136   69  190 1    
   137   70   71 1    
   138   70   72 1    
   139   70  191 1    
   140   71  192 1    
   141   71  193 1    
   142   71  194 1    
   143   72   73 2    
   144   72   74 am   BACKBONE|DICT|INTERRES
   145   74   75 1    
   146   74  195 1    
   147   75   76 1    
   148   75   77 1    
   149   75  196 1    
   150   76  197 1    
   151   76  198 1    
   152   76  199 1    
   153   77   78 2    
   154   77   79 am   BACKBONE|DICT|INTERRES
   155   79   80 1    
   156   79  200 1    
   157   80   81 1    
   158   80   82 1    
   159   80  201 1    
   160   81  202 1    
   161   81  203 1    
   162   81  204 1    
   163   82   83 2    
   164   82   84 am   BACKBONE|DICT|INTERRES
   165   84   85 1    
   166   84  205 1    
   167   85   86 1    
   168   85   87 1    
   169   85  206 1    
   170   86  207 1    
   171   86  208 1    
   172   86  209 1    
   173   87   88 2    
   174   87   89 am   BACKBONE|DICT|INTERRES
   175   89   90 1    
   176   89  210 1    
   177   90   91 1    
   178   90   92 1    
   179   90  211 1    
   180   91  212 1    
   181   91  213 1    
   182   91  214 1    
   183   92   93 2    
   184   92   94 am   BACKBONE|DICT|INTERRES
   185   94   95 1    
   186   94  215 1    
   187   95   96 1    
   188   95   97 1    
   189   95  216 1    
   190   96  217 1    
   191   96  218 1    
   192   96  219 1    
   193   97   98 2    
   194   97   99 am   BACKBONE|DICT|INTERRES
   195   99  100 1    
   196   99  220 1    
   197  100  101 1    
   198  100  102 1    
   199  100  221 1    
   200  101  222 1    
   201  101  223 1    
   202  101  224 1    
   203  102  103 2    
   204  102  104 am   BACKBONE|DICT|INTERRES
   205  104  105 1    
   206  104  225 1    
   207  105  106 1    
   208  105  107 1    
   209  105  226 1    
   210  106  227 1    
   211  106  228 1    
   212  106  229 1    
   213  107  108 2    
   214  107  109 am   BACKBONE|DICT|INTERRES
   215  109  110 1    
   216  109  230 1    
   217  110  111 1    
   218  110  112 1    
   219  110  231 1    
   220  111  232 1    
   221  111  233 1    
   222  111  234 1    
   223  112  113 2    
   224  112  114 am   BACKBONE|DICT|INTERRES
   225  114  115 1    
   226  114  235 1    
   227  115  116 1    
   228  115  117 1    
   229  115  236 1    
   230  116  237 1    
   231  116  238 1    
   232  116  239 1    
   233  117  118 2    
   234  117  119 am   BACKBONE|DICT|INTERRES
   235  119  120 1    
   236  119  240 1    
   237  120  121 1    
   238  120  124 1    
   239  120  241 1    
   240  121  122 am   BACKBONE|DICT|INTERRES
   241  121  123 2    
   242  122  242 1    
   243  122  243 1    
   244  124  125 1    
   245  124  244 1    
   246  124  245 1    
   247  125  126 1    
   248  126  246 1    
   249  126  247 1    
@<TRIPOS>SUBSTRUCTURE
     1 UNK         1 GROUP             0       ****    0 ROOT    
