@<TRIPOS>MOLECULE
3R540
247   249    1
SMALL
USER_CHARGES


@<TRIPOS>ATOM
      1 CA         -1.2257  -14.7368  -45.9461 C.3       0 UNK        -0.1800 
      2 C          -1.1123  -13.3882  -46.6399 C.2       0 UNK         0.5000 
      3 O          -1.6821  -12.4055  -46.1659 O.2       0 UNK        -0.5000 
      4 N          -0.3780  -13.3397  -47.7589 N.am      1 UNK        -0.5000 
      5 CA         -0.0980  -12.1083  -48.5100 C.3       1 UNK         0.1400 
      6 C6          0.1868  -12.3892  -50.0047 C.3       23 UNK        -0.0398 
      7 S7         -1.3088  -12.9731  -50.8709 S.3       23 UNK        -0.2404 
      8 C8         -0.6044  -14.1286  -52.0968 C.3       23 UNK        -0.0205 
      9 C9         -0.2294  -15.5212  -51.5846 C.ar      23 UNK        -0.0193 
     10 C10         0.4811  -16.3626  -52.4464 C.ar      23 UNK        -0.1150 
     11 C11         0.8021  -17.6701  -52.0745 C.ar      23 UNK        -0.0193 
     12 C12         0.4370  -18.1312  -50.8083 C.ar      23 UNK        -0.1150 
     13 C13        -0.2748  -17.3082  -49.9337 C.ar      23 UNK        -0.0193 
     14 C14        -0.6087  -16.0079  -50.3251 C.ar      23 UNK        -0.1150 
     15 C15        -0.7116  -17.8422  -48.5817 C.3       23 UNK        -0.0205 
     16 S16        -2.3544  -18.6082  -48.6927 S.3       23 UNK        -0.2404 
     17 C17        -2.5233  -19.2662  -47.0048 C.3       23 UNK        -0.0398 
     18 CA         -2.0280  -20.7363  -46.9068 C.3       11 UNK         0.1400 
     19 N          -0.7849  -20.8649  -46.1385 N.am      11 UNK        -0.5000 
     20 C          -0.0792  -21.9990  -46.0135 C.2       10 UNK         0.5000 
     21 O          -0.3770  -23.0551  -46.5693 O.2       10 UNK        -0.5000 
     22 CA          1.1297  -21.9694  -45.0631 C.3       10 UNK         0.1400 
     23 CB          2.3455  -21.3248  -45.7447 C.3       10 UNK        -0.1800 
     24 N           0.8345  -21.2847  -43.8037 N.am      10 UNK        -0.5000 
     25 C          -0.0827  -21.6968  -42.9157 C.2       9 UNK         0.5000 
     26 O          -0.7366  -22.7319  -43.0403 O.2       9 UNK        -0.5000 
     27 CA         -0.3590  -20.7742  -41.7149 C.3       9 UNK         0.1400 
     28 CB          0.7119  -20.9511  -40.6287 C.3       9 UNK        -0.1800 
     29 N          -0.4456  -19.3650  -42.0969 N.am      9 UNK        -0.5000 
     30 C          -1.3566  -18.8541  -42.9377 C.2       8 UNK         0.5000 
     31 O          -2.2628  -19.5095  -43.4528 O.2       8 UNK        -0.5000 
     32 CA         -1.1827  -17.3738  -43.3179 C.3       8 UNK         0.1400 
     33 CB         -1.7326  -16.4476  -42.2227 C.3       8 UNK        -0.1800 
     34 N           0.2166  -17.0452  -43.5928 N.am      8 UNK        -0.5000 
     35 C           0.9139  -17.5336  -44.6283 C.2       7 UNK         0.5000 
     36 O           0.4336  -18.2697  -45.4890 O.2       7 UNK        -0.5000 
     37 CA          2.4056  -17.1708  -44.6905 C.3       7 UNK         0.1400 
     38 CB          2.6051  -15.7926  -45.3361 C.3       7 UNK        -0.1800 
     39 N           3.0305  -17.1989  -43.3674 N.am      7 UNK        -0.5000 
     40 C           3.2671  -18.3290  -42.6828 C.2       6 UNK         0.5000 
     41 O           3.0110  -19.4515  -43.1159 O.2       6 UNK        -0.5000 
     42 CA          3.8449  -18.1892  -41.2615 C.3       6 UNK         0.1400 
     43 CB          5.3796  -18.1551  -41.3068 C.3       6 UNK        -0.1800 
     44 N           3.3595  -17.0052  -40.5542 N.am      6 UNK        -0.5000 
     45 C           2.0755  -16.7452  -40.2699 C.2       5 UNK         0.5000 
     46 O           1.1529  -17.5207  -40.5193 O.2       5 UNK        -0.5000 
     47 CA          1.7643  -15.3700  -39.6469 C.3       5 UNK         0.1400 
     48 CB          1.5785  -15.4995  -38.1280 C.3       5 UNK        -0.1800 
     49 N           2.7850  -14.3517  -39.9227 N.am      5 UNK        -0.5000 
     50 C           3.0885  -13.8809  -41.1399 C.2       4 UNK         0.5000 
     51 O           2.5537  -14.2739  -42.1793 O.2       4 UNK        -0.5000 
     52 CA          4.2336  -12.8562  -41.2118 C.3       4 UNK         0.1400 
     53 CB          5.5073  -13.5216  -41.7570 C.3       4 UNK        -0.1800 
     54 N           3.8873  -11.7230  -42.0651 N.am      4 UNK        -0.5000 
     55 C           2.9933  -10.7738  -41.7552 C.2       3 UNK         0.5000 
     56 O           2.3996  -10.7228  -40.6770 O.2       3 UNK        -0.5000 
     57 CA          2.7268   -9.6866  -42.8175 C.3       3 UNK         0.1400 
     58 CB          3.4988   -8.4024  -42.4762 C.3       3 UNK        -0.1800 
     59 N           3.0753  -10.1012  -44.1801 N.am      3 UNK        -0.5000 
     60 C           2.3812  -10.9947  -44.8954 C.2       2 UNK         0.5000 
     61 O           1.3599  -11.5511  -44.4857 O.2       2 UNK        -0.5000 
     62 CA          2.9543  -11.3478  -46.2795 C.3       2 UNK         0.1400 
     63 CB          4.1358  -12.3205  -46.1356 C.3       2 UNK        -0.1800 
     64 N           1.9265  -11.9711  -47.1110 N.am      2 UNK        -0.5000 
     65 C           1.0497  -11.2982  -47.8685 C.2       1 UNK         0.5000 
     66 O           1.1094  -10.0825  -48.0602 O.2       1 UNK        -0.5000 
     67 C          -3.1371  -21.6631  -46.3735 C.2       11 UNK         0.5000 
     68 O          -3.8036  -22.3215  -47.1718 O.2       11 UNK        -0.5000 
     69 N          -3.2954  -21.7198  -45.0441 N.am      12 UNK        -0.5000 
     70 CA         -4.2427  -22.6005  -44.3623 C.3       12 UNK         0.1400 
     71 CB         -4.3067  -22.2361  -42.8714 C.3       12 UNK        -0.1800 
     72 C          -3.9088  -24.0910  -44.5558 C.2       12 UNK         0.5000 
     73 O          -4.8062  -24.8743  -44.8663 O.2       12 UNK        -0.5000 
     74 N          -2.6252  -24.4481  -44.4065 N.am      13 UNK        -0.5000 
     75 CA         -2.1088  -25.8068  -44.5867 C.3       13 UNK         0.1400 
     76 CB         -0.6489  -25.8669  -44.1122 C.3       13 UNK        -0.1800 
     77 C          -2.2298  -26.3133  -46.0358 C.2       13 UNK         0.5000 
     78 O          -2.6043  -27.4672  -46.2474 O.2       13 UNK        -0.5000 
     79 N          -1.9334  -25.4378  -47.0053 N.am      14 UNK        -0.5000 
     80 CA         -2.0410  -25.7144  -48.4391 C.3       14 UNK         0.1400 
     81 CB         -1.1350  -24.7327  -49.1996 C.3       14 UNK        -0.1800 
     82 C          -3.4828  -25.6254  -48.9759 C.2       14 UNK         0.5000 
     83 O          -3.7098  -25.9905  -50.1300 O.2       14 UNK        -0.5000 
     84 N          -4.4137  -25.1006  -48.1648 N.am      15 UNK        -0.5000 
     85 CA         -5.8107  -24.7951  -48.4908 C.3       15 UNK         0.1400 
     86 CB         -6.6167  -26.0941  -48.6983 C.3       15 UNK        -0.1800 
     87 C          -5.9201  -23.8183  -49.6800 C.2       15 UNK         0.5000 
     88 O          -6.6593  -24.0771  -50.6300 O.2       15 UNK        -0.5000 
     89 N          -5.1239  -22.7396  -49.6245 N.am      16 UNK        -0.5000 
     90 CA         -4.9197  -21.7327  -50.6735 C.3       16 UNK         0.1400 
     91 CB         -6.1815  -20.8633  -50.8478 C.3       16 UNK        -0.1800 
     92 C          -4.4298  -22.3610  -51.9964 C.2       16 UNK         0.5000 
     93 O          -4.9584  -22.0528  -53.0661 O.2       16 UNK        -0.5000 
     94 N          -3.4514  -23.2720  -51.8761 N.am      17 UNK        -0.5000 
     95 CA         -2.8799  -24.1072  -52.9384 C.3       17 UNK         0.1400 
     96 CB         -2.0727  -23.2458  -53.9319 C.3       17 UNK        -0.1800 
     97 C          -3.9576  -24.9741  -53.6203 C.2       17 UNK         0.5000 
     98 O          -4.1299  -24.9064  -54.8372 O.2       17 UNK        -0.5000 
     99 N          -4.7066  -25.7286  -52.8018 N.am      18 UNK        -0.5000 
    100 CA        -5.8723  -26.5433  -53.1716 C.3       18 UNK         0.1400 
    101 CB        -5.4270  -27.7883  -53.9656 C.3       18 UNK        -0.1800 
    102 C         -6.9653  -25.7234  -53.8955 C.2       18 UNK         0.5000 
    103 O         -7.5349  -26.1778  -54.8892 O.2       18 UNK        -0.5000 
    104 N         -7.1947  -24.5038  -53.3907 N.am      19 UNK        -0.5000 
    105 CA        -8.0821  -23.4505  -53.8905 C.3       19 UNK         0.1400 
    106 CB        -9.5536  -23.9104  -53.8433 C.3       19 UNK        -0.1800 
    107 C         -7.6993  -22.8615  -55.2678 C.2       19 UNK         0.5000 
    108 O         -8.4696  -22.0626  -55.8039 O.2       19 UNK        -0.5000 
    109 N         -6.5350  -23.2287  -55.8235 N.am      20 UNK        -0.5000 
    110 CA        -6.0556  -22.7348  -57.1171 C.3       20 UNK         0.1400 
    111 CB        -5.1354  -23.7868  -57.7555 C.3       20 UNK        -0.1800 
    112 C         -5.3298  -21.3801  -57.0118 C.2       20 UNK         0.5000 
    113 O         -5.2005  -20.6976  -58.0297 O.2       20 UNK        -0.5000 
    114 N         -4.8758  -21.0208  -55.8007 N.am      21 UNK        -0.5000 
    115 CA        -4.0686  -19.8475  -55.4516 C.3       21 UNK         0.1400 
    116 CB        -4.8334  -18.5415  -55.7592 C.3       21 UNK        -0.1800 
    117 C         -2.6526  -19.8668  -56.0709 C.2       21 UNK         0.5000 
    118 O         -2.2689  -20.8153  -56.7602 O.2       21 UNK        -0.5000 
    119 N         -1.8821  -18.8180  -55.7779 N.am      22 UNK        -0.5000 
    120 CA        -0.4932  -18.6150  -56.2046 C.3       22 UNK         0.1400 
    121 C         -0.0867  -17.1216  -56.0715 C.2       22 UNK         0.5000 
    122 N          1.1054  -16.7484  -56.5176 N.am      22 UNK        -0.7600 
    123 O         -0.8456  -16.2863  -55.5825 O.2       22 UNK        -0.5000 
    124 C124        0.5138  -19.6017  -55.5373 C.3       23 UNK        -0.0398 
    125 S125        0.3239  -19.8100  -53.7303 S.3       23 UNK        -0.2404 
    126 C126        1.5044  -18.6011  -53.0497 C.3       23 UNK        -0.0205 
    127 H127       -1.1653  -14.6080  -44.8656 H         1 UNK         0.0600 
    128 H128       -0.4207  -15.4054  -46.2461 H         1 UNK         0.0600 
    129 H129       -2.1783  -15.2096  -46.1849 H         1 UNK         0.0600 
    130 H130        0.0426  -14.1824  -48.1213 H         1 UNK         0.3000 
    131 H131       -0.9814  -11.4670  -48.4627 H         1 UNK         0.0600 
    132 H132        0.5215  -11.4837  -50.5145 H         1 UNK         0.0800 
    133 H133        0.9912  -13.1189  -50.1129 H         1 UNK         0.0800 
    134 H134        0.2675  -13.6617  -52.5577 H         1 UNK         0.0800 
    135 H135       -1.3377  -14.2553  -52.8946 H         1 UNK         0.0800 
    136 H136        0.7595  -16.0046  -53.4273 H         1 UNK         0.1150 
    137 H137        0.6749  -19.1454  -50.5188 H         1 UNK         0.1150 
    138 H138       -1.1890  -15.3964  -49.6509 H         1 UNK         0.1150 
    139 H139        0.0094  -18.5759  -48.2170 H         1 UNK         0.0800 
    140 H140       -0.7338  -17.0384  -47.8473 H         1 UNK         0.0800 
    141 H141       -3.5780  -19.1648  -46.7403 H         1 UNK         0.0800 
    142 H142       -2.0017  -18.6162  -46.3030 H         1 UNK         0.0800 
    143 H143       -1.7980  -21.1050  -47.9090 H         1 UNK         0.0600 
    144 H144       -0.4421  -20.0251  -45.6818 H         1 UNK         0.3000 
    145 H145        1.3874  -23.0032  -44.8244 H         1 UNK         0.0600 
    146 H146        3.2291  -21.3819  -45.1090 H         1 UNK         0.0600 
    147 H147        2.5845  -21.8345  -46.6789 H         1 UNK         0.0600 
    148 H148        2.1696  -20.2753  -45.9797 H         1 UNK         0.0600 
    149 H149        1.3789  -20.4520  -43.6018 H         1 UNK         0.3000 
    150 H150       -1.3235  -21.0607  -41.2908 H         1 UNK         0.0600 
    151 H151        0.7574  -21.9874  -40.2918 H         1 UNK         0.0600 
    152 H152        0.4954  -20.3334  -39.7568 H         1 UNK         0.0600 
    153 H153        1.7029  -20.6806  -40.9922 H         1 UNK         0.0600 
    154 H154        0.2370  -18.7368  -41.6813 H         1 UNK         0.3000 
    155 H155       -1.7569  -17.1951  -44.2291 H         1 UNK         0.0600 
    156 H156       -2.7900  -16.6458  -42.0435 H         1 UNK         0.0600 
    157 H157       -1.6429  -15.3997  -42.5090 H         1 UNK         0.0600 
    158 H158       -1.2112  -16.5809  -41.2751 H         1 UNK         0.0600 
    159 H159        0.6953  -16.4714  -42.9138 H         1 UNK         0.3000 
    160 H160        2.9027  -17.9114  -45.3206 H         1 UNK         0.0600 
    161 H161        2.1275  -14.9992  -44.7596 H         1 UNK         0.0600 
    162 H162        2.1832  -15.7685  -46.3416 H         1 UNK         0.0600 
    163 H163        3.6654  -15.5569  -45.4237 H         1 UNK         0.0600 
    164 H164        3.2133  -16.3050  -42.9293 H         1 UNK         0.3000 
    165 H165        3.5378  -19.0671  -40.6900 H         1 UNK         0.0600 
    166 H166        5.8041  -18.1406  -40.3028 H         1 UNK         0.0600 
    167 H167        5.7747  -19.0373  -41.8124 H         1 UNK         0.0600 
    168 H168        5.7478  -17.2779  -41.8406 H         1 UNK         0.0600 
    169 H169        4.0492  -16.3133  -40.3031 H         1 UNK         0.3000 
    170 H170        0.8227  -15.0251  -40.0792 H         1 UNK         0.0600 
    171 H171        1.2726  -14.5515  -37.6853 H         1 UNK         0.0600 
    172 H172        0.8054  -16.2316  -37.8901 H         1 UNK         0.0600 
    173 H173        2.4973  -15.8207  -37.6358 H         1 UNK         0.0600 
    174 H174        3.2768  -13.9851  -39.1202 H         1 UNK         0.3000 
    175 H175        4.4430  -12.4793  -40.2084 H         1 UNK         0.0600 
    176 H176        5.3618  -13.9036  -42.7687 H         1 UNK         0.0600 
    177 H177        6.3402  -12.8186  -41.7810 H         1 UNK         0.0600 
    178 H178        5.8103  -14.3610  -41.1299 H         1 UNK         0.0600 
    179 H179        4.3023  -11.7049  -42.9837 H         1 UNK         0.3000 
    180 H180        1.6591   -9.4584  -42.7901 H         1 UNK         0.0600 
    181 H181        4.5774   -8.5627  -42.4990 H         1 UNK         0.0600 
    182 H182        3.2414   -8.0450  -41.4781 H         1 UNK         0.0600 
    183 H183        3.2622   -7.6013  -43.1767 H         1 UNK         0.0600 
    184 H184        3.9047   -9.6851  -44.5791 H         1 UNK         0.3000 
    185 H185        3.3114  -10.4340  -46.7593 H         1 UNK         0.0600 
    186 H186        4.9721  -11.8476  -45.6197 H         1 UNK         0.0600 
    187 H187        3.8601  -13.2054  -45.5631 H         1 UNK         0.0600 
    188 H188        4.5011  -12.6484  -47.1090 H         1 UNK         0.0600 
    189 H189        1.7575  -12.9518  -46.9486 H         1 UNK         0.3000 
    190 H190       -2.7391  -21.1046  -44.4568 H         1 UNK         0.3000 
    191 H191       -5.2300  -22.4237  -44.7944 H         1 UNK         0.0600 
    192 H192       -4.6099  -21.1982  -42.7329 H         1 UNK         0.0600 
    193 H193       -5.0316  -22.8604  -42.3478 H         1 UNK         0.0600 
    194 H194       -3.3429  -22.3693  -42.3800 H         1 UNK         0.0600 
    195 H195       -1.9535  -23.7449  -44.1087 H         1 UNK         0.3000 
    196 H196       -2.6981  -26.4730  -43.9533 H         1 UNK         0.0600 
    197 H197       -0.2422  -26.8729  -44.2217 H         1 UNK         0.0600 
    198 H198       -0.5657  -25.5950  -43.0598 H         1 UNK         0.0600 
    199 H199       -0.0126  -25.1899  -44.6830 H         1 UNK         0.0600 
    200 H200       -1.5703  -24.5225  -46.7486 H         1 UNK         0.3000 
    201 H201       -1.6818  -26.7275  -48.6305 H         1 UNK         0.0600 
    202 H202       -0.1053  -24.7941  -48.8469 H         1 UNK         0.0600 
    203 H203       -1.4681  -23.7011  -49.0774 H         1 UNK         0.0600 
    204 H204       -1.1219  -24.9539  -50.2669 H         1 UNK         0.0600 
    205 H205       -4.1102  -24.7956  -47.2495 H         1 UNK         0.3000 
    206 H206       -6.2259  -24.2781  -47.6245 H         1 UNK         0.0600 
    207 H207       -6.5332  -26.7500  -47.8318 H         1 UNK         0.0600 
    208 H208       -7.6759  -25.8769  -48.8406 H         1 UNK         0.0600 
    209 H209       -6.2770  -26.6496  -49.5729 H         1 UNK         0.0600 
    210 H210       -4.5716  -22.6142  -48.7766 H         1 UNK         0.3000 
    211 H211       -4.1157  -21.0816  -50.3266 H         1 UNK         0.0600 
    212 H212       -7.0286  -21.4441  -51.2128 H         1 UNK         0.0600 
    213 H213       -6.0052  -20.0575  -51.5613 H         1 UNK         0.0600 
    214 H214       -6.4733  -20.4025  -49.9042 H         1 UNK         0.0600 
    215 H215       -3.1329  -23.4850  -50.9430 H         1 UNK         0.3000 
    216 H216       -2.1855  -24.7983  -52.4595 H         1 UNK         0.0600 
    217 H217       -1.5625  -23.8712  -54.6651 H         1 UNK         0.0600 
    218 H218       -2.7104  -22.5559  -54.4836 H         1 UNK         0.0600 
    219 H219       -1.3111  -22.6586  -53.4189 H         1 UNK         0.0600 
    220 H220       -4.4717  -25.7276  -51.8109 H         1 UNK         0.3000 
    221 H221       -6.3163  -26.8857  -52.2359 H         1 UNK         0.0600 
    222 H222       -5.0067  -27.5205  -54.9356 H         1 UNK         0.0600 
    223 H223       -4.6735  -28.3548  -53.4185 H         1 UNK         0.0600 
    224 H224       -6.2681  -28.4585  -54.1465 H         1 UNK         0.0600 
    225 H225       -6.7083  -24.2639  -52.5301 H         1 UNK         0.3000 
    226 H226       -7.9758  -22.6273  -53.1832 H         1 UNK         0.0600 
    227 H227       -9.8143  -24.2950  -52.8573 H         1 UNK         0.0600 
    228 H228      -10.2310  -23.0824  -54.0551 H         1 UNK         0.0600 
    229 H229       -9.7578  -24.6926  -54.5748 H         1 UNK         0.0600 
    230 H230       -5.9256  -23.8707  -55.3285 H         1 UNK         0.3000 
    231 H231       -6.9109  -22.6003  -57.7827 H         1 UNK         0.0600 
    232 H232       -4.1923  -23.8779  -57.2163 H         1 UNK         0.0600 
    233 H233       -4.8931  -23.5151  -58.7835 H         1 UNK         0.0600 
    234 H234       -5.6082  -24.7689  -57.7795 H         1 UNK         0.0600 
    235 H235       -5.0348  -21.6581  -55.0258 H         1 UNK         0.3000 
    236 H236       -3.9276  -19.9007  -54.3713 H         1 UNK         0.0600 
    237 H237       -5.8489  -18.5786  -55.3644 H         1 UNK         0.0600 
    238 H238       -4.3463  -17.6791  -55.3035 H         1 UNK         0.0600 
    239 H239       -4.8974  -18.3495  -56.8305 H         1 UNK         0.0600 
    240 H240       -2.2518  -18.0531  -55.2289 H         1 UNK         0.3000 
    241 H241       -0.4753  -18.8055  -57.2793 H         1 UNK         0.0600 
    242 H242        1.7400  -17.3974  -56.9561 H         1 UNK         0.3800 
    243 H243        1.3680  -15.7777  -56.4466 H         1 UNK         0.3800 
    244 H244        1.5473  -19.3465  -55.7735 H         1 UNK         0.0800 
    245 H245        0.3684  -20.5897  -55.9754 H         1 UNK         0.0800 
    246 H246        2.3070  -19.1335  -52.5374 H         1 UNK         0.0800 
    247 H247        1.9771  -18.0287  -53.8488 H         1 UNK         0.0800 
@<TRIPOS>BOND
     1    1    2 1    
     2    1  127 1    
     3    1  128 1    
     4    1  129 1    
     5    2    3 2    
     6    2    4 am   BACKBONE|DICT|INTERRES
     7    4    5 1    
     8    4  130 1    
     9    5    6 1    
    10    5   65 1    
    11    5  131 1    
    12    6    7 1    
    13    6  132 1    
    14    6  133 1    
    15    7    8 1    
    16    8    9 1    
    17    8  134 1    
    18    8  135 1    
    19    9   10 ar   
    20    9   14 ar   
    21   10   11 ar   
    22   10  136 1    
    23   11   12 ar   
    24   11  126 1    
    25   12   13 ar   
    26   12  137 1    
    27   13   14 ar   
    28   13   15 1    
    29   14  138 1    
    30   15   16 1    
    31   15  139 1    
    32   15  140 1    
    33   16   17 1    
    34   17   18 1    
    35   17  141 1    
    36   17  142 1    
    37   18   19 1    
    38   18   67 1    
    39   18  143 1    
    40   19   20 am   BACKBONE|DICT|INTERRES
    41   19  144 1    
    42   20   21 2    
    43   20   22 1    
    44   22   23 1    
    45   22   24 1    
    46   22  145 1    
    47   23  146 1    
    48   23  147 1    
    49   23  148 1    
    50   24   25 am   BACKBONE|DICT|INTERRES
    51   24  149 1    
    52   25   26 2    
    53   25   27 1    
    54   27   28 1    
    55   27   29 1    
    56   27  150 1    
    57   28  151 1    
    58   28  152 1    
    59   28  153 1    
    60   29   30 am   BACKBONE|DICT|INTERRES
    61   29  154 1    
    62   30   31 2    
    63   30   32 1    
    64   32   33 1    
    65   32   34 1    
    66   32  155 1    
    67   33  156 1    
    68   33  157 1    
    69   33  158 1    
    70   34   35 am   BACKBONE|DICT|INTERRES
    71   34  159 1    
    72   35   36 2    
    73   35   37 1    
    74   37   38 1    
    75   37   39 1    
    76   37  160 1    
    77   38  161 1    
    78   38  162 1    
    79   38  163 1    
    80   39   40 am   BACKBONE|DICT|INTERRES
    81   39  164 1    
    82   40   41 2    
    83   40   42 1    
    84   42   43 1    
    85   42   44 1    
    86   42  165 1    
    87   43  166 1    
    88   43  167 1    
    89   43  168 1    
    90   44   45 am   BACKBONE|DICT|INTERRES
    91   44  169 1    
    92   45   46 2    
    93   45   47 1    
    94   47   48 1    
    95   47   49 1    
    96   47  170 1    
    97   48  171 1    
    98   48  172 1    
    99   48  173 1    
   100   49   50 am   BACKBONE|DICT|INTERRES
   101   49  174 1    
   102   50   51 2    
   103   50   52 1    
   104   52   53 1    
   105   52   54 1    
   106   52  175 1    
   107   53  176 1    
   108   53  177 1    
   109   53  178 1    
   110   54   55 am   BACKBONE|DICT|INTERRES
   111   54  179 1    
   112   55   56 2    
   113   55   57 1    
   114   57   58 1    
   115   57   59 1    
   116   57  180 1    
   117   58  181 1    
   118   58  182 1    
   119   58  183 1    
   120   59   60 am   BACKBONE|DICT|INTERRES
   121   59  184 1    
   122   60   61 2    
   123   60   62 1    
   124   62   63 1    
   125   62   64 1    
   126   62  185 1    
   127   63  186 1    
   128   63  187 1    
   129   63  188 1    
   130   64   65 am   BACKBONE|DICT|INTERRES
   131   64  189 1    
   132   65   66 2    
   133   67   68 2    
   134   67   69 am   BACKBONE|DICT|INTERRES
   135   69   70 1    
   136   69  190 1    
   137   70   71 1    
   138   70   72 1    
   139   70  191 1    
   140   71  192 1    
   141   71  193 1    
   142   71  194 1    
   143   72   73 2    
   144   72   74 am   BACKBONE|DICT|INTERRES
   145   74   75 1    
   146   74  195 1    
   147   75   76 1    
   148   75   77 1    
   149   75  196 1    
   150   76  197 1    
   151   76  198 1    
   152   76  199 1    
   153   77   78 2    
   154   77   79 am   BACKBONE|DICT|INTERRES
   155   79   80 1    
   156   79  200 1    
   157   80   81 1    
   158   80   82 1    
   159   80  201 1    
   160   81  202 1    
   161   81  203 1    
   162   81  204 1    
   163   82   83 2    
   164   82   84 am   BACKBONE|DICT|INTERRES
   165   84   85 1    
   166   84  205 1    
   167   85   86 1    
   168   85   87 1    
   169   85  206 1    
   170   86  207 1    
   171   86  208 1    
   172   86  209 1    
   173   87   88 2    
   174   87   89 am   BACKBONE|DICT|INTERRES
   175   89   90 1    
   176   89  210 1    
   177   90   91 1    
   178   90   92 1    
   179   90  211 1    
   180   91  212 1    
   181   91  213 1    
   182   91  214 1    
   183   92   93 2    
   184   92   94 am   BACKBONE|DICT|INTERRES
   185   94   95 1    
   186   94  215 1    
   187   95   96 1    
   188   95   97 1    
   189   95  216 1    
   190   96  217 1    
   191   96  218 1    
   192   96  219 1    
   193   97   98 2    
   194   97   99 am   BACKBONE|DICT|INTERRES
   195   99  100 1    
   196   99  220 1    
   197  100  101 1    
   198  100  102 1    
   199  100  221 1    
   200  101  222 1    
   201  101  223 1    
   202  101  224 1    
   203  102  103 2    
   204  102  104 am   BACKBONE|DICT|INTERRES
   205  104  105 1    
   206  104  225 1    
   207  105  106 1    
   208  105  107 1    
   209  105  226 1    
   210  106  227 1    
   211  106  228 1    
   212  106  229 1    
   213  107  108 2    
   214  107  109 am   BACKBONE|DICT|INTERRES
   215  109  110 1    
   216  109  230 1    
   217  110  111 1    
   218  110  112 1    
   219  110  231 1    
   220  111  232 1    
   221  111  233 1    
   222  111  234 1    
   223  112  113 2    
   224  112  114 am   BACKBONE|DICT|INTERRES
   225  114  115 1    
   226  114  235 1    
   227  115  116 1    
   228  115  117 1    
   229  115  236 1    
   230  116  237 1    
   231  116  238 1    
   232  116  239 1    
   233  117  118 2    
   234  117  119 am   BACKBONE|DICT|INTERRES
   235  119  120 1    
   236  119  240 1    
   237  120  121 1    
   238  120  124 1    
   239  120  241 1    
   240  121  122 am   BACKBONE|DICT|INTERRES
   241  121  123 2    
   242  122  242 1    
   243  122  243 1    
   244  124  125 1    
   245  124  244 1    
   246  124  245 1    
   247  125  126 1    
   248  126  246 1    
   249  126  247 1    
@<TRIPOS>SUBSTRUCTURE
     1 UNK         1 GROUP             0       ****    0 ROOT    
