@<TRIPOS>MOLECULE
3R540
247   249    1
SMALL
USER_CHARGES


@<TRIPOS>ATOM
      1 CA         -1.9203   -9.5717  -47.1653 C.3       0 UNK        -0.1800 
      2 C          -0.6785   -9.7871  -48.0185 C.2       0 UNK         0.5000 
      3 O           0.0128   -8.8234  -48.3488 O.2       0 UNK        -0.5000 
      4 N          -0.3939  -11.0465  -48.3748 N.am      1 UNK        -0.5000 
      5 CA          0.7608  -11.4571  -49.1887 C.3       1 UNK         0.1400 
      6 C6          0.6134  -12.9084  -49.7059 C.3       23 UNK        -0.0398 
      7 S7         -0.8824  -13.1224  -50.7314 S.3       23 UNK        -0.2404 
      8 C8         -0.2925  -14.2923  -52.0049 C.3       23 UNK        -0.0205 
      9 C9         -0.0222  -15.7237  -51.5328 C.ar      23 UNK        -0.0193 
     10 C10         0.6200  -16.5964  -52.4170 C.ar      23 UNK        -0.1150 
     11 C11         0.8568  -17.9289  -52.0689 C.ar      23 UNK        -0.0193 
     12 C12         0.4708  -18.3868  -50.8074 C.ar      23 UNK        -0.1150 
     13 C13        -0.1780  -17.5334  -49.9133 C.ar      23 UNK        -0.0193 
     14 C14        -0.4241  -16.2076  -50.2794 C.ar      23 UNK        -0.1150 
     15 C15        -0.6437  -18.0561  -48.5665 C.3       23 UNK        -0.0205 
     16 S16        -2.3056  -18.7773  -48.7042 S.3       23 UNK        -0.2404 
     17 C17        -2.5291  -19.4138  -47.0154 C.3       23 UNK        -0.0398 
     18 CA         -2.0456  -20.8847  -46.8843 C.3       11 UNK         0.1400 
     19 N          -0.8211  -21.0059  -46.0859 N.am      11 UNK        -0.5000 
     20 C          -0.1237  -22.1400  -45.9233 C.2       10 UNK         0.5000 
     21 O          -0.4101  -23.2040  -46.4701 O.2       10 UNK        -0.5000 
     22 CA          1.0573  -22.0977  -44.9389 C.3       10 UNK         0.1400 
     23 CB          2.2986  -21.4805  -45.5997 C.3       10 UNK        -0.1800 
     24 N           0.7315  -21.3777  -43.7070 N.am      10 UNK        -0.5000 
     25 C          -0.2135  -21.7597  -42.8349 C.2       9 UNK         0.5000 
     26 O          -0.8688  -22.7952  -42.9495 O.2       9 UNK        -0.5000 
     27 CA         -0.5196  -20.8017  -41.6696 C.3       9 UNK         0.1400 
     28 CB          0.5152  -20.9563  -40.5459 C.3       9 UNK        -0.1800 
     29 N          -0.5837  -19.4026  -42.0924 N.am      9 UNK        -0.5000 
     30 C          -1.4691  -18.9080  -42.9696 C.2       8 UNK         0.5000 
     31 O          -2.3650  -19.5724  -43.4910 O.2       8 UNK        -0.5000 
     32 CA         -1.2812  -17.4371  -43.3804 C.3       8 UNK         0.1400 
     33 CB         -1.8662  -16.4853  -42.3262 C.3       8 UNK        -0.1800 
     34 N           0.1255  -17.1117  -43.6187 N.am      8 UNK        -0.5000 
     35 C           0.8600  -17.6269  -44.6150 C.2       7 UNK         0.5000 
     36 O           0.4152  -18.3988  -45.4635 O.2       7 UNK        -0.5000 
     37 CA          2.3524  -17.2582  -44.6335 C.3       7 UNK         0.1400 
     38 CB          2.5671  -15.8780  -45.2700 C.3       7 UNK        -0.1800 
     39 N           2.9385  -17.2824  -43.2927 N.am      7 UNK        -0.5000 
     40 C           3.1363  -18.4050  -42.5847 C.2       6 UNK         0.5000 
     41 O           2.8781  -19.5306  -43.0081 O.2       6 UNK        -0.5000 
     42 CA          3.6705  -18.2485  -41.1484 C.3       6 UNK         0.1400 
     43 CB          5.2062  -18.2363  -41.1451 C.3       6 UNK        -0.1800 
     44 N           3.1797  -17.0456  -40.4765 N.am      6 UNK        -0.5000 
     45 C           1.8915  -16.7620  -40.2357 C.2       5 UNK         0.5000 
     46 O           0.9645  -17.5233  -40.5109 O.2       5 UNK        -0.5000 
     47 CA          1.5841  -15.3808  -39.6245 C.3       5 UNK         0.1400 
     48 CB          1.3378  -15.5056  -38.1138 C.3       5 UNK        -0.1800 
     49 N           2.6416  -14.3915  -39.8605 N.am      5 UNK        -0.5000 
     50 C           2.9714  -13.8994  -41.0621 C.2       4 UNK         0.5000 
     51 O           2.4124  -14.2230  -42.1126 O.2       4 UNK        -0.5000 
     52 CA          4.1809  -12.9507  -41.1018 C.3       4 UNK         0.1400 
     53 CB          5.4171  -13.6914  -41.6366 C.3       4 UNK        -0.1800 
     54 N           3.9277  -11.7832  -41.9414 N.am      4 UNK        -0.5000 
     55 C           3.1088  -10.7715  -41.6224 C.2       3 UNK         0.5000 
     56 O           2.4867  -10.7065  -40.5611 O.2       3 UNK        -0.5000 
     57 CA          2.9801   -9.6253  -42.6458 C.3       3 UNK         0.1400 
     58 CB          3.8479   -8.4297  -42.2222 C.3       3 UNK        -0.1800 
     59 N           3.3569  -10.0251  -44.0046 N.am      3 UNK        -0.5000 
     60 C           2.5630  -10.7189  -44.8278 C.2       2 UNK         0.5000 
     61 O           1.4124  -11.0655  -44.5448 O.2       2 UNK        -0.5000 
     62 CA          3.1604  -11.1002  -46.1888 C.3       2 UNK         0.1400 
     63 CB          4.0537  -12.3476  -46.0702 C.3       2 UNK        -0.1800 
     64 N           2.0575  -11.3551  -47.1049 N.am      2 UNK        -0.5000 
     65 C           2.1012  -11.2862  -48.4395 C.2       1 UNK         0.5000 
     66 O           3.1336  -11.0810  -49.0794 O.2       1 UNK        -0.5000 
     67 C          -3.1713  -21.7960  -46.3595 C.2       11 UNK         0.5000 
     68 O          -3.8198  -22.4697  -47.1598 O.2       11 UNK        -0.5000 
     69 N          -3.3643  -21.8225  -45.0338 N.am      12 UNK        -0.5000 
     70 CA         -4.3328  -22.6838  -44.3569 C.3       12 UNK         0.1400 
     71 CB         -4.4306  -22.2887  -42.8757 C.3       12 UNK        -0.1800 
     72 C          -4.0033  -24.1797  -44.5122 C.2       12 UNK         0.5000 
     73 O          -4.8990  -24.9649  -44.8231 O.2       12 UNK        -0.5000 
     74 N          -2.7241  -24.5396  -44.3344 N.am      13 UNK        -0.5000 
     75 CA         -2.2096  -25.9025  -44.4873 C.3       13 UNK         0.1400 
     76 CB         -0.7571  -25.9601  -43.9904 C.3       13 UNK        -0.1800 
     77 C          -2.3115  -26.4292  -45.9311 C.2       13 UNK         0.5000 
     78 O          -2.6811  -27.5866  -46.1317 O.2       13 UNK        -0.5000 
     79 N          -2.0074  -25.5654  -46.9087 N.am      14 UNK        -0.5000 
     80 CA         -2.1061  -25.8558  -48.3405 C.3       14 UNK         0.1400 
     81 CB         -1.2020  -24.8753  -49.1049 C.3       14 UNK        -0.1800 
     82 C          -3.5455  -25.7805  -48.8865 C.2       14 UNK         0.5000 
     83 O          -3.7633  -26.1528  -50.0402 O.2       14 UNK        -0.5000 
     84 N          -4.4850  -25.2587  -48.0835 N.am      15 UNK        -0.5000 
     85 CA         -5.8825  -24.9659  -48.4181 C.3       15 UNK         0.1400 
     86 CB         -6.6773  -26.2723  -48.6214 C.3       15 UNK        -0.1800 
     87 C          -5.9949  -23.9968  -49.6134 C.2       15 UNK         0.5000 
     88 O          -6.7367  -24.2623  -50.5594 O.2       15 UNK        -0.5000 
     89 N          -5.2002  -22.9166  -49.5673 N.am      16 UNK        -0.5000 
     90 CA         -5.0009  -21.9161  -50.6231 C.3       16 UNK         0.1400 
     91 CB         -6.2661  -21.0526  -50.8028 C.3       16 UNK        -0.1800 
     92 C          -4.5095  -22.5521  -51.9415 C.2       16 UNK         0.5000 
     93 O          -5.0424  -22.2565  -53.0126 O.2       16 UNK        -0.5000 
     94 N          -3.5248  -23.4553  -51.8157 N.am      17 UNK        -0.5000 
     95 CA         -2.9498  -24.2949  -52.8725 C.3       17 UNK         0.1400 
     96 CB         -2.1512  -23.4360  -53.8753 C.3       17 UNK        -0.1800 
     97 C          -4.0231  -25.1749  -53.5447 C.2       17 UNK         0.5000 
     98 O          -4.1965  -25.1207  -54.7621 O.2       17 UNK        -0.5000 
     99 N          -4.7673  -25.9252  -52.7180 N.am      18 UNK        -0.5000 
    100 CA        -5.9290  -26.7495  -53.0791 C.3       18 UNK         0.1400 
    101 CB        -5.4779  -27.9997  -53.8616 C.3       18 UNK        -0.1800 
    102 C         -7.0268  -25.9421  -53.8097 C.2       18 UNK         0.5000 
    103 O         -7.5913  -26.4064  -54.8016 O.2       18 UNK        -0.5000 
    104 N         -7.2664  -24.7214  -53.3121 N.am      19 UNK        -0.5000 
    105 CA        -8.1635  -23.6789  -53.8170 C.3       19 UNK         0.1400 
    106 CB        -9.6307  -24.1521  -53.7678 C.3       19 UNK        -0.1800 
    107 C         -7.7860  -23.0925  -55.1968 C.2       19 UNK         0.5000 
    108 O         -8.5633  -22.3024  -55.7360 O.2       19 UNK        -0.5000 
    109 N         -6.6189  -23.4522  -55.7513 N.am      20 UNK        -0.5000 
    110 CA        -6.1449  -22.9598  -57.0474 C.3       20 UNK         0.1400 
    111 CB        -5.2100  -24.0032  -57.6785 C.3       20 UNK        -0.1800 
    112 C         -5.4373  -21.5950  -56.9500 C.2       20 UNK         0.5000 
    113 O         -5.3257  -20.9125  -57.9701 O.2       20 UNK        -0.5000 
    114 N         -4.9781  -21.2282  -55.7430 N.am      21 UNK        -0.5000 
    115 CA        -4.1801  -20.0462  -55.4013 C.3       21 UNK         0.1400 
    116 CB        -4.9580  -18.7482  -55.7090 C.3       21 UNK        -0.1800 
    117 C         -2.7676  -20.0530  -56.0287 C.2       21 UNK         0.5000 
    118 O         -2.3885  -20.9862  -56.7410 O.2       21 UNK        -0.5000 
    119 N         -1.9952  -19.0102  -55.7189 N.am      22 UNK        -0.5000 
    120 CA        -0.6114  -18.7955  -56.1569 C.3       22 UNK         0.1400 
    121 C         -0.1991  -17.3083  -55.9796 C.2       22 UNK         0.5000 
    122 N          0.9823  -16.9208  -56.4420 N.am      22 UNK        -0.7600 
    123 O         -0.9437  -16.4907  -55.4411 O.2       22 UNK        -0.5000 
    124 C124        0.4021  -19.8039  -55.5346 C.3       23 UNK        -0.0398 
    125 S125        0.2557  -20.0401  -53.7272 S.3       23 UNK        -0.2404 
    126 C126        1.4981  -18.8862  -53.0607 C.3       23 UNK        -0.0205 
    127 H127       -1.6446   -9.1293  -46.2080 H         1 UNK         0.0600 
    128 H128       -2.4448  -10.5072  -46.9689 H         1 UNK         0.0600 
    129 H129       -2.6099   -8.8949  -47.6697 H         1 UNK         0.0600 
    130 H130       -1.0159  -11.7917  -48.0955 H         1 UNK         0.3000 
    131 H131        0.8015  -10.7962  -50.0575 H         1 UNK         0.0600 
    132 H132        1.4876  -13.1882  -50.2969 H         1 UNK         0.0800 
    133 H133        0.5689  -13.6135  -48.8740 H         1 UNK         0.0800 
    134 H134        0.6079  -13.8840  -52.4664 H         1 UNK         0.0800 
    135 H135       -1.0446  -14.3367  -52.7939 H         1 UNK         0.0800 
    136 H136        0.9154  -16.2403  -53.3938 H         1 UNK         0.1150 
    137 H137        0.6434  -19.4191  -50.5361 H         1 UNK         0.1150 
    138 H138       -0.9484  -15.5700  -49.5836 H         1 UNK         0.1150 
    139 H139        0.0530  -18.8106  -48.1972 H         1 UNK         0.0800 
    140 H140       -0.6511  -17.2522  -47.8287 H         1 UNK         0.0800 
    141 H141       -3.5907  -19.3032  -46.7839 H         1 UNK         0.0800 
    142 H142       -2.0241  -18.7581  -46.3069 H         1 UNK         0.0800 
    143 H143       -1.7960  -21.2710  -47.8752 H         1 UNK         0.0600 
    144 H144       -0.4865  -20.1608  -45.6335 H         1 UNK         0.3000 
    145 H145        1.2979  -23.1273  -44.6669 H         1 UNK         0.0600 
    146 H146        3.1628  -21.5311  -44.9373 H         1 UNK         0.0600 
    147 H147        2.5593  -22.0137  -46.5148 H         1 UNK         0.0600 
    148 H148        2.1403  -20.4348  -45.8631 H         1 UNK         0.0600 
    149 H149        1.2741  -20.5416  -43.5133 H         1 UNK         0.3000 
    150 H150       -1.4989  -21.0695  -41.2680 H         1 UNK         0.0600 
    151 H151        0.5376  -21.9820  -40.1759 H         1 UNK         0.0600 
    152 H152        0.2801  -20.3093  -39.7006 H         1 UNK         0.0600 
    153 H153        1.5201  -20.7092  -40.8871 H         1 UNK         0.0600 
    154 H154        0.0904  -18.7673  -41.6736 H         1 UNK         0.3000 
    155 H155       -1.8253  -17.2792  -44.3137 H         1 UNK         0.0600 
    156 H156       -2.9270  -16.6852  -42.1700 H         1 UNK         0.0600 
    157 H157       -1.7746  -15.4454  -42.6401 H         1 UNK         0.0600 
    158 H158       -1.3697  -16.5888  -41.3615 H         1 UNK         0.0600 
    159 H159        0.5776  -16.5129  -42.9434 H         1 UNK         0.3000 
    160 H160        2.8713  -17.9976  -45.2474 H         1 UNK         0.0600 
    161 H161        2.0774  -15.0880  -44.6993 H         1 UNK         0.0600 
    162 H162        2.1643  -15.8484  -46.2834 H         1 UNK         0.0600 
    163 H163        3.6284  -15.6381  -45.3348 H         1 UNK         0.0600 
    164 H164        3.1323  -16.3881  -42.8629 H         1 UNK         0.3000 
    165 H165        3.3333  -19.1119  -40.5721 H         1 UNK         0.0600 
    166 H166        5.5988  -18.2099  -40.1285 H         1 UNK         0.0600 
    167 H167        5.6043  -19.1328  -41.6225 H         1 UNK         0.0600 
    168 H168        5.6039  -17.3741  -41.6821 H         1 UNK         0.0600 
    169 H169        3.8728  -16.3655  -40.2037 H         1 UNK         0.3000 
    170 H170        0.6676  -15.0149  -40.0923 H         1 UNK         0.0600 
    171 H171        1.0418  -14.5495  -37.6818 H         1 UNK         0.0600 
    172 H172        0.5364  -16.2161  -37.9063 H         1 UNK         0.0600 
    173 H173        2.2281  -15.8522  -37.5876 H         1 UNK         0.0600 
    174 H174        3.1522  -14.0803  -39.0463 H         1 UNK         0.3000 
    175 H175        4.3983  -12.6038  -40.0892 H         1 UNK         0.0600 
    176 H176        5.2636  -14.0494  -42.6558 H         1 UNK         0.0600 
    177 H177        6.2947  -13.0447  -41.6373 H         1 UNK         0.0600 
    178 H178        5.6543  -14.5572  -41.0170 H         1 UNK         0.0600 
    179 H179        4.3708  -11.7724  -42.8468 H         1 UNK         0.3000 
    180 H180        1.9368   -9.3017  -42.6478 H         1 UNK         0.0600 
    181 H181        4.9076   -8.6873  -42.2024 H         1 UNK         0.0600 
    182 H182        3.5759   -8.0833  -41.2241 H         1 UNK         0.0600 
    183 H183        3.7187   -7.5877  -42.9025 H         1 UNK         0.0600 
    184 H184        4.2841   -9.7660  -44.3109 H         1 UNK         0.3000 
    185 H185        3.7478  -10.2578  -46.5601 H         1 UNK         0.0600 
    186 H186        4.8973  -12.1661  -45.4035 H         1 UNK         0.0600 
    187 H187        3.4976  -13.1959  -45.6726 H         1 UNK         0.0600 
    188 H188        4.4632  -12.6390  -47.0374 H         1 UNK         0.0600 
    189 H189        1.1649  -11.4808  -46.6428 H         1 UNK         0.3000 
    190 H190       -2.8221  -21.1944  -44.4467 H         1 UNK         0.3000 
    191 H191       -5.3083  -22.5104  -44.8163 H         1 UNK         0.0600 
    192 H192       -4.7279  -21.2456  -42.7657 H         1 UNK         0.0600 
    193 H193       -5.1739  -22.8961  -42.3581 H         1 UNK         0.0600 
    194 H194       -3.4807  -22.4201  -42.3575 H         1 UNK         0.0600 
    195 H195       -2.0551  -23.8338  -44.0369 H         1 UNK         0.3000 
    196 H196       -2.8105  -26.5575  -43.8532 H         1 UNK         0.0600 
    197 H197       -0.3535  -26.9698  -44.0759 H         1 UNK         0.0600 
    198 H198       -0.6879  -25.6696  -42.9420 H         1 UNK         0.0600 
    199 H199       -0.1093  -25.2965  -44.5639 H         1 UNK         0.0600 
    200 H200       -1.6460  -24.6478  -46.6588 H         1 UNK         0.3000 
    201 H201       -1.7399  -26.8685  -48.5204 H         1 UNK         0.0600 
    202 H202       -0.1726  -24.9321  -48.7508 H         1 UNK         0.0600 
    203 H203       -1.5382  -23.8440  -48.9876 H         1 UNK         0.0600 
    204 H204       -1.1873  -25.1010  -50.1713 H         1 UNK         0.0600 
    205 H205       -4.1891  -24.9481  -47.1676 H         1 UNK         0.3000 
    206 H206       -6.3057  -24.4470  -47.5569 H         1 UNK         0.0600 
    207 H207       -6.3294  -26.8301  -49.4912 H         1 UNK         0.0600 
    208 H208       -6.5924  -26.9224  -47.7507 H         1 UNK         0.0600 
    209 H209       -7.7376  -26.0645  -48.7695 H         1 UNK         0.0600 
    210 H210       -4.6406  -22.7868  -48.7247 H         1 UNK         0.3000 
    211 H211       -4.1992  -21.2597  -50.2813 H         1 UNK         0.0600 
    212 H212       -7.1111  -21.6387  -51.1641 H         1 UNK         0.0600 
    213 H213       -6.0928  -20.2508  -51.5215 H         1 UNK         0.0600 
    214 H214       -6.5596  -20.5868  -49.8622 H         1 UNK         0.0600 
    215 H215       -3.2030  -23.6589  -50.8815 H         1 UNK         0.3000 
    216 H216       -2.2493  -24.9770  -52.3894 H         1 UNK         0.0600 
    217 H217       -1.6381  -24.0639  -54.6043 H         1 UNK         0.0600 
    218 H218       -2.7947  -22.7549  -54.4315 H         1 UNK         0.0600 
    219 H219       -1.3927  -22.8393  -53.3688 H         1 UNK         0.0600 
    220 H220       -4.5317  -25.9128  -51.7274 H         1 UNK         0.3000 
    221 H221       -6.3704  -27.0855  -52.1398 H         1 UNK         0.0600 
    222 H222       -5.0595  -27.7389  -54.8344 H         1 UNK         0.0600 
    223 H223       -4.7213  -28.5572  -53.3096 H         1 UNK         0.0600 
    224 H224       -6.3157  -28.6757  -54.0357 H         1 UNK         0.0600 
    225 H225       -6.7830  -24.4726  -52.4522 H         1 UNK         0.3000 
    226 H226       -8.0650  -22.8516  -53.1134 H         1 UNK         0.0600 
    227 H227       -9.8880  -24.5346  -52.7800 H         1 UNK         0.0600 
    228 H228      -10.3157  -23.3314  -53.9835 H         1 UNK         0.0600 
    229 H229       -9.8275  -24.9396  -54.4957 H         1 UNK         0.0600 
    230 H230       -6.0044  -24.0875  -55.2540 H         1 UNK         0.3000 
    231 H231       -7.0015  -22.8411  -57.7143 H         1 UNK         0.0600 
    232 H232       -4.2668  -24.0790  -57.1372 H         1 UNK         0.0600 
    233 H233       -4.9695  -23.7340  -58.7076 H         1 UNK         0.0600 
    234 H234       -5.6699  -24.9915  -57.6979 H         1 UNK         0.0600 
    235 H235       -5.1248  -21.8657  -54.9658 H         1 UNK         0.3000 
    236 H236       -4.0331  -20.0951  -54.3216 H         1 UNK         0.0600 
    237 H237       -5.9698  -18.7914  -55.3056 H         1 UNK         0.0600 
    238 H238       -4.4737  -17.8797  -55.2619 H         1 UNK         0.0600 
    239 H239       -5.0322  -18.5619  -56.7807 H         1 UNK         0.0600 
    240 H240       -2.3595  -18.2581  -55.1488 H         1 UNK         0.3000 
    241 H241       -0.6081  -18.9519  -57.2372 H         1 UNK         0.0600 
    242 H242        1.6039  -17.5546  -56.9195 H         1 UNK         0.3800 
    243 H243        1.2485  -15.9535  -56.3436 H         1 UNK         0.3800 
    244 H244        1.4310  -19.5531  -55.7943 H         1 UNK         0.0800 
    245 H245        0.2370  -20.7827  -55.9861 H         1 UNK         0.0800 
    246 H246        2.2843  -19.4561  -52.5636 H         1 UNK         0.0800 
    247 H247        1.9834  -18.3320  -53.8649 H         1 UNK         0.0800 
@<TRIPOS>BOND
     1    1    2 1    
     2    1  127 1    
     3    1  128 1    
     4    1  129 1    
     5    2    3 2    
     6    2    4 am   BACKBONE|DICT|INTERRES
     7    4    5 1    
     8    4  130 1    
     9    5    6 1    
    10    5   65 1    
    11    5  131 1    
    12    6    7 1    
    13    6  132 1    
    14    6  133 1    
    15    7    8 1    
    16    8    9 1    
    17    8  134 1    
    18    8  135 1    
    19    9   10 ar   
    20    9   14 ar   
    21   10   11 ar   
    22   10  136 1    
    23   11   12 ar   
    24   11  126 1    
    25   12   13 ar   
    26   12  137 1    
    27   13   14 ar   
    28   13   15 1    
    29   14  138 1    
    30   15   16 1    
    31   15  139 1    
    32   15  140 1    
    33   16   17 1    
    34   17   18 1    
    35   17  141 1    
    36   17  142 1    
    37   18   19 1    
    38   18   67 1    
    39   18  143 1    
    40   19   20 am   BACKBONE|DICT|INTERRES
    41   19  144 1    
    42   20   21 2    
    43   20   22 1    
    44   22   23 1    
    45   22   24 1    
    46   22  145 1    
    47   23  146 1    
    48   23  147 1    
    49   23  148 1    
    50   24   25 am   BACKBONE|DICT|INTERRES
    51   24  149 1    
    52   25   26 2    
    53   25   27 1    
    54   27   28 1    
    55   27   29 1    
    56   27  150 1    
    57   28  151 1    
    58   28  152 1    
    59   28  153 1    
    60   29   30 am   BACKBONE|DICT|INTERRES
    61   29  154 1    
    62   30   31 2    
    63   30   32 1    
    64   32   33 1    
    65   32   34 1    
    66   32  155 1    
    67   33  156 1    
    68   33  157 1    
    69   33  158 1    
    70   34   35 am   BACKBONE|DICT|INTERRES
    71   34  159 1    
    72   35   36 2    
    73   35   37 1    
    74   37   38 1    
    75   37   39 1    
    76   37  160 1    
    77   38  161 1    
    78   38  162 1    
    79   38  163 1    
    80   39   40 am   BACKBONE|DICT|INTERRES
    81   39  164 1    
    82   40   41 2    
    83   40   42 1    
    84   42   43 1    
    85   42   44 1    
    86   42  165 1    
    87   43  166 1    
    88   43  167 1    
    89   43  168 1    
    90   44   45 am   BACKBONE|DICT|INTERRES
    91   44  169 1    
    92   45   46 2    
    93   45   47 1    
    94   47   48 1    
    95   47   49 1    
    96   47  170 1    
    97   48  171 1    
    98   48  172 1    
    99   48  173 1    
   100   49   50 am   BACKBONE|DICT|INTERRES
   101   49  174 1    
   102   50   51 2    
   103   50   52 1    
   104   52   53 1    
   105   52   54 1    
   106   52  175 1    
   107   53  176 1    
   108   53  177 1    
   109   53  178 1    
   110   54   55 am   BACKBONE|DICT|INTERRES
   111   54  179 1    
   112   55   56 2    
   113   55   57 1    
   114   57   58 1    
   115   57   59 1    
   116   57  180 1    
   117   58  181 1    
   118   58  182 1    
   119   58  183 1    
   120   59   60 am   BACKBONE|DICT|INTERRES
   121   59  184 1    
   122   60   61 2    
   123   60   62 1    
   124   62   63 1    
   125   62   64 1    
   126   62  185 1    
   127   63  186 1    
   128   63  187 1    
   129   63  188 1    
   130   64   65 am   BACKBONE|DICT|INTERRES
   131   64  189 1    
   132   65   66 2    
   133   67   68 2    
   134   67   69 am   BACKBONE|DICT|INTERRES
   135   69   70 1    
   136   69  190 1    
   137   70   71 1    
   138   70   72 1    
   139   70  191 1    
   140   71  192 1    
   141   71  193 1    
   142   71  194 1    
   143   72   73 2    
   144   72   74 am   BACKBONE|DICT|INTERRES
   145   74   75 1    
   146   74  195 1    
   147   75   76 1    
   148   75   77 1    
   149   75  196 1    
   150   76  197 1    
   151   76  198 1    
   152   76  199 1    
   153   77   78 2    
   154   77   79 am   BACKBONE|DICT|INTERRES
   155   79   80 1    
   156   79  200 1    
   157   80   81 1    
   158   80   82 1    
   159   80  201 1    
   160   81  202 1    
   161   81  203 1    
   162   81  204 1    
   163   82   83 2    
   164   82   84 am   BACKBONE|DICT|INTERRES
   165   84   85 1    
   166   84  205 1    
   167   85   86 1    
   168   85   87 1    
   169   85  206 1    
   170   86  207 1    
   171   86  208 1    
   172   86  209 1    
   173   87   88 2    
   174   87   89 am   BACKBONE|DICT|INTERRES
   175   89   90 1    
   176   89  210 1    
   177   90   91 1    
   178   90   92 1    
   179   90  211 1    
   180   91  212 1    
   181   91  213 1    
   182   91  214 1    
   183   92   93 2    
   184   92   94 am   BACKBONE|DICT|INTERRES
   185   94   95 1    
   186   94  215 1    
   187   95   96 1    
   188   95   97 1    
   189   95  216 1    
   190   96  217 1    
   191   96  218 1    
   192   96  219 1    
   193   97   98 2    
   194   97   99 am   BACKBONE|DICT|INTERRES
   195   99  100 1    
   196   99  220 1    
   197  100  101 1    
   198  100  102 1    
   199  100  221 1    
   200  101  222 1    
   201  101  223 1    
   202  101  224 1    
   203  102  103 2    
   204  102  104 am   BACKBONE|DICT|INTERRES
   205  104  105 1    
   206  104  225 1    
   207  105  106 1    
   208  105  107 1    
   209  105  226 1    
   210  106  227 1    
   211  106  228 1    
   212  106  229 1    
   213  107  108 2    
   214  107  109 am   BACKBONE|DICT|INTERRES
   215  109  110 1    
   216  109  230 1    
   217  110  111 1    
   218  110  112 1    
   219  110  231 1    
   220  111  232 1    
   221  111  233 1    
   222  111  234 1    
   223  112  113 2    
   224  112  114 am   BACKBONE|DICT|INTERRES
   225  114  115 1    
   226  114  235 1    
   227  115  116 1    
   228  115  117 1    
   229  115  236 1    
   230  116  237 1    
   231  116  238 1    
   232  116  239 1    
   233  117  118 2    
   234  117  119 am   BACKBONE|DICT|INTERRES
   235  119  120 1    
   236  119  240 1    
   237  120  121 1    
   238  120  124 1    
   239  120  241 1    
   240  121  122 am   BACKBONE|DICT|INTERRES
   241  121  123 2    
   242  122  242 1    
   243  122  243 1    
   244  124  125 1    
   245  124  244 1    
   246  124  245 1    
   247  125  126 1    
   248  126  246 1    
   249  126  247 1    
@<TRIPOS>SUBSTRUCTURE
     1 UNK         1 GROUP             0       ****    0 ROOT    
