@<TRIPOS>MOLECULE
3R540
247   249    1
SMALL
USER_CHARGES


@<TRIPOS>ATOM
      1 CA          4.9585  -10.5112  -55.3964 C.3       0 UNK        -0.1800 
      2 C           4.8405  -11.3585  -54.1371 C.2       0 UNK         0.5000 
      3 O           5.2002  -10.8978  -53.0533 O.2       0 UNK        -0.5000 
      4 N           4.3475  -12.5953  -54.2769 N.am      1 UNK        -0.5000 
      5 CA          4.0941  -13.5269  -53.1752 C.3       1 UNK         0.1400 
      6 C6          3.9105  -14.9721  -53.7054 C.3       23 UNK        -0.0398 
      7 S7          3.6331  -16.2178  -52.3941 S.3       23 UNK        -0.2404 
      8 C8          1.9040  -16.6826  -52.7249 C.3       23 UNK        -0.0205 
      9 C9          1.1561  -17.0335  -51.4493 C.ar      23 UNK        -0.0193 
     10 C10         0.2755  -16.1100  -50.8797 C.ar      23 UNK        -0.1150 
     11 C11        -0.4641  -16.4422  -49.7420 C.ar      23 UNK        -0.0193 
     12 C12        -0.3093  -17.7066  -49.1673 C.ar      23 UNK        -0.1150 
     13 C13         0.5760  -18.6358  -49.7201 C.ar      23 UNK        -0.0193 
     14 C14         1.3085  -18.2921  -50.8611 C.ar      23 UNK        -0.1150 
     15 C15         0.7102  -20.0230  -49.1107 C.3       23 UNK        -0.0205 
     16 S16         1.3108  -19.9603  -47.3947 S.3       23 UNK        -0.2404 
     17 C17         1.9032  -21.6673  -47.1584 C.3       23 UNK        -0.0398 
     18 CA          0.9106  -22.6571  -46.5036 C.3       11 UNK         0.1400 
     19 N           0.5083  -22.3052  -45.1374 N.am      11 UNK        -0.5000 
     20 C           0.0506  -23.2175  -44.2657 C.2       10 UNK         0.5000 
     21 O          -0.0712  -24.4124  -44.5403 O.2       10 UNK        -0.5000 
     22 CA         -0.3802  -22.7251  -42.8735 C.3       10 UNK         0.1400 
     23 CB          0.8344  -22.3966  -41.9924 C.3       10 UNK        -0.1800 
     24 N          -1.2823  -21.5779  -42.9397 N.am      10 UNK        -0.5000 
     25 C          -2.5201  -21.6240  -43.4532 C.2       9 UNK         0.5000 
     26 O          -3.0342  -22.6463  -43.9067 O.2       9 UNK        -0.5000 
     27 CA         -3.3080  -20.3024  -43.4937 C.3       9 UNK         0.1400 
     28 CB         -3.9971  -20.0434  -42.1461 C.3       9 UNK        -0.1800 
     29 N          -2.4755  -19.1535  -43.8450 N.am      9 UNK        -0.5000 
     30 C          -1.8275  -19.0169  -45.0113 C.2       8 UNK         0.5000 
     31 O          -1.8716  -19.8361  -45.9259 O.2       8 UNK        -0.5000 
     32 CA         -0.9228  -17.7859  -45.1505 C.3       8 UNK         0.1400 
     33 CB         -1.7648  -16.5146  -45.3397 C.3       8 UNK        -0.1800 
     34 N          -0.0346  -17.6222  -44.0038 N.am      8 UNK        -0.5000 
     35 C           0.8545  -18.5189  -43.5551 C.2       7 UNK         0.5000 
     36 O           1.0660  -19.6112  -44.0801 O.2       7 UNK        -0.5000 
     37 CA          1.5962  -18.1459  -42.2619 C.3       7 UNK         0.1400 
     38 CB          2.7759  -17.2052  -42.5524 C.3       7 UNK        -0.1800 
     39 N           0.7013  -17.5220  -41.2879 N.am      7 UNK        -0.5000 
     40 C          -0.2395  -18.1772  -40.5952 C.2       6 UNK         0.5000 
     41 O          -0.4312  -19.3908  -40.6791 O.2       6 UNK        -0.5000 
     42 CA         -1.1294  -17.3247  -39.6709 C.3       6 UNK         0.1400 
     43 CB         -0.4159  -17.0421  -38.3401 C.3       6 UNK        -0.1800 
     44 N          -1.5389  -16.0571  -40.2809 N.am      6 UNK        -0.5000 
     45 C          -2.3841  -15.9649  -41.3162 C.2       5 UNK         0.5000 
     46 O          -2.8977  -16.9397  -41.8657 O.2       5 UNK        -0.5000 
     47 CA         -2.6855  -14.5498  -41.8522 C.3       5 UNK         0.1400 
     48 CB         -3.7389  -13.8588  -40.9727 C.3       5 UNK        -0.1800 
     49 N          -1.5297  -13.6551  -42.0144 N.am      5 UNK        -0.5000 
     50 C          -0.3690  -13.9639  -42.6078 C.2       4 UNK         0.5000 
     51 O          -0.0373  -15.1087  -42.9118 O.2       4 UNK        -0.5000 
     52 CA          0.6046  -12.8091  -42.9021 C.3       4 UNK         0.1400 
     53 CB          1.4915  -12.5338  -41.6785 C.3       4 UNK        -0.1800 
     54 N           1.4614  -13.1446  -44.0429 N.am      4 UNK        -0.5000 
     55 C           1.0411  -13.2232  -45.3122 C.2       3 UNK         0.5000 
     56 O          -0.0714  -12.8523  -45.6976 O.2       3 UNK        -0.5000 
     57 CA          2.0214  -13.8485  -46.3133 C.3       3 UNK         0.1400 
     58 CB          1.9228  -15.3862  -46.3033 C.3       3 UNK        -0.1800 
     59 N           1.7262  -13.3474  -47.6512 N.am      3 UNK        -0.5000 
     60 C           2.6089  -13.2808  -48.6507 C.2       2 UNK         0.5000 
     61 O           3.7858  -13.6431  -48.5494 O.2       2 UNK        -0.5000 
     62 CA          2.1042  -12.6989  -49.9802 C.3       2 UNK         0.1400 
     63 CB          1.9287  -11.1713  -49.8940 C.3       2 UNK        -0.1800 
     64 N           3.0818  -13.0362  -51.0062 N.am      2 UNK        -0.5000 
     65 C           2.8955  -13.0415  -52.3280 C.2       1 UNK         0.5000 
     66 O           1.8439  -12.7090  -52.8805 O.2       1 UNK        -0.5000 
     67 C          -0.2882  -23.0220  -47.4049 C.2       11 UNK         0.5000 
     68 O          -0.1424  -23.9047  -48.2485 O.2       11 UNK        -0.5000 
     69 N          -1.4584  -22.4055  -47.1786 N.am      12 UNK        -0.5000 
     70 CA         -2.7232  -22.7606  -47.8289 C.3       12 UNK         0.1400 
     71 CB         -3.8007  -21.7325  -47.4533 C.3       12 UNK        -0.1800 
     72 C          -3.2044  -24.1797  -47.4730 C.2       12 UNK         0.5000 
     73 O          -3.7525  -24.8681  -48.3328 O.2       12 UNK        -0.5000 
     74 N          -2.9885  -24.5996  -46.2184 N.am      13 UNK        -0.5000 
     75 CA         -3.2717  -25.9568  -45.7538 C.3       13 UNK         0.1400 
     76 CB         -3.2807  -25.9880  -44.2180 C.3       13 UNK        -0.1800 
     77 C          -2.2740  -26.9838  -46.3196 C.2       13 UNK         0.5000 
     78 O          -2.6818  -28.0910  -46.6729 O.2       13 UNK        -0.5000 
     79 N          -0.9915  -26.6010  -46.3988 N.am      14 UNK        -0.5000 
     80 CA          0.0889  -27.4308  -46.9331 C.3       14 UNK         0.1400 
     81 CB          1.4443  -26.8096  -46.5632 C.3       14 UNK        -0.1800 
     82 C          -0.0110  -27.6467  -48.4550 C.2       14 UNK         0.5000 
     83 O           0.1948  -28.7688  -48.9197 O.2       14 UNK        -0.5000 
     84 N          -0.3219  -26.5782  -49.1975 N.am      15 UNK        -0.5000 
     85 CA         -0.4514  -26.5664  -50.6483 C.3       15 UNK         0.1400 
     86 CB          0.7567  -25.8327  -51.2572 C.3       15 UNK        -0.1800 
     87 C          -1.7724  -25.8791  -51.0112 C.2       15 UNK         0.5000 
     88 O          -1.8432  -24.6496  -51.0169 O.2       15 UNK        -0.5000 
     89 N          -2.7966  -26.6829  -51.3280 N.am      16 UNK        -0.5000 
     90 CA         -4.1501  -26.2288  -51.6719 C.3       16 UNK         0.1400 
     91 CB         -5.0538  -27.4533  -51.8778 C.3       16 UNK        -0.1800 
     92 C          -4.2170  -25.2963  -52.8989 C.2       16 UNK         0.5000 
     93 O          -5.1187  -24.4635  -52.9801 O.2       16 UNK        -0.5000 
     94 N          -3.2408  -25.4130  -53.8095 N.am      17 UNK        -0.5000 
     95 CA         -3.0597  -24.5217  -54.9573 C.3       17 UNK         0.1400 
     96 CB         -1.9880  -25.1163  -55.8835 C.3       17 UNK        -0.1800 
     97 C          -2.6868  -23.0770  -54.5615 C.2       17 UNK         0.5000 
     98 O          -2.9727  -22.1520  -55.3222 O.2       17 UNK        -0.5000 
     99 N          -2.0734  -22.9028  -53.3823 N.am      18 UNK        -0.5000 
    100 CA        -1.6683  -21.6092  -52.8321 C.3       18 UNK         0.1400 
    101 CB        -0.3469  -21.7916  -52.0687 C.3       18 UNK        -0.1800 
    102 C         -2.7491  -20.9881  -51.9244 C.2       18 UNK         0.5000 
    103 O         -2.5427  -19.8875  -51.4162 O.2       18 UNK        -0.5000 
    104 N         -3.8810  -21.6818  -51.7300 N.am      19 UNK        -0.5000 
    105 CA        -4.9912  -21.2361  -50.8858 C.3       19 UNK         0.1400 
    106 CB        -5.8365  -22.4521  -50.4784 C.3       19 UNK        -0.1800 
    107 C         -5.8808  -20.1591  -51.5337 C.2       19 UNK         0.5000 
    108 O         -6.7267  -19.5958  -50.8363 O.2       19 UNK        -0.5000 
    109 N         -5.6929  -19.8923  -52.8342 N.am      20 UNK        -0.5000 
    110 CA        -6.4169  -18.9016  -53.6333 C.3       20 UNK         0.1400 
    111 CB        -5.8649  -18.9260  -55.0684 C.3       20 UNK        -0.1800 
    112 C         -6.3461  -17.4867  -53.0217 C.2       20 UNK         0.5000 
    113 O         -5.3222  -16.8143  -53.1503 O.2       20 UNK        -0.5000 
    114 N         -7.4290  -17.1000  -52.3311 N.am      21 UNK        -0.5000 
    115 CA        -7.6114  -15.8686  -51.5510 C.3       21 UNK         0.1400 
    116 CB        -7.5221  -14.6207  -52.4550 C.3       21 UNK        -0.1800 
    117 C         -6.7048  -15.7631  -50.3015 C.2       21 UNK         0.5000 
    118 O         -6.5701  -14.6698  -49.7488 O.2       21 UNK        -0.5000 
    119 N         -6.1256  -16.8883  -49.8624 N.am      22 UNK        -0.5000 
    120 CA        -5.2114  -16.9894  -48.7108 C.3       22 UNK         0.1400 
    121 C         -5.5899  -18.1217  -47.7138 C.2       22 UNK         0.5000 
    122 N         -6.4589  -19.0658  -48.0546 N.am      22 UNK        -0.7600 
    123 O         -5.1017  -18.1275  -46.5882 O.2       22 UNK        -0.5000 
    124 C124       -3.7328  -17.1216  -49.1614 C.3       23 UNK        -0.0398 
    125 S125       -3.0875  -15.5892  -49.9202 S.3       23 UNK        -0.2404 
    126 C126       -1.4432  -15.4400  -49.1527 C.3       23 UNK        -0.0205 
    127 H127        4.6126  -11.0475  -56.2803 H         1 UNK         0.0600 
    128 H128        5.9969  -10.2225  -55.5588 H         1 UNK         0.0600 
    129 H129        4.3631   -9.6039  -55.2948 H         1 UNK         0.0600 
    130 H130        4.0433  -12.9019  -55.1898 H         1 UNK         0.3000 
    131 H131        4.9828  -13.5259  -52.5396 H         1 UNK         0.0600 
    132 H132        4.8080  -15.2716  -54.2484 H         1 UNK         0.0800 
    133 H133        3.1024  -15.0094  -54.4374 H         1 UNK         0.0800 
    134 H134        1.8853  -17.5297  -53.4121 H         1 UNK         0.0800 
    135 H135        1.3838  -15.8685  -53.2319 H         1 UNK         0.0800 
    136 H136        0.1463  -15.1392  -51.3373 H         1 UNK         0.1150 
    137 H137       -0.8840  -17.9802  -48.2951 H         1 UNK         0.1150 
    138 H138        1.9862  -19.0077  -51.3050 H         1 UNK         0.1150 
    139 H139       -0.2622  -20.5168  -49.1368 H         1 UNK         0.0800 
    140 H140        1.3876  -20.6320  -49.7104 H         1 UNK         0.0800 
    141 H141        2.7942  -21.6050  -46.5324 H         1 UNK         0.0800 
    142 H142        2.2561  -22.0665  -48.1105 H         1 UNK         0.0800 
    143 H143        1.4819  -23.5830  -46.4116 H         1 UNK         0.0600 
    144 H144        0.5898  -21.3289  -44.8617 H         1 UNK         0.3000 
    145 H145       -0.9237  -23.5413  -42.3925 H         1 UNK         0.0600 
    146 H146        0.5252  -22.1078  -40.9877 H         1 UNK         0.0600 
    147 H147        1.4310  -21.5834  -42.4039 H         1 UNK         0.0600 
    148 H148        1.4886  -23.2637  -41.8947 H         1 UNK         0.0600 
    149 H149       -0.9307  -20.6978  -42.5854 H         1 UNK         0.3000 
    150 H150       -4.0806  -20.3973  -44.2593 H         1 UNK         0.0600 
    151 H151       -4.6259  -20.8870  -41.8588 H         1 UNK         0.0600 
    152 H152       -4.6376  -19.1625  -42.1953 H         1 UNK         0.0600 
    153 H153       -3.2712  -19.8846  -41.3474 H         1 UNK         0.0600 
    154 H154       -2.4063  -18.4142  -43.1527 H         1 UNK         0.3000 
    155 H155       -0.2970  -17.9190  -46.0327 H         1 UNK         0.0600 
    156 H156       -2.4554  -16.6230  -46.1752 H         1 UNK         0.0600 
    157 H157       -1.1391  -15.6448  -45.5364 H         1 UNK         0.0600 
    158 H158       -2.3648  -16.2970  -44.4577 H         1 UNK         0.0600 
    159 H159       -0.1035  -16.7327  -43.5100 H         1 UNK         0.3000 
    160 H160        1.9947  -19.0655  -41.8279 H         1 UNK         0.0600 
    161 H161        2.4413  -16.2404  -42.9336 H         1 UNK         0.0600 
    162 H162        3.4466  -17.6382  -43.2956 H         1 UNK         0.0600 
    163 H163        3.3623  -17.0223  -41.6520 H         1 UNK         0.0600 
    164 H164        0.7251  -16.5133  -41.2345 H         1 UNK         0.3000 
    165 H165       -2.0301  -17.9037  -39.4552 H         1 UNK         0.0600 
    166 H166       -1.0704  -16.5137  -37.6466 H         1 UNK         0.0600 
    167 H167       -0.1127  -17.9711  -37.8553 H         1 UNK         0.0600 
    168 H168        0.4810  -16.4380  -38.4825 H         1 UNK         0.0600 
    169 H169       -1.1461  -15.2100  -39.8978 H         1 UNK         0.3000 
    170 H170       -3.1192  -14.6757  -42.8457 H         1 UNK         0.0600 
    171 H171       -3.3492  -13.6349  -39.9790 H         1 UNK         0.0600 
    172 H172       -4.0757  -12.9235  -41.4201 H         1 UNK         0.0600 
    173 H173       -4.6193  -14.4905  -40.8458 H         1 UNK         0.0600 
    174 H174       -1.6921  -12.6896  -41.7675 H         1 UNK         0.3000 
    175 H175        0.0316  -11.9107  -43.1409 H         1 UNK         0.0600 
    176 H176        2.0777  -13.4108  -41.4001 H         1 UNK         0.0600 
    177 H177        2.1843  -11.7141  -41.8703 H         1 UNK         0.0600 
    178 H178        0.8899  -12.2530  -40.8132 H         1 UNK         0.0600 
    179 H179        2.3780  -13.4993  -43.8140 H         1 UNK         0.3000 
    180 H180        3.0315  -13.5478  -46.0263 H         1 UNK         0.0600 
    181 H181        2.6993  -15.8362  -46.9219 H         1 UNK         0.0600 
    182 H182        0.9606  -15.7284  -46.6842 H         1 UNK         0.0600 
    183 H183        2.0391  -15.7862  -45.2961 H         1 UNK         0.0600 
    184 H184        0.7889  -12.9814  -47.7609 H         1 UNK         0.3000 
    185 H185        1.1500  -13.1690  -50.2248 H         1 UNK         0.0600 
    186 H186        1.5610  -10.7594  -50.8338 H         1 UNK         0.0600 
    187 H187        1.2089  -10.9002  -49.1209 H         1 UNK         0.0600 
    188 H188        2.8700  -10.6736  -49.6572 H         1 UNK         0.0600 
    189 H189        3.9571  -13.3686  -50.6178 H         1 UNK         0.3000 
    190 H190       -1.4937  -21.6333  -46.5175 H         1 UNK         0.3000 
    191 H191       -2.5709  -22.7226  -48.9100 H         1 UNK         0.0600 
    192 H192       -3.5449  -20.7394  -47.8229 H         1 UNK         0.0600 
    193 H193       -3.9289  -21.6633  -46.3735 H         1 UNK         0.0600 
    194 H194       -4.7699  -22.0001  -47.8725 H         1 UNK         0.0600 
    195 H195       -2.5990  -23.9547  -45.5403 H         1 UNK         0.3000 
    196 H196       -4.2692  -26.2364  -46.0996 H         1 UNK         0.0600 
    197 H197       -4.0394  -25.3164  -43.8159 H         1 UNK         0.0600 
    198 H198       -2.3184  -25.6915  -43.8003 H         1 UNK         0.0600 
    199 H199       -3.5045  -26.9897  -43.8492 H         1 UNK         0.0600 
    200 H200       -0.7323  -25.6940  -46.0266 H         1 UNK         0.3000 
    201 H201        0.0268  -28.4095  -46.4526 H         1 UNK         0.0600 
    202 H202        1.5352  -26.6677  -45.4861 H         1 UNK         0.0600 
    203 H203        1.5873  -25.8422  -47.0437 H         1 UNK         0.0600 
    204 H204        2.2657  -27.4544  -46.8778 H         1 UNK         0.0600 
    205 H205       -0.4558  -25.6747  -48.7464 H         1 UNK         0.3000 
    206 H206       -0.4702  -27.5822  -51.0485 H         1 UNK         0.0600 
    207 H207        0.8517  -24.8179  -50.8676 H         1 UNK         0.0600 
    208 H208        1.6856  -26.3600  -51.0401 H         1 UNK         0.0600 
    209 H209        0.6660  -25.7620  -52.3417 H         1 UNK         0.0600 
    210 H210       -2.6589  -27.6825  -51.2902 H         1 UNK         0.3000 
    211 H211       -4.5320  -25.6635  -50.8198 H         1 UNK         0.0600 
    212 H212       -4.7020  -28.0796  -52.6986 H         1 UNK         0.0600 
    213 H213       -6.0757  -27.1503  -52.1101 H         1 UNK         0.0600 
    214 H214       -5.0962  -28.0680  -50.9784 H         1 UNK         0.0600 
    215 H215       -2.5402  -26.1259  -53.6712 H         1 UNK         0.3000 
    216 H216       -4.0029  -24.4796  -55.5059 H         1 UNK         0.0600 
    217 H217       -1.8446  -24.4920  -56.7664 H         1 UNK         0.0600 
    218 H218       -2.2738  -26.1088  -56.2323 H         1 UNK         0.0600 
    219 H219       -1.0236  -25.2005  -55.3808 H         1 UNK         0.0600 
    220 H220       -1.9248  -23.7007  -52.7720 H         1 UNK         0.3000 
    221 H221       -1.4861  -20.9066  -53.6477 H         1 UNK         0.0600 
    222 H222        0.0712  -20.8230  -51.7985 H         1 UNK         0.0600 
    223 H223       -0.4823  -22.3621  -51.1488 H         1 UNK         0.0600 
    224 H224        0.3978  -22.3050  -52.6769 H         1 UNK         0.0600 
    225 H225       -3.9909  -22.5773  -52.1874 H         1 UNK         0.3000 
    226 H226       -4.5730  -20.7920  -49.9823 H         1 UNK         0.0600 
    227 H227       -5.2182  -23.2448  -50.0576 H         1 UNK         0.0600 
    228 H228       -6.5735  -22.1781  -49.7225 H         1 UNK         0.0600 
    229 H229       -6.3823  -22.8651  -51.3268 H         1 UNK         0.0600 
    230 H230       -4.9618  -20.3988  -53.3107 H         1 UNK         0.3000 
    231 H231       -7.4632  -19.2109  -53.6740 H         1 UNK         0.0600 
    232 H232       -6.3774  -18.1960  -55.6961 H         1 UNK         0.0600 
    233 H233       -6.0041  -19.9046  -55.5284 H         1 UNK         0.0600 
    234 H234       -4.7996  -18.6929  -55.0954 H         1 UNK         0.0600 
    235 H235       -8.1884  -17.7629  -52.2526 H         1 UNK         0.3000 
    236 H236       -8.6311  -15.9146  -51.1664 H         1 UNK         0.0600 
    237 H237       -6.5054  -14.4478  -52.8087 H         1 UNK         0.0600 
    238 H238       -8.1700  -14.7164  -53.3262 H         1 UNK         0.0600 
    239 H239       -7.8349  -13.7247  -51.9178 H         1 UNK         0.0600 
    240 H240       -6.3177  -17.7527  -50.3562 H         1 UNK         0.3000 
    241 H241       -5.2917  -16.0776  -48.1160 H         1 UNK         0.0600 
    242 H242       -6.7035  -19.7656  -47.3735 H         1 UNK         0.3800 
    243 H243       -6.8313  -19.1337  -48.9952 H         1 UNK         0.3800 
    244 H244       -3.6216  -17.9383  -49.8761 H         1 UNK         0.0800 
    245 H245       -3.1019  -17.3796  -48.3114 H         1 UNK         0.0800 
    246 H246       -1.5163  -15.5598  -48.0725 H         1 UNK         0.0800 
    247 H247       -1.0734  -14.4270  -49.3164 H         1 UNK         0.0800 
@<TRIPOS>BOND
     1    1    2 1    
     2    1  127 1    
     3    1  128 1    
     4    1  129 1    
     5    2    3 2    
     6    2    4 am   BACKBONE|DICT|INTERRES
     7    4    5 1    
     8    4  130 1    
     9    5    6 1    
    10    5   65 1    
    11    5  131 1    
    12    6    7 1    
    13    6  132 1    
    14    6  133 1    
    15    7    8 1    
    16    8    9 1    
    17    8  134 1    
    18    8  135 1    
    19    9   10 ar   
    20    9   14 ar   
    21   10   11 ar   
    22   10  136 1    
    23   11   12 ar   
    24   11  126 1    
    25   12   13 ar   
    26   12  137 1    
    27   13   14 ar   
    28   13   15 1    
    29   14  138 1    
    30   15   16 1    
    31   15  139 1    
    32   15  140 1    
    33   16   17 1    
    34   17   18 1    
    35   17  141 1    
    36   17  142 1    
    37   18   19 1    
    38   18   67 1    
    39   18  143 1    
    40   19   20 am   BACKBONE|DICT|INTERRES
    41   19  144 1    
    42   20   21 2    
    43   20   22 1    
    44   22   23 1    
    45   22   24 1    
    46   22  145 1    
    47   23  146 1    
    48   23  147 1    
    49   23  148 1    
    50   24   25 am   BACKBONE|DICT|INTERRES
    51   24  149 1    
    52   25   26 2    
    53   25   27 1    
    54   27   28 1    
    55   27   29 1    
    56   27  150 1    
    57   28  151 1    
    58   28  152 1    
    59   28  153 1    
    60   29   30 am   BACKBONE|DICT|INTERRES
    61   29  154 1    
    62   30   31 2    
    63   30   32 1    
    64   32   33 1    
    65   32   34 1    
    66   32  155 1    
    67   33  156 1    
    68   33  157 1    
    69   33  158 1    
    70   34   35 am   BACKBONE|DICT|INTERRES
    71   34  159 1    
    72   35   36 2    
    73   35   37 1    
    74   37   38 1    
    75   37   39 1    
    76   37  160 1    
    77   38  161 1    
    78   38  162 1    
    79   38  163 1    
    80   39   40 am   BACKBONE|DICT|INTERRES
    81   39  164 1    
    82   40   41 2    
    83   40   42 1    
    84   42   43 1    
    85   42   44 1    
    86   42  165 1    
    87   43  166 1    
    88   43  167 1    
    89   43  168 1    
    90   44   45 am   BACKBONE|DICT|INTERRES
    91   44  169 1    
    92   45   46 2    
    93   45   47 1    
    94   47   48 1    
    95   47   49 1    
    96   47  170 1    
    97   48  171 1    
    98   48  172 1    
    99   48  173 1    
   100   49   50 am   BACKBONE|DICT|INTERRES
   101   49  174 1    
   102   50   51 2    
   103   50   52 1    
   104   52   53 1    
   105   52   54 1    
   106   52  175 1    
   107   53  176 1    
   108   53  177 1    
   109   53  178 1    
   110   54   55 am   BACKBONE|DICT|INTERRES
   111   54  179 1    
   112   55   56 2    
   113   55   57 1    
   114   57   58 1    
   115   57   59 1    
   116   57  180 1    
   117   58  181 1    
   118   58  182 1    
   119   58  183 1    
   120   59   60 am   BACKBONE|DICT|INTERRES
   121   59  184 1    
   122   60   61 2    
   123   60   62 1    
   124   62   63 1    
   125   62   64 1    
   126   62  185 1    
   127   63  186 1    
   128   63  187 1    
   129   63  188 1    
   130   64   65 am   BACKBONE|DICT|INTERRES
   131   64  189 1    
   132   65   66 2    
   133   67   68 2    
   134   67   69 am   BACKBONE|DICT|INTERRES
   135   69   70 1    
   136   69  190 1    
   137   70   71 1    
   138   70   72 1    
   139   70  191 1    
   140   71  192 1    
   141   71  193 1    
   142   71  194 1    
   143   72   73 2    
   144   72   74 am   BACKBONE|DICT|INTERRES
   145   74   75 1    
   146   74  195 1    
   147   75   76 1    
   148   75   77 1    
   149   75  196 1    
   150   76  197 1    
   151   76  198 1    
   152   76  199 1    
   153   77   78 2    
   154   77   79 am   BACKBONE|DICT|INTERRES
   155   79   80 1    
   156   79  200 1    
   157   80   81 1    
   158   80   82 1    
   159   80  201 1    
   160   81  202 1    
   161   81  203 1    
   162   81  204 1    
   163   82   83 2    
   164   82   84 am   BACKBONE|DICT|INTERRES
   165   84   85 1    
   166   84  205 1    
   167   85   86 1    
   168   85   87 1    
   169   85  206 1    
   170   86  207 1    
   171   86  208 1    
   172   86  209 1    
   173   87   88 2    
   174   87   89 am   BACKBONE|DICT|INTERRES
   175   89   90 1    
   176   89  210 1    
   177   90   91 1    
   178   90   92 1    
   179   90  211 1    
   180   91  212 1    
   181   91  213 1    
   182   91  214 1    
   183   92   93 2    
   184   92   94 am   BACKBONE|DICT|INTERRES
   185   94   95 1    
   186   94  215 1    
   187   95   96 1    
   188   95   97 1    
   189   95  216 1    
   190   96  217 1    
   191   96  218 1    
   192   96  219 1    
   193   97   98 2    
   194   97   99 am   BACKBONE|DICT|INTERRES
   195   99  100 1    
   196   99  220 1    
   197  100  101 1    
   198  100  102 1    
   199  100  221 1    
   200  101  222 1    
   201  101  223 1    
   202  101  224 1    
   203  102  103 2    
   204  102  104 am   BACKBONE|DICT|INTERRES
   205  104  105 1    
   206  104  225 1    
   207  105  106 1    
   208  105  107 1    
   209  105  226 1    
   210  106  227 1    
   211  106  228 1    
   212  106  229 1    
   213  107  108 2    
   214  107  109 am   BACKBONE|DICT|INTERRES
   215  109  110 1    
   216  109  230 1    
   217  110  111 1    
   218  110  112 1    
   219  110  231 1    
   220  111  232 1    
   221  111  233 1    
   222  111  234 1    
   223  112  113 2    
   224  112  114 am   BACKBONE|DICT|INTERRES
   225  114  115 1    
   226  114  235 1    
   227  115  116 1    
   228  115  117 1    
   229  115  236 1    
   230  116  237 1    
   231  116  238 1    
   232  116  239 1    
   233  117  118 2    
   234  117  119 am   BACKBONE|DICT|INTERRES
   235  119  120 1    
   236  119  240 1    
   237  120  121 1    
   238  120  124 1    
   239  120  241 1    
   240  121  122 am   BACKBONE|DICT|INTERRES
   241  121  123 2    
   242  122  242 1    
   243  122  243 1    
   244  124  125 1    
   245  124  244 1    
   246  124  245 1    
   247  125  126 1    
   248  126  246 1    
   249  126  247 1    
@<TRIPOS>SUBSTRUCTURE
     1 UNK         1 GROUP             0       ****    0 ROOT    
