@<TRIPOS>MOLECULE
3R540
247   249    1
SMALL
USER_CHARGES


@<TRIPOS>ATOM
      1 CA          3.1551  -10.3609  -52.2345 C.3       0 UNK        -0.1800 
      2 C           3.5849  -11.5284  -51.3571 C.2       0 UNK         0.5000 
      3 O           4.7145  -12.0025  -51.4794 O.2       0 UNK        -0.5000 
      4 N           2.6919  -11.9888  -50.4747 N.am      1 UNK        -0.5000 
      5 CA          2.9363  -13.0766  -49.5235 C.3       1 UNK         0.1400 
      6 C6          2.9427  -14.4790  -50.1879 C.3       23 UNK        -0.0398 
      7 S7          3.7856  -15.7625  -49.1907 S.3       23 UNK        -0.2404 
      8 C8          2.4309  -16.5437  -48.2476 C.3       23 UNK        -0.0205 
      9 C9          1.3834  -17.1761  -49.1468 C.ar      23 UNK        -0.0193 
     10 C10         0.1935  -16.5005  -49.4255 C.ar      23 UNK        -0.1150 
     11 C11        -0.7508  -17.0530  -50.2934 C.ar      23 UNK        -0.0193 
     12 C12        -0.5153  -18.3125  -50.8541 C.ar      23 UNK        -0.1150 
     13 C13         0.6554  -19.0152  -50.5501 C.ar      23 UNK        -0.0193 
     14 C14         1.6033  -18.4383  -49.7007 C.ar      23 UNK        -0.1150 
     15 C15         0.9058  -20.3967  -51.1380 C.3       23 UNK        -0.0205 
     16 S16        -0.2238  -21.6559  -50.4640 S.3       23 UNK        -0.2404 
     17 C17        -0.0428  -21.4177  -48.6629 C.3       23 UNK        -0.0398 
     18 CA         -0.2592  -22.7050  -47.8318 C.3       11 UNK         0.1400 
     19 N           0.1187  -22.5050  -46.4321 N.am      11 UNK        -0.5000 
     20 C           0.1715  -23.4730  -45.5081 C.2       10 UNK         0.5000 
     21 O          -0.0076  -24.6644  -45.7580 O.2       10 UNK        -0.5000 
     22 CA          0.4051  -23.0325  -44.0512 C.3       10 UNK         0.1400 
     23 CB          1.9022  -22.8449  -43.7686 C.3       10 UNK        -0.1800 
     24 N          -0.3285  -21.8115  -43.7067 N.am      10 UNK        -0.5000 
     25 C          -1.6664  -21.7133  -43.7088 C.2       9 UNK         0.5000 
     26 O          -2.4150  -22.6589  -43.9470 O.2       9 UNK        -0.5000 
     27 CA         -2.2768  -20.3250  -43.4533 C.3       9 UNK         0.1400 
     28 CB         -2.3195  -20.0159  -41.9500 C.3       9 UNK        -0.1800 
     29 N          -1.5713  -19.2607  -44.1670 N.am      9 UNK        -0.5000 
     30 C          -1.5037  -19.1559  -45.5023 C.2       8 UNK         0.5000 
     31 O          -2.0844  -19.9193  -46.2739 O.2       8 UNK        -0.5000 
     32 CA         -0.5852  -18.0567  -46.0709 C.3       8 UNK         0.1400 
     33 CB         -1.2810  -16.6882  -46.0714 C.3       8 UNK        -0.1800 
     34 N           0.6811  -17.9629  -45.3434 N.am      8 UNK        -0.5000 
     35 C           1.5990  -18.9389  -45.3013 C.2       7 UNK         0.5000 
     36 O           1.5083  -19.9891  -45.9366 O.2       7 UNK        -0.5000 
     37 CA          2.7861  -18.7317  -44.3457 C.3       7 UNK         0.1400 
     38 CB          3.9007  -17.9066  -45.0053 C.3       7 UNK        -0.1800 
     39 N           2.3680  -18.0908  -43.0992 N.am      7 UNK        -0.5000 
     40 C           1.6764  -18.7108  -42.1329 C.2       6 UNK         0.5000 
     41 O           1.3477  -19.8956  -42.1851 O.2       6 UNK        -0.5000 
     42 CA          1.2518  -17.8576  -40.9226 C.3       6 UNK         0.1400 
     43 CB          2.3859  -17.7836  -39.8896 C.3       6 UNK        -0.1800 
     44 N           0.8479  -16.5012  -41.2965 N.am      6 UNK        -0.5000 
     45 C          -0.2394  -16.2098  -42.0241 C.2       5 UNK         0.5000 
     46 O          -1.0371  -17.0550  -42.4245 O.2       5 UNK        -0.5000 
     47 CA         -0.4465  -14.7347  -42.4140 C.3       5 UNK         0.1400 
     48 CB         -1.2548  -13.9989  -41.3357 C.3       5 UNK        -0.1800 
     49 N           0.7968  -14.0033  -42.6691 N.am      5 UNK        -0.5000 
     50 C           1.7197  -14.3410  -43.5789 C.2       4 UNK         0.5000 
     51 O           1.6564  -15.3591  -44.2716 O.2       4 UNK        -0.5000 
     52 CA          2.8755  -13.3440  -43.7588 C.3       4 UNK         0.1400 
     53 CB          4.1061  -13.9821  -44.4279 C.3       4 UNK        -0.1800 
     54 N           2.3959  -12.2379  -44.5798 N.am      4 UNK        -0.5000 
     55 C           1.7727  -11.1453  -44.1163 C.2       3 UNK         0.5000 
     56 O           1.6641  -10.8835  -42.9174 O.2       3 UNK        -0.5000 
     57 CA          1.1282  -10.2054  -45.1582 C.3       3 UNK         0.1400 
     58 CB          2.1078   -9.0915  -45.5569 C.3       3 UNK        -0.1800 
     59 N           0.6802  -10.9026  -46.3663 N.am      3 UNK        -0.5000 
     60 C          -0.2823  -11.8355  -46.4029 C.2       2 UNK         0.5000 
     61 O          -0.9968  -12.1117  -45.4388 O.2       2 UNK        -0.5000 
     62 CA         -0.4694  -12.6157  -47.7232 C.3       2 UNK         0.1400 
     63 CB         -1.7127  -12.1087  -48.4692 C.3       2 UNK        -0.1800 
     64 N           0.6711  -12.6192  -48.6537 N.am      2 UNK        -0.5000 
     65 C           1.9269  -13.0028  -48.3655 C.2       1 UNK         0.5000 
     66 O           2.3078  -13.2708  -47.2289 O.2       1 UNK        -0.5000 
     67 C          -1.6991  -23.2556  -47.9504 C.2       11 UNK         0.5000 
     68 O          -1.9135  -24.2655  -48.6209 O.2       11 UNK        -0.5000 
     69 N          -2.6514  -22.6049  -47.2707 N.am      12 UNK        -0.5000 
     70 CA         -4.0676  -22.9612  -47.2972 C.3       12 UNK         0.1400 
     71 CB         -4.8858  -21.8313  -46.6536 C.3       12 UNK        -0.1800 
     72 C          -4.3891  -24.3121  -46.6339 C.2       12 UNK         0.5000 
     73 O          -5.1392  -25.0986  -47.2113 O.2       12 UNK        -0.5000 
     74 N          -3.8523  -24.5461  -45.4304 N.am      13 UNK        -0.5000 
     75 CA         -4.1957  -25.6956  -44.5967 C.3       13 UNK         0.1400 
     76 CB         -4.2195  -25.2719  -43.1177 C.3       13 UNK        -0.1800 
     77 C          -3.2453  -26.8807  -44.8175 C.2       13 UNK         0.5000 
     78 O          -3.6985  -27.9498  -45.2264 O.2       13 UNK        -0.5000 
     79 N          -1.9554  -26.6882  -44.5091 N.am      14 UNK        -0.5000 
     80 CA         -0.9598  -27.7615  -44.4506 C.3       14 UNK         0.1400 
     81 CB          0.2572  -27.3073  -43.6281 C.3       14 UNK        -0.1800 
     82 C          -0.5410  -28.2675  -45.8399 C.2       14 UNK         0.5000 
     83 O          -0.4929  -29.4798  -46.0532 O.2       14 UNK        -0.5000 
     84 N          -0.2705  -27.3372  -46.7649 N.am      15 UNK        -0.5000 
     85 CA          0.0519  -27.6481  -48.1608 C.3       15 UNK         0.1400 
     86 CB          0.8715  -26.5001  -48.7670 C.3       15 UNK        -0.1800 
     87 C          -1.2023  -27.9354  -49.0108 C.2       15 UNK         0.5000 
     88 O          -1.0704  -28.4996  -50.0976 O.2       15 UNK        -0.5000 
     89 N          -2.3834  -27.5525  -48.4999 N.am      16 UNK        -0.5000 
     90 CA         -3.7139  -27.7199  -49.0956 C.3       16 UNK         0.1400 
     91 CB         -4.0940  -29.2141  -49.1615 C.3       16 UNK        -0.1800 
     92 C          -3.8707  -26.9926  -50.4494 C.2       16 UNK         0.5000 
     93 O          -4.5288  -27.5082  -51.3559 O.2       16 UNK        -0.5000 
     94 N          -3.2471  -25.8151  -50.5636 N.am      17 UNK        -0.5000 
     95 CA         -3.2238  -24.9705  -51.7503 C.3       17 UNK         0.1400 
     96 CB         -1.7567  -24.7959  -52.1936 C.3       17 UNK        -0.1800 
     97 C          -3.9644  -23.6531  -51.4488 C.2       17 UNK         0.5000 
     98 O          -5.1184  -23.7010  -51.0188 O.2       17 UNK        -0.5000 
     99 N          -3.3081  -22.5106  -51.6983 N.am      18 UNK        -0.5000 
    100 CA        -3.8307  -21.1426  -51.6472 C.3       18 UNK         0.1400 
    101 CB        -4.1814  -20.7187  -50.2048 C.3       18 UNK        -0.1800 
    102 C         -4.9742  -20.9594  -52.6656 C.2       18 UNK         0.5000 
    103 O         -4.6965  -20.9406  -53.8663 O.2       18 UNK        -0.5000 
    104 N         -6.2208  -20.8594  -52.1812 N.am      19 UNK        -0.5000 
    105 CA        -7.4739  -20.7876  -52.9386 C.3       19 UNK         0.1400 
    106 CB        -7.7610  -22.1360  -53.6363 C.3       19 UNK        -0.1800 
    107 C         -7.5191  -19.5796  -53.8951 C.2       19 UNK         0.5000 
    108 O         -7.8823  -18.4844  -53.4653 O.2       19 UNK        -0.5000 
    109 N         -7.1541  -19.7983  -55.1652 N.am      20 UNK        -0.5000 
    110 CA        -7.0616  -18.7699  -56.2010 C.3       20 UNK         0.1400 
    111 CB        -6.9910  -19.4526  -57.5755 C.3       20 UNK        -0.1800 
    112 C         -5.8635  -17.8197  -56.0084 C.2       20 UNK         0.5000 
    113 O         -5.9206  -16.6802  -56.4757 O.2       20 UNK        -0.5000 
    114 N         -4.8036  -18.2879  -55.3310 N.am      21 UNK        -0.5000 
    115 CA        -3.6363  -17.4789  -54.9801 C.3       21 UNK         0.1400 
    116 CB        -2.5276  -18.3806  -54.4195 C.3       21 UNK        -0.1800 
    117 C         -4.0055  -16.3845  -53.9632 C.2       21 UNK         0.5000 
    118 O         -4.7801  -16.6437  -53.0397 O.2       21 UNK        -0.5000 
    119 N         -3.4335  -15.1915  -54.1574 N.am      22 UNK        -0.5000 
    120 CA        -3.6743  -13.9704  -53.3653 C.3       22 UNK         0.1400 
    121 C         -5.0777  -13.3217  -53.5808 C.2       22 UNK         0.5000 
    122 N         -5.8738  -13.7532  -54.5526 N.am      22 UNK        -0.7600 
    123 O         -5.4421  -12.3833  -52.8772 O.2       22 UNK        -0.5000 
    124 C124       -3.3232  -14.1155  -51.8555 C.3       23 UNK        -0.0398 
    125 S125       -1.6415  -14.7660  -51.5638 S.3       23 UNK        -0.2404 
    126 C126       -2.0170  -16.2795  -50.6220 C.3       23 UNK        -0.0205 
    127 H127        3.8129   -9.5072  -52.0717 H         1 UNK         0.0600 
    128 H128        2.1325  -10.0475  -52.0226 H         1 UNK         0.0600 
    129 H129        3.2129  -10.6413  -53.2863 H         1 UNK         0.0600 
    130 H130        1.8033  -11.5180  -50.3889 H         1 UNK         0.3000 
    131 H131        3.9212  -12.9004  -49.0846 H         1 UNK         0.0600 
    132 H132        1.9384  -14.7889  -50.4724 H         1 UNK         0.0800 
    133 H133        3.4937  -14.4330  -51.1275 H         1 UNK         0.0800 
    134 H134        2.8614  -17.3187  -47.6152 H         1 UNK         0.0800 
    135 H135        1.9728  -15.8276  -47.5654 H         1 UNK         0.0800 
    136 H136        0.0134  -15.5269  -48.9932 H         1 UNK         0.1150 
    137 H137       -1.2429  -18.7528  -51.5201 H         1 UNK         0.1150 
    138 H138        2.5177  -18.9677  -49.4721 H         1 UNK         0.1150 
    139 H139        0.7840  -20.3544  -52.2211 H         1 UNK         0.0800 
    140 H140        1.9343  -20.7136  -50.9581 H         1 UNK         0.0800 
    141 H141       -0.7263  -20.6274  -48.3533 H         1 UNK         0.0800 
    142 H142        0.9618  -21.0385  -48.4708 H         1 UNK         0.0800 
    143 H143        0.4179  -23.4620  -48.2285 H         1 UNK         0.0600 
    144 H144        0.3416  -21.5545  -46.1521 H         1 UNK         0.3000 
    145 H145        0.0388  -23.8317  -43.4035 H         1 UNK         0.0600 
    146 H146        2.0776  -22.5957  -42.7219 H         1 UNK         0.0600 
    147 H147        2.4561  -23.7598  -43.9826 H         1 UNK         0.0600 
    148 H148        2.3325  -22.0510  -44.3785 H         1 UNK         0.0600 
    149 H149        0.2252  -21.0041  -43.4397 H         1 UNK         0.3000 
    150 H150       -3.3047  -20.3445  -43.8211 H         1 UNK         0.0600 
    151 H151       -2.8517  -20.7970  -41.4057 H         1 UNK         0.0600 
    152 H152       -2.8364  -19.0759  -41.7562 H         1 UNK         0.0600 
    153 H153       -1.3191  -19.9416  -41.5239 H         1 UNK         0.0600 
    154 H154       -1.1263  -18.5493  -43.5936 H         1 UNK         0.3000 
    155 H155       -0.3563  -18.3216  -47.1049 H         1 UNK         0.0600 
    156 H156       -1.5847  -16.3889  -45.0685 H         1 UNK         0.0600 
    157 H157       -2.1755  -16.7079  -46.6950 H         1 UNK         0.0600 
    158 H158       -0.6235  -15.9136  -46.4658 H         1 UNK         0.0600 
    159 H159        0.8582  -17.1078  -44.8252 H         1 UNK         0.3000 
    160 H160        3.1971  -19.7146  -44.1059 H         1 UNK         0.0600 
    161 H161        3.5559  -16.9139  -45.2941 H         1 UNK         0.0600 
    162 H162        4.2695  -18.4016  -45.9044 H         1 UNK         0.0600 
    163 H163        4.7497  -17.7825  -44.3331 H         1 UNK         0.0600 
    164 H164        2.5272  -17.0958  -43.0266 H         1 UNK         0.3000 
    165 H165        0.3963  -18.3487  -40.4542 H         1 UNK         0.0600 
    166 H166        2.0690  -17.2489  -38.9939 H         1 UNK         0.0600 
    167 H167        2.6951  -18.7822  -39.5782 H         1 UNK         0.0600 
    168 H168        3.2651  -17.2775  -40.2901 H         1 UNK         0.0600 
    169 H169        1.4523  -15.7455  -41.0098 H         1 UNK         0.3000 
    170 H170       -1.0245  -14.7197  -43.3400 H         1 UNK         0.0600 
    171 H171       -2.1993  -14.5083  -41.1397 H         1 UNK         0.0600 
    172 H172       -0.7099  -13.9416  -40.3926 H         1 UNK         0.0600 
    173 H173       -1.4944  -12.9823  -41.6485 H         1 UNK         0.0600 
    174 H174        0.9109  -13.1261  -42.1793 H         1 UNK         0.3000 
    175 H175        3.1799  -12.9811  -42.7749 H         1 UNK         0.0600 
    176 H176        3.8765  -14.3766  -45.4181 H         1 UNK         0.0600 
    177 H177        4.9127  -13.2574  -44.5382 H         1 UNK         0.0600 
    178 H178        4.4894  -14.8084  -43.8283 H         1 UNK         0.0600 
    179 H179        2.3747  -12.4270  -45.5797 H         1 UNK         0.3000 
    180 H180        0.2550   -9.7447  -44.6918 H         1 UNK         0.0600 
    181 H181        2.9941   -9.4928  -46.0500 H         1 UNK         0.0600 
    182 H182        2.4431   -8.5347  -44.6808 H         1 UNK         0.0600 
    183 H183        1.6394   -8.3774  -46.2346 H         1 UNK         0.0600 
    184 H184        1.2166  -10.7432  -47.2056 H         1 UNK         0.3000 
    185 H185       -0.6487  -13.6546  -47.4415 H         1 UNK         0.0600 
    186 H186       -2.5903  -12.1136  -47.8212 H         1 UNK         0.0600 
    187 H187       -1.5762  -11.0886  -48.8299 H         1 UNK         0.0600 
    188 H188       -1.9442  -12.7411  -49.3251 H         1 UNK         0.0600 
    189 H189        0.4310  -12.4480  -49.6183 H         1 UNK         0.3000 
    190 H190       -2.4021  -21.7660  -46.7538 H         1 UNK         0.3000 
    191 H191       -4.3670  -23.0420  -48.3432 H         1 UNK         0.0600 
    192 H192       -4.7303  -20.8857  -47.1731 H         1 UNK         0.0600 
    193 H193       -5.9534  -22.0515  -46.6896 H         1 UNK         0.0600 
    194 H194       -4.6139  -21.6841  -45.6078 H         1 UNK         0.0600 
    195 H195       -3.2541  -23.8382  -45.0065 H         1 UNK         0.3000 
    196 H196       -5.2044  -26.0344  -44.8436 H         1 UNK         0.0600 
    197 H197       -4.5081  -26.1069  -42.4782 H         1 UNK         0.0600 
    198 H198       -4.9404  -24.4713  -42.9515 H         1 UNK         0.0600 
    199 H199       -3.2472  -24.9182  -42.7739 H         1 UNK         0.0600 
    200 H200       -1.6426  -25.7622  -44.2563 H         1 UNK         0.3000 
    201 H201       -1.4114  -28.6035  -43.9211 H         1 UNK         0.0600 
    202 H202       -0.0381  -26.9929  -42.6271 H         1 UNK         0.0600 
    203 H203        0.7862  -26.4786  -44.0972 H         1 UNK         0.0600 
    204 H204        0.9718  -28.1232  -43.5136 H         1 UNK         0.0600 
    205 H205       -0.2892  -26.3554  -46.4941 H         1 UNK         0.3000 
    206 H206        0.6754  -28.5445  -48.1835 H         1 UNK         0.0600 
    207 H207        1.7224  -26.2392  -48.1376 H         1 UNK         0.0600 
    208 H208        1.2613  -26.7787  -49.7467 H         1 UNK         0.0600 
    209 H209        0.2658  -25.6082  -48.9056 H         1 UNK         0.0600 
    210 H210       -2.3631  -27.0835  -47.6060 H         1 UNK         0.3000 
    211 H211       -4.4154  -27.2439  -48.4122 H         1 UNK         0.0600 
    212 H212       -3.4739  -29.7602  -49.8728 H         1 UNK         0.0600 
    213 H213       -5.1328  -29.3401  -49.4686 H         1 UNK         0.0600 
    214 H214       -3.9857  -29.6896  -48.1864 H         1 UNK         0.0600 
    215 H215       -2.7663  -25.4280  -49.7531 H         1 UNK         0.3000 
    216 H216       -3.7646  -25.4446  -52.5713 H         1 UNK         0.0600 
    217 H217       -1.6774  -24.1872  -53.0951 H         1 UNK         0.0600 
    218 H218       -1.3073  -25.7623  -52.4234 H         1 UNK         0.0600 
    219 H219       -1.1500  -24.3349  -51.4139 H         1 UNK         0.0600 
    220 H220       -2.3606  -22.5881  -52.0398 H         1 UNK         0.3000 
    221 H221       -3.0129  -20.5028  -51.9759 H         1 UNK         0.0600 
    222 H222       -4.9907  -21.3116  -49.7804 H         1 UNK         0.0600 
    223 H223       -3.3158  -20.8201  -49.5500 H         1 UNK         0.0600 
    224 H224       -4.4856  -19.6719  -50.1708 H         1 UNK         0.0600 
    225 H225       -6.3281  -20.8802  -51.1773 H         1 UNK         0.3000 
    226 H226       -8.2670  -20.6278  -52.2065 H         1 UNK         0.0600 
    227 H227       -7.8608  -22.9363  -52.9027 H         1 UNK         0.0600 
    228 H228       -8.6951  -22.0957  -54.1981 H         1 UNK         0.0600 
    229 H229       -6.9701  -22.4265  -54.3281 H         1 UNK         0.0600 
    230 H230       -6.8305  -20.7221  -55.4138 H         1 UNK         0.3000 
    231 H231       -7.9702  -18.1652  -56.1665 H         1 UNK         0.0600 
    232 H232       -6.1074  -20.0859  -57.6653 H         1 UNK         0.0600 
    233 H233       -6.9484  -18.7138  -58.3769 H         1 UNK         0.0600 
    234 H234       -7.8695  -20.0732  -57.7538 H         1 UNK         0.0600 
    235 H235       -4.8461  -19.2228  -54.9388 H         1 UNK         0.3000 
    236 H236       -3.2672  -17.0102  -55.8948 H         1 UNK         0.0600 
    237 H237       -2.2847  -19.1908  -55.1072 H         1 UNK         0.0600 
    238 H238       -1.6134  -17.8115  -54.2454 H         1 UNK         0.0600 
    239 H239       -2.8205  -18.8202  -53.4685 H         1 UNK         0.0600 
    240 H240       -2.8071  -15.0756  -54.9411 H         1 UNK         0.3000 
    241 H241       -2.9791  -13.2369  -53.7752 H         1 UNK         0.0600 
    242 H242       -6.7714  -13.3148  -54.6867 H         1 UNK         0.3800 
    243 H243       -5.6050  -14.5299  -55.1386 H         1 UNK         0.3800 
    244 H244       -3.3804  -13.1434  -51.3635 H         1 UNK         0.0800 
    245 H245       -4.0580  -14.7441  -51.3509 H         1 UNK         0.0800 
    246 H246       -2.7080  -16.9010  -51.1930 H         1 UNK         0.0800 
    247 H247       -2.5271  -16.0140  -49.6948 H         1 UNK         0.0800 
@<TRIPOS>BOND
     1    1    2 1    
     2    1  127 1    
     3    1  128 1    
     4    1  129 1    
     5    2    3 2    
     6    2    4 am   BACKBONE|DICT|INTERRES
     7    4    5 1    
     8    4  130 1    
     9    5    6 1    
    10    5   65 1    
    11    5  131 1    
    12    6    7 1    
    13    6  132 1    
    14    6  133 1    
    15    7    8 1    
    16    8    9 1    
    17    8  134 1    
    18    8  135 1    
    19    9   10 ar   
    20    9   14 ar   
    21   10   11 ar   
    22   10  136 1    
    23   11   12 ar   
    24   11  126 1    
    25   12   13 ar   
    26   12  137 1    
    27   13   14 ar   
    28   13   15 1    
    29   14  138 1    
    30   15   16 1    
    31   15  139 1    
    32   15  140 1    
    33   16   17 1    
    34   17   18 1    
    35   17  141 1    
    36   17  142 1    
    37   18   19 1    
    38   18   67 1    
    39   18  143 1    
    40   19   20 am   BACKBONE|DICT|INTERRES
    41   19  144 1    
    42   20   21 2    
    43   20   22 1    
    44   22   23 1    
    45   22   24 1    
    46   22  145 1    
    47   23  146 1    
    48   23  147 1    
    49   23  148 1    
    50   24   25 am   BACKBONE|DICT|INTERRES
    51   24  149 1    
    52   25   26 2    
    53   25   27 1    
    54   27   28 1    
    55   27   29 1    
    56   27  150 1    
    57   28  151 1    
    58   28  152 1    
    59   28  153 1    
    60   29   30 am   BACKBONE|DICT|INTERRES
    61   29  154 1    
    62   30   31 2    
    63   30   32 1    
    64   32   33 1    
    65   32   34 1    
    66   32  155 1    
    67   33  156 1    
    68   33  157 1    
    69   33  158 1    
    70   34   35 am   BACKBONE|DICT|INTERRES
    71   34  159 1    
    72   35   36 2    
    73   35   37 1    
    74   37   38 1    
    75   37   39 1    
    76   37  160 1    
    77   38  161 1    
    78   38  162 1    
    79   38  163 1    
    80   39   40 am   BACKBONE|DICT|INTERRES
    81   39  164 1    
    82   40   41 2    
    83   40   42 1    
    84   42   43 1    
    85   42   44 1    
    86   42  165 1    
    87   43  166 1    
    88   43  167 1    
    89   43  168 1    
    90   44   45 am   BACKBONE|DICT|INTERRES
    91   44  169 1    
    92   45   46 2    
    93   45   47 1    
    94   47   48 1    
    95   47   49 1    
    96   47  170 1    
    97   48  171 1    
    98   48  172 1    
    99   48  173 1    
   100   49   50 am   BACKBONE|DICT|INTERRES
   101   49  174 1    
   102   50   51 2    
   103   50   52 1    
   104   52   53 1    
   105   52   54 1    
   106   52  175 1    
   107   53  176 1    
   108   53  177 1    
   109   53  178 1    
   110   54   55 am   BACKBONE|DICT|INTERRES
   111   54  179 1    
   112   55   56 2    
   113   55   57 1    
   114   57   58 1    
   115   57   59 1    
   116   57  180 1    
   117   58  181 1    
   118   58  182 1    
   119   58  183 1    
   120   59   60 am   BACKBONE|DICT|INTERRES
   121   59  184 1    
   122   60   61 2    
   123   60   62 1    
   124   62   63 1    
   125   62   64 1    
   126   62  185 1    
   127   63  186 1    
   128   63  187 1    
   129   63  188 1    
   130   64   65 am   BACKBONE|DICT|INTERRES
   131   64  189 1    
   132   65   66 2    
   133   67   68 2    
   134   67   69 am   BACKBONE|DICT|INTERRES
   135   69   70 1    
   136   69  190 1    
   137   70   71 1    
   138   70   72 1    
   139   70  191 1    
   140   71  192 1    
   141   71  193 1    
   142   71  194 1    
   143   72   73 2    
   144   72   74 am   BACKBONE|DICT|INTERRES
   145   74   75 1    
   146   74  195 1    
   147   75   76 1    
   148   75   77 1    
   149   75  196 1    
   150   76  197 1    
   151   76  198 1    
   152   76  199 1    
   153   77   78 2    
   154   77   79 am   BACKBONE|DICT|INTERRES
   155   79   80 1    
   156   79  200 1    
   157   80   81 1    
   158   80   82 1    
   159   80  201 1    
   160   81  202 1    
   161   81  203 1    
   162   81  204 1    
   163   82   83 2    
   164   82   84 am   BACKBONE|DICT|INTERRES
   165   84   85 1    
   166   84  205 1    
   167   85   86 1    
   168   85   87 1    
   169   85  206 1    
   170   86  207 1    
   171   86  208 1    
   172   86  209 1    
   173   87   88 2    
   174   87   89 am   BACKBONE|DICT|INTERRES
   175   89   90 1    
   176   89  210 1    
   177   90   91 1    
   178   90   92 1    
   179   90  211 1    
   180   91  212 1    
   181   91  213 1    
   182   91  214 1    
   183   92   93 2    
   184   92   94 am   BACKBONE|DICT|INTERRES
   185   94   95 1    
   186   94  215 1    
   187   95   96 1    
   188   95   97 1    
   189   95  216 1    
   190   96  217 1    
   191   96  218 1    
   192   96  219 1    
   193   97   98 2    
   194   97   99 am   BACKBONE|DICT|INTERRES
   195   99  100 1    
   196   99  220 1    
   197  100  101 1    
   198  100  102 1    
   199  100  221 1    
   200  101  222 1    
   201  101  223 1    
   202  101  224 1    
   203  102  103 2    
   204  102  104 am   BACKBONE|DICT|INTERRES
   205  104  105 1    
   206  104  225 1    
   207  105  106 1    
   208  105  107 1    
   209  105  226 1    
   210  106  227 1    
   211  106  228 1    
   212  106  229 1    
   213  107  108 2    
   214  107  109 am   BACKBONE|DICT|INTERRES
   215  109  110 1    
   216  109  230 1    
   217  110  111 1    
   218  110  112 1    
   219  110  231 1    
   220  111  232 1    
   221  111  233 1    
   222  111  234 1    
   223  112  113 2    
   224  112  114 am   BACKBONE|DICT|INTERRES
   225  114  115 1    
   226  114  235 1    
   227  115  116 1    
   228  115  117 1    
   229  115  236 1    
   230  116  237 1    
   231  116  238 1    
   232  116  239 1    
   233  117  118 2    
   234  117  119 am   BACKBONE|DICT|INTERRES
   235  119  120 1    
   236  119  240 1    
   237  120  121 1    
   238  120  124 1    
   239  120  241 1    
   240  121  122 am   BACKBONE|DICT|INTERRES
   241  121  123 2    
   242  122  242 1    
   243  122  243 1    
   244  124  125 1    
   245  124  244 1    
   246  124  245 1    
   247  125  126 1    
   248  126  246 1    
   249  126  247 1    
@<TRIPOS>SUBSTRUCTURE
     1 UNK         1 GROUP             0       ****    0 ROOT    
