@<TRIPOS>MOLECULE
3R540
247   249    1
SMALL
USER_CHARGES


@<TRIPOS>ATOM
      1 CA         -1.0745   -9.0489  -46.5109 C.3       0 UNK        -0.1800 
      2 C          -0.6711  -10.5005  -46.3025 C.2       0 UNK         0.5000 
      3 O           0.4252  -10.7678  -45.8112 O.2       0 UNK        -0.5000 
      4 N          -1.5573  -11.4432  -46.6477 N.am      1 UNK        -0.5000 
      5 CA         -1.3367  -12.8927  -46.5394 C.3       1 UNK         0.1400 
      6 C6         -2.4250  -13.7065  -47.2811 C.3       23 UNK        -0.0398 
      7 S7         -4.1255  -13.3747  -46.6989 S.3       23 UNK        -0.2404 
      8 C8         -5.1065  -14.0148  -48.0919 C.3       23 UNK        -0.0205 
      9 C9         -4.9094  -15.5105  -48.2907 C.ar      23 UNK        -0.0193 
     10 C10        -4.1984  -15.9898  -49.3949 C.ar      23 UNK        -0.1150 
     11 C11        -4.0344  -17.3642  -49.5897 C.ar      23 UNK        -0.0193 
     12 C12        -4.5671  -18.2614  -48.6599 C.ar      23 UNK        -0.1150 
     13 C13        -5.2699  -17.7929  -47.5465 C.ar      23 UNK        -0.0193 
     14 C14        -5.4478  -16.4174  -47.3736 C.ar      23 UNK        -0.1150 
     15 C15        -5.8441  -18.7721  -46.5344 C.3       23 UNK        -0.0205 
     16 S16        -4.9842  -18.6998  -44.9294 S.3       23 UNK        -0.2404 
     17 C17        -3.2682  -19.1531  -45.3703 C.3       23 UNK        -0.0398 
     18 CA         -3.0415  -20.6353  -45.7625 C.3       11 UNK         0.1400 
     19 N          -1.6623  -20.8512  -46.2217 N.am      11 UNK        -0.5000 
     20 C          -1.1397  -21.9969  -46.6826 C.2       10 UNK         0.5000 
     21 O          -1.7641  -23.0555  -46.7399 O.2       10 UNK        -0.5000 
     22 CA          0.3395  -21.9714  -47.1059 C.3       10 UNK         0.1400 
     23 CB          0.5366  -21.2232  -48.4345 C.3       10 UNK        -0.1800 
     24 N           1.1802  -21.3797  -46.0677 N.am      10 UNK        -0.5000 
     25 C           1.4134  -21.9519  -44.8775 C.2       9 UNK         0.5000 
     26 O           1.0304  -23.0823  -44.5768 O.2       9 UNK        -0.5000 
     27 CA          2.1716  -21.1129  -43.8338 C.3       9 UNK         0.1400 
     28 CB          3.6888  -21.2696  -44.0138 C.3       9 UNK        -0.1800 
     29 N           1.8145  -19.6941  -43.8737 N.am      9 UNK        -0.5000 
     30 C           0.5952  -19.2032  -43.6051 C.2       8 UNK         0.5000 
     31 O          -0.3595  -19.8961  -43.2495 O.2       8 UNK        -0.5000 
     32 CA          0.3984  -17.6915  -43.8264 C.3       8 UNK         0.1400 
     33 CB          0.9760  -16.8808  -42.6563 C.3       8 UNK        -0.1800 
     34 N           0.9913  -17.2331  -45.0827 N.am      8 UNK        -0.5000 
     35 C           0.5982  -17.6330  -46.2996 C.2       7 UNK         0.5000 
     36 O          -0.3295  -18.4149  -46.4947 O.2       7 UNK        -0.5000 
     37 CA          1.4125  -17.1274  -47.5004 C.3       7 UNK         0.1400 
     38 CB          0.9482  -15.7314  -47.9355 C.3       7 UNK        -0.1800 
     39 N           2.8454  -17.1109  -47.2107 N.am      7 UNK        -0.5000 
     40 C           3.5974  -18.2140  -47.0917 C.2       6 UNK         0.5000 
     41 O           3.1662  -19.3560  -47.2508 O.2       6 UNK        -0.5000 
     42 CA          5.0693  -18.0058  -46.6913 C.3       6 UNK         0.1400 
     43 CB          5.9222  -17.6570  -47.9201 C.3       6 UNK        -0.1800 
     44 N           5.2357  -16.9673  -45.6729 N.am      6 UNK        -0.5000 
     45 C           4.7892  -17.0697  -44.4134 C.2       5 UNK         0.5000 
     46 O           4.2075  -18.0601  -43.9730 O.2       5 UNK        -0.5000 
     47 CA          4.9893  -15.8454  -43.5020 C.3       5 UNK         0.1400 
     48 CB          6.3758  -15.8857  -42.8426 C.3       5 UNK        -0.1800 
     49 N           4.8095  -14.5557  -44.1755 N.am      5 UNK        -0.5000 
     50 C           3.6932  -14.1664  -44.8050 C.2       4 UNK         0.5000 
     51 O           2.7169  -14.8957  -44.9803 O.2       4 UNK        -0.5000 
     52 CA          3.6560  -12.7144  -45.3106 C.3       4 UNK         0.1400 
     53 CB          3.2167  -12.6416  -46.7817 C.3       4 UNK        -0.1800 
     54 N           2.7400  -11.9173  -44.5003 N.am      4 UNK        -0.5000 
     55 C           2.9517  -11.5584  -43.2269 C.2       3 UNK         0.5000 
     56 O           3.9932  -11.7929  -42.6126 O.2       3 UNK        -0.5000 
     57 CA          1.8049  -10.8202  -42.5190 C.3       3 UNK         0.1400 
     58 CB          1.8031   -9.3289  -42.8911 C.3       3 UNK        -0.1800 
     59 N           0.5068  -11.4056  -42.8526 N.am      3 UNK        -0.5000 
     60 C          -0.0660  -12.4163  -42.1834 C.2       2 UNK         0.5000 
     61 O           0.4373  -12.9527  -41.1958 O.2       2 UNK        -0.5000 
     62 CA         -1.4426  -12.9004  -42.6811 C.3       2 UNK         0.1400 
     63 CB         -2.5689  -12.2250  -41.8839 C.3       2 UNK        -0.1800 
     64 N          -1.6496  -12.6384  -44.1048 N.am      2 UNK        -0.5000 
     65 C          -1.1431  -13.3926  -45.0896 C.2       1 UNK         0.5000 
     66 O          -0.5296  -14.4383  -44.8926 O.2       1 UNK        -0.5000 
     67 C          -3.4798  -21.6162  -44.6511 C.2       11 UNK         0.5000 
     68 O          -4.6352  -22.0433  -44.6477 O.2       11 UNK        -0.5000 
     69 N          -2.5418  -22.0325  -43.7881 N.am      12 UNK        -0.5000 
     70 CA         -2.7345  -23.0757  -42.7743 C.3       12 UNK         0.1400 
     71 CB         -1.4579  -23.1897  -41.9281 C.3       12 UNK        -0.1800 
     72 C          -3.1364  -24.4581  -43.3428 C.2       12 UNK         0.5000 
     73 O          -3.7282  -25.2556  -42.6146 O.2       12 UNK        -0.5000 
     74 N          -2.8391  -24.7061  -44.6254 N.am      13 UNK        -0.5000 
     75 CA         -3.2386  -25.8846  -45.3955 C.3       13 UNK         0.1400 
     76 CB         -1.9660  -26.6086  -45.8702 C.3       13 UNK        -0.1800 
     77 C          -4.1485  -25.4894  -46.5801 C.2       13 UNK         0.5000 
     78 O          -4.1787  -26.1965  -47.5903 O.2       13 UNK        -0.5000 
     79 N          -4.8380  -24.3400  -46.4674 N.am      14 UNK        -0.5000 
     80 CA         -5.7171  -23.7136  -47.4688 C.3       14 UNK         0.1400 
     81 CB         -6.9839  -24.5668  -47.6833 C.3       14 UNK        -0.1800 
     82 C          -5.0092  -23.3810  -48.8014 C.2       14 UNK         0.5000 
     83 O          -5.6630  -23.2710  -49.8409 O.2       14 UNK        -0.5000 
     84 N          -3.6735  -23.2794  -48.7563 N.am      15 UNK        -0.5000 
     85 CA         -2.7404  -23.1378  -49.8723 C.3       15 UNK         0.1400 
     86 CB         -2.7978  -21.7053  -50.4312 C.3       15 UNK        -0.1800 
     87 C          -2.9014  -24.2326  -50.9431 C.2       15 UNK         0.5000 
     88 O          -2.7149  -23.9547  -52.1273 O.2       15 UNK        -0.5000 
     89 N          -3.2749  -25.4487  -50.5131 N.am      16 UNK        -0.5000 
     90 CA         -3.6183  -26.6010  -51.3544 C.3       16 UNK         0.1400 
     91 CB         -2.3657  -27.1363  -52.0807 C.3       16 UNK        -0.1800 
     92 C          -4.7974  -26.2995  -52.3083 C.2       16 UNK         0.5000 
     93 O          -4.7743  -26.7080  -53.4697 O.2       16 UNK        -0.5000 
     94 N          -5.7911  -25.5621  -51.7874 N.am      17 UNK        -0.5000 
     95 CA         -6.9411  -24.9828  -52.4879 C.3       17 UNK         0.1400 
     96 CB         -7.8391  -26.0727  -53.1114 C.3       17 UNK        -0.1800 
     97 C          -6.5054  -23.8881  -53.4838 C.2       17 UNK         0.5000 
     98 O          -6.9165  -23.9054  -54.6454 O.2       17 UNK        -0.5000 
     99 N          -5.6761  -22.9561  -52.9878 N.am      18 UNK        -0.5000 
    100 CA        -5.0946  -21.8096  -53.6991 C.3       18 UNK         0.1400 
    101 CB        -6.1822  -20.7641  -54.0187 C.3       18 UNK        -0.1800 
    102 C         -4.2613  -22.2204  -54.9334 C.2       18 UNK         0.5000 
    103 O         -4.4681  -21.6969  -56.0307 O.2       18 UNK        -0.5000 
    104 N         -3.3465  -23.1738  -54.7244 N.am      19 UNK        -0.5000 
    105 CA        -2.4222  -23.6972  -55.7292 C.3       19 UNK         0.1400 
    106 CB        -2.7273  -25.1840  -55.9659 C.3       19 UNK        -0.1800 
    107 C         -0.9558  -23.5078  -55.3039 C.2       19 UNK         0.5000 
    108 O         -0.1106  -23.2500  -56.1618 O.2       19 UNK        -0.5000 
    109 N         -0.6695  -23.6258  -53.9990 N.am      20 UNK        -0.5000 
    110 CA         0.6628  -23.4339  -53.4169 C.3       20 UNK         0.1400 
    111 CB         0.7305  -24.1744  -52.0717 C.3       20 UNK        -0.1800 
    112 C          1.0149  -21.9463  -53.2227 C.2       20 UNK         0.5000 
    113 O          2.1946  -21.6027  -53.1428 O.2       20 UNK        -0.5000 
    114 N         -0.0138  -21.0984  -53.1519 N.am      21 UNK        -0.5000 
    115 CA         0.0421  -19.6489  -53.0306 C.3       21 UNK         0.1400 
    116 CB         0.2646  -19.2525  -51.5581 C.3       21 UNK        -0.1800 
    117 C         -1.2860  -19.0952  -53.5677 C.2       21 UNK         0.5000 
    118 O         -2.2419  -19.8634  -53.7052 O.2       21 UNK        -0.5000 
    119 N         -1.3148  -17.7823  -53.8358 N.am      22 UNK        -0.5000 
    120 CA        -2.4537  -17.0055  -54.3637 C.3       22 UNK         0.1400 
    121 C         -3.1300  -17.6142  -55.6337 C.2       22 UNK         0.5000 
    122 N         -4.4492  -17.5672  -55.7686 N.am      22 UNK        -0.7600 
    123 O         -2.4438  -18.0689  -56.5465 O.2       22 UNK        -0.5000 
    124 C124       -3.4154  -16.4792  -53.2533 C.3       23 UNK        -0.0398 
    125 S125       -4.3128  -17.7611  -52.3089 S.3       23 UNK        -0.2404 
    126 C126       -3.2895  -17.8820  -50.8074 C.3       23 UNK        -0.0205 
    127 H127       -0.3790   -8.5627  -47.1948 H         1 UNK         0.0600 
    128 H128       -1.0506   -8.5139  -45.5615 H         1 UNK         0.0600 
    129 H129       -2.0786   -8.9627  -46.9265 H         1 UNK         0.0600 
    130 H130       -2.4544  -11.1694  -47.0237 H         1 UNK         0.3000 
    131 H131       -0.3920  -13.0930  -47.0482 H         1 UNK         0.0600 
    132 H132       -2.3740  -13.4811  -48.3471 H         1 UNK         0.0800 
    133 H133       -2.2299  -14.7775  -47.1965 H         1 UNK         0.0800 
    134 H134       -6.1619  -13.8151  -47.9014 H         1 UNK         0.0800 
    135 H135       -4.8510  -13.4638  -48.9984 H         1 UNK         0.0800 
    136 H136       -3.7852  -15.2962  -50.1135 H         1 UNK         0.1150 
    137 H137       -4.4378  -19.3247  -48.8060 H         1 UNK         0.1150 
    138 H138       -5.9937  -16.0512  -46.5153 H         1 UNK         0.1150 
    139 H139       -6.8983  -18.5405  -46.3763 H         1 UNK         0.0800 
    140 H140       -5.8149  -19.7933  -46.9167 H         1 UNK         0.0800 
    141 H141       -2.6322  -18.8951  -44.5227 H         1 UNK         0.0800 
    142 H142       -2.9479  -18.5007  -46.1831 H         1 UNK         0.0800 
    143 H143       -3.6728  -20.8481  -46.6268 H         1 UNK         0.0600 
    144 H144       -1.0730  -20.0194  -46.2319 H         1 UNK         0.3000 
    145 H145        0.6622  -23.0041  -47.2544 H         1 UNK         0.0600 
    146 H146        1.5868  -21.2115  -48.7266 H         1 UNK         0.0600 
    147 H147       -0.0132  -21.7031  -49.2432 H         1 UNK         0.0600 
    148 H148        0.1977  -20.1894  -48.3782 H         1 UNK         0.0600 
    149 H149        1.5782  -20.4685  -46.2618 H         1 UNK         0.3000 
    150 H150        1.9043  -21.4950  -42.8464 H         1 UNK         0.0600 
    151 H151        3.9807  -22.3201  -43.9839 H         1 UNK         0.0600 
    152 H152        4.2341  -20.7585  -43.2203 H         1 UNK         0.0600 
    153 H153        4.0245  -20.8610  -44.9676 H         1 UNK         0.0600 
    154 H154        2.5621  -19.0476  -44.1114 H         1 UNK         0.3000 
    155 H155       -0.6740  -17.4940  -43.8767 H         1 UNK         0.0600 
    156 H156        0.5071  -17.1675  -41.7145 H         1 UNK         0.0600 
    157 H157        0.8044  -15.8127  -42.7946 H         1 UNK         0.0600 
    158 H158        2.0495  -17.0346  -42.5499 H         1 UNK         0.0600 
    159 H159        1.7111  -16.5180  -45.0162 H         1 UNK         0.3000 
    160 H160        1.2406  -17.8122  -48.3339 H         1 UNK         0.0600 
    161 H161        1.0653  -15.0075  -47.1306 H         1 UNK         0.0600 
    162 H162       -0.1055  -15.7438  -48.2163 H         1 UNK         0.0600 
    163 H163        1.5125  -15.3745  -48.7969 H         1 UNK         0.0600 
    164 H164        3.2536  -16.2154  -46.9865 H         1 UNK         0.3000 
    165 H165        5.4367  -18.9477  -46.2780 H         1 UNK         0.0600 
    166 H166        6.9785  -17.5871  -47.6598 H         1 UNK         0.0600 
    167 H167        5.8284  -18.4243  -48.6898 H         1 UNK         0.0600 
    168 H168        5.6218  -16.7075  -48.3647 H         1 UNK         0.0600 
    169 H169        5.6993  -16.1157  -45.9532 H         1 UNK         0.3000 
    170 H170        4.2385  -15.9034  -42.7116 H         1 UNK         0.0600 
    171 H171        6.5303  -16.8279  -42.3148 H         1 UNK         0.0600 
    172 H172        7.1751  -15.7861  -43.5780 H         1 UNK         0.0600 
    173 H173        6.4888  -15.0842  -42.1122 H         1 UNK         0.0600 
    174 H174        5.5532  -13.8833  -44.0543 H         1 UNK         0.3000 
    175 H175        4.6566  -12.2836  -45.2350 H         1 UNK         0.0600 
    176 H176        2.1827  -12.9616  -46.9092 H         1 UNK         0.0600 
    177 H177        3.2943  -11.6233  -47.1628 H         1 UNK         0.0600 
    178 H178        3.8412  -13.2756  -47.4122 H         1 UNK         0.0600 
    179 H179        1.8620  -11.6548  -44.9394 H         1 UNK         0.3000 
    180 H180        1.9717  -10.8938  -41.4421 H         1 UNK         0.0600 
    181 H181        1.6461   -9.1755  -43.9593 H         1 UNK         0.0600 
    182 H182        2.7534   -8.8618  -42.6296 H         1 UNK         0.0600 
    183 H183        1.0192   -8.7914  -42.3573 H         1 UNK         0.0600 
    184 H184        0.0676  -11.0691  -43.6991 H         1 UNK         0.3000 
    185 H185       -1.5003  -13.9769  -42.5050 H         1 UNK         0.0600 
    186 H186       -2.4632  -12.4213  -40.8161 H         1 UNK         0.0600 
    187 H187       -2.5671  -11.1428  -42.0207 H         1 UNK         0.0600 
    188 H188       -3.5463  -12.6008  -42.1872 H         1 UNK         0.0600 
    189 H189       -2.1664  -11.8073  -44.3517 H         1 UNK         0.3000 
    190 H190       -1.6240  -21.6048  -43.8325 H         1 UNK         0.3000 
    191 H191       -3.5461  -22.7473  -42.1222 H         1 UNK         0.0600 
    192 H192       -0.6116  -23.5313  -42.5238 H         1 UNK         0.0600 
    193 H193       -1.1902  -22.2309  -41.4832 H         1 UNK         0.0600 
    194 H194       -1.5922  -23.9011  -41.1123 H         1 UNK         0.0600 
    195 H195       -2.3546  -23.9911  -45.1614 H         1 UNK         0.3000 
    196 H196       -3.8143  -26.5730  -44.7744 H         1 UNK         0.0600 
    197 H197       -1.3303  -26.8790  -45.0269 H         1 UNK         0.0600 
    198 H198       -1.3788  -25.9836  -46.5445 H         1 UNK         0.0600 
    199 H199       -2.2087  -27.5305  -46.3999 H         1 UNK         0.0600 
    200 H200       -4.7255  -23.8018  -45.6139 H         1 UNK         0.3000 
    201 H201       -6.0278  -22.7569  -47.0468 H         1 UNK         0.0600 
    202 H202       -7.7067  -24.0461  -48.3126 H         1 UNK         0.0600 
    203 H203       -7.4782  -24.7822  -46.7361 H         1 UNK         0.0600 
    204 H204       -6.7558  -25.5173  -48.1665 H         1 UNK         0.0600 
    205 H205       -3.2200  -23.3826  -47.8522 H         1 UNK         0.3000 
    206 H206       -1.7431  -23.2935  -49.4624 H         1 UNK         0.0600 
    207 H207       -2.5225  -20.9866  -49.6598 H         1 UNK         0.0600 
    208 H208       -3.7957  -21.4471  -50.7834 H         1 UNK         0.0600 
    209 H209       -2.1057  -21.5688  -51.2614 H         1 UNK         0.0600 
    210 H210       -3.4284  -25.5790  -49.5185 H         1 UNK         0.3000 
    211 H211       -3.9669  -27.3824  -50.6778 H         1 UNK         0.0600 
    212 H212       -1.5683  -27.3622  -51.3728 H         1 UNK         0.0600 
    213 H213       -2.5899  -28.0571  -52.6201 H         1 UNK         0.0600 
    214 H214       -1.9752  -26.4212  -52.8044 H         1 UNK         0.0600 
    215 H215       -5.6725  -25.2292  -50.8390 H         1 UNK         0.3000 
    216 H216       -7.5339  -24.4769  -51.7242 H         1 UNK         0.0600 
    217 H217       -8.7606  -25.6380  -53.5002 H         1 UNK         0.0600 
    218 H218       -7.3494  -26.5848  -53.9398 H         1 UNK         0.0600 
    219 H219       -8.1208  -26.8222  -52.3719 H         1 UNK         0.0600 
    220 H220       -5.4164  -23.0418  -52.0120 H         1 UNK         0.3000 
    221 H221       -4.3937  -21.3409  -53.0092 H         1 UNK         0.0600 
    222 H222       -6.9183  -21.1450  -54.7271 H         1 UNK         0.0600 
    223 H223       -6.7091  -20.4563  -53.1157 H         1 UNK         0.0600 
    224 H224       -5.7393  -19.8678  -54.4542 H         1 UNK         0.0600 
    225 H225       -3.2449  -23.5391  -53.7798 H         1 UNK         0.3000 
    226 H226       -2.5510  -23.1702  -56.6766 H         1 UNK         0.0600 
    227 H227       -3.7515  -25.3241  -56.3122 H         1 UNK         0.0600 
    228 H228       -2.0649  -25.6046  -56.7235 H         1 UNK         0.0600 
    229 H229       -2.6024  -25.7707  -55.0556 H         1 UNK         0.0600 
    230 H230       -1.4192  -23.8302  -53.3424 H         1 UNK         0.3000 
    231 H231        1.4072  -23.8714  -54.0854 H         1 UNK         0.0600 
    232 H232        1.7387  -24.1357  -51.6575 H         1 UNK         0.0600 
    233 H233        0.4641  -25.2257  -52.1830 H         1 UNK         0.0600 
    234 H234        0.0596  -23.7328  -51.3350 H         1 UNK         0.0600 
    235 H235       -0.9526  -21.4496  -53.2983 H         1 UNK         0.3000 
    236 H236        0.8563  -19.2654  -53.6487 H         1 UNK         0.0600 
    237 H237        1.1995  -19.6608  -51.1739 H         1 UNK         0.0600 
    238 H238        0.3152  -18.1693  -51.4444 H         1 UNK         0.0600 
    239 H239       -0.5424  -19.6116  -50.9193 H         1 UNK         0.0600 
    240 H240       -0.4640  -17.2540  -53.7090 H         1 UNK         0.3000 
    241 H241       -1.9797  -16.1089  -54.7649 H         1 UNK         0.0600 
    242 H242       -4.8681  -17.9452  -56.6035 H         1 UNK         0.3800 
    243 H243       -5.0377  -17.2218  -55.0273 H         1 UNK         0.3800 
    244 H244       -4.1536  -15.8032  -53.6867 H         1 UNK         0.0800 
    245 H245       -2.8535  -15.8532  -52.5598 H         1 UNK         0.0800 
    246 H246       -3.0150  -18.9261  -50.6699 H         1 UNK         0.0800 
    247 H247       -2.3484  -17.3434  -50.9215 H         1 UNK         0.0800 
@<TRIPOS>BOND
     1    1    2 1    
     2    1  127 1    
     3    1  128 1    
     4    1  129 1    
     5    2    3 2    
     6    2    4 am   BACKBONE|DICT|INTERRES
     7    4    5 1    
     8    4  130 1    
     9    5    6 1    
    10    5   65 1    
    11    5  131 1    
    12    6    7 1    
    13    6  132 1    
    14    6  133 1    
    15    7    8 1    
    16    8    9 1    
    17    8  134 1    
    18    8  135 1    
    19    9   10 ar   
    20    9   14 ar   
    21   10   11 ar   
    22   10  136 1    
    23   11   12 ar   
    24   11  126 1    
    25   12   13 ar   
    26   12  137 1    
    27   13   14 ar   
    28   13   15 1    
    29   14  138 1    
    30   15   16 1    
    31   15  139 1    
    32   15  140 1    
    33   16   17 1    
    34   17   18 1    
    35   17  141 1    
    36   17  142 1    
    37   18   19 1    
    38   18   67 1    
    39   18  143 1    
    40   19   20 am   BACKBONE|DICT|INTERRES
    41   19  144 1    
    42   20   21 2    
    43   20   22 1    
    44   22   23 1    
    45   22   24 1    
    46   22  145 1    
    47   23  146 1    
    48   23  147 1    
    49   23  148 1    
    50   24   25 am   BACKBONE|DICT|INTERRES
    51   24  149 1    
    52   25   26 2    
    53   25   27 1    
    54   27   28 1    
    55   27   29 1    
    56   27  150 1    
    57   28  151 1    
    58   28  152 1    
    59   28  153 1    
    60   29   30 am   BACKBONE|DICT|INTERRES
    61   29  154 1    
    62   30   31 2    
    63   30   32 1    
    64   32   33 1    
    65   32   34 1    
    66   32  155 1    
    67   33  156 1    
    68   33  157 1    
    69   33  158 1    
    70   34   35 am   BACKBONE|DICT|INTERRES
    71   34  159 1    
    72   35   36 2    
    73   35   37 1    
    74   37   38 1    
    75   37   39 1    
    76   37  160 1    
    77   38  161 1    
    78   38  162 1    
    79   38  163 1    
    80   39   40 am   BACKBONE|DICT|INTERRES
    81   39  164 1    
    82   40   41 2    
    83   40   42 1    
    84   42   43 1    
    85   42   44 1    
    86   42  165 1    
    87   43  166 1    
    88   43  167 1    
    89   43  168 1    
    90   44   45 am   BACKBONE|DICT|INTERRES
    91   44  169 1    
    92   45   46 2    
    93   45   47 1    
    94   47   48 1    
    95   47   49 1    
    96   47  170 1    
    97   48  171 1    
    98   48  172 1    
    99   48  173 1    
   100   49   50 am   BACKBONE|DICT|INTERRES
   101   49  174 1    
   102   50   51 2    
   103   50   52 1    
   104   52   53 1    
   105   52   54 1    
   106   52  175 1    
   107   53  176 1    
   108   53  177 1    
   109   53  178 1    
   110   54   55 am   BACKBONE|DICT|INTERRES
   111   54  179 1    
   112   55   56 2    
   113   55   57 1    
   114   57   58 1    
   115   57   59 1    
   116   57  180 1    
   117   58  181 1    
   118   58  182 1    
   119   58  183 1    
   120   59   60 am   BACKBONE|DICT|INTERRES
   121   59  184 1    
   122   60   61 2    
   123   60   62 1    
   124   62   63 1    
   125   62   64 1    
   126   62  185 1    
   127   63  186 1    
   128   63  187 1    
   129   63  188 1    
   130   64   65 am   BACKBONE|DICT|INTERRES
   131   64  189 1    
   132   65   66 2    
   133   67   68 2    
   134   67   69 am   BACKBONE|DICT|INTERRES
   135   69   70 1    
   136   69  190 1    
   137   70   71 1    
   138   70   72 1    
   139   70  191 1    
   140   71  192 1    
   141   71  193 1    
   142   71  194 1    
   143   72   73 2    
   144   72   74 am   BACKBONE|DICT|INTERRES
   145   74   75 1    
   146   74  195 1    
   147   75   76 1    
   148   75   77 1    
   149   75  196 1    
   150   76  197 1    
   151   76  198 1    
   152   76  199 1    
   153   77   78 2    
   154   77   79 am   BACKBONE|DICT|INTERRES
   155   79   80 1    
   156   79  200 1    
   157   80   81 1    
   158   80   82 1    
   159   80  201 1    
   160   81  202 1    
   161   81  203 1    
   162   81  204 1    
   163   82   83 2    
   164   82   84 am   BACKBONE|DICT|INTERRES
   165   84   85 1    
   166   84  205 1    
   167   85   86 1    
   168   85   87 1    
   169   85  206 1    
   170   86  207 1    
   171   86  208 1    
   172   86  209 1    
   173   87   88 2    
   174   87   89 am   BACKBONE|DICT|INTERRES
   175   89   90 1    
   176   89  210 1    
   177   90   91 1    
   178   90   92 1    
   179   90  211 1    
   180   91  212 1    
   181   91  213 1    
   182   91  214 1    
   183   92   93 2    
   184   92   94 am   BACKBONE|DICT|INTERRES
   185   94   95 1    
   186   94  215 1    
   187   95   96 1    
   188   95   97 1    
   189   95  216 1    
   190   96  217 1    
   191   96  218 1    
   192   96  219 1    
   193   97   98 2    
   194   97   99 am   BACKBONE|DICT|INTERRES
   195   99  100 1    
   196   99  220 1    
   197  100  101 1    
   198  100  102 1    
   199  100  221 1    
   200  101  222 1    
   201  101  223 1    
   202  101  224 1    
   203  102  103 2    
   204  102  104 am   BACKBONE|DICT|INTERRES
   205  104  105 1    
   206  104  225 1    
   207  105  106 1    
   208  105  107 1    
   209  105  226 1    
   210  106  227 1    
   211  106  228 1    
   212  106  229 1    
   213  107  108 2    
   214  107  109 am   BACKBONE|DICT|INTERRES
   215  109  110 1    
   216  109  230 1    
   217  110  111 1    
   218  110  112 1    
   219  110  231 1    
   220  111  232 1    
   221  111  233 1    
   222  111  234 1    
   223  112  113 2    
   224  112  114 am   BACKBONE|DICT|INTERRES
   225  114  115 1    
   226  114  235 1    
   227  115  116 1    
   228  115  117 1    
   229  115  236 1    
   230  116  237 1    
   231  116  238 1    
   232  116  239 1    
   233  117  118 2    
   234  117  119 am   BACKBONE|DICT|INTERRES
   235  119  120 1    
   236  119  240 1    
   237  120  121 1    
   238  120  124 1    
   239  120  241 1    
   240  121  122 am   BACKBONE|DICT|INTERRES
   241  121  123 2    
   242  122  242 1    
   243  122  243 1    
   244  124  125 1    
   245  124  244 1    
   246  124  245 1    
   247  125  126 1    
   248  126  246 1    
   249  126  247 1    
@<TRIPOS>SUBSTRUCTURE
     1 UNK         1 GROUP             0       ****    0 ROOT    
