@<TRIPOS>MOLECULE
3R540
247   249    1
SMALL
USER_CHARGES


@<TRIPOS>ATOM
      1 CA         -5.6687  -13.0264  -46.6982 C.3       0 UNK        -0.1800 
      2 C          -4.2104  -13.3273  -46.3856 C.2       0 UNK         0.5000 
      3 O          -3.5388  -12.5159  -45.7495 O.2       0 UNK        -0.5000 
      4 N          -3.7199  -14.4986  -46.8131 N.am      1 UNK        -0.5000 
      5 CA         -2.3267  -14.9522  -46.6615 C.3       1 UNK         0.1400 
      6 C6         -2.0493  -16.2520  -47.4597 C.3       23 UNK        -0.0398 
      7 S7         -2.4538  -16.0512  -49.2296 S.3       23 UNK        -0.2404 
      8 C8         -0.8180  -16.0551  -50.0280 C.3       23 UNK        -0.0205 
      9 C9         -0.5577  -17.3778  -50.7309 C.ar      23 UNK        -0.0193 
     10 C10        -1.1845  -17.6448  -51.9527 C.ar      23 UNK        -0.1150 
     11 C11        -0.9721  -18.8587  -52.6197 C.ar      23 UNK        -0.0193 
     12 C12        -0.1081  -19.7945  -52.0475 C.ar      23 UNK        -0.1150 
     13 C13         0.5204  -19.5452  -50.8256 C.ar      23 UNK        -0.0193 
     14 C14         0.2953  -18.3319  -50.1691 C.ar      23 UNK        -0.1150 
     15 C15         1.4299  -20.6034  -50.2251 C.3       23 UNK        -0.0205 
     16 S16         0.4752  -21.8323  -49.2841 S.3       23 UNK        -0.2404 
     17 C17         0.4646  -21.0589  -47.6370 C.3       23 UNK        -0.0398 
     18 CA         -0.2884  -21.9238  -46.5961 C.3       11 UNK         0.1400 
     19 N           0.3484  -21.9004  -45.2780 N.am      11 UNK        -0.5000 
     20 C           0.0414  -22.7284  -44.2689 C.2       10 UNK         0.5000 
     21 O          -0.7643  -23.6531  -44.3669 O.2       10 UNK        -0.5000 
     22 CA          0.7028  -22.4398  -42.9071 C.3       10 UNK         0.1400 
     23 CB          2.1016  -23.0678  -42.8268 C.3       10 UNK        -0.1800 
     24 N           0.7868  -21.0055  -42.6259 N.am      10 UNK        -0.5000 
     25 C          -0.2781  -20.2055  -42.4731 C.2       9 UNK         0.5000 
     26 O          -1.4394  -20.6134  -42.4615 O.2       9 UNK        -0.5000 
     27 CA         -0.0053  -18.6947  -42.3826 C.3       9 UNK         0.1400 
     28 CB          0.3166  -18.2723  -40.9415 C.3       9 UNK        -0.1800 
     29 N           1.0741  -18.2791  -43.2780 N.am      9 UNK        -0.5000 
     30 C           0.9738  -18.2413  -44.6141 C.2       8 UNK         0.5000 
     31 O          -0.0544  -18.5202  -45.2313 O.2       8 UNK        -0.5000 
     32 CA          2.2554  -17.9048  -45.3977 C.3       8 UNK         0.1400 
     33 CB          2.4485  -16.3911  -45.5172 C.3       8 UNK        -0.1800 
     34 N           3.4502  -18.5005  -44.7990 N.am      8 UNK        -0.5000 
     35 C           3.7091  -19.8147  -44.8146 C.2       7 UNK         0.5000 
     36 O           2.9719  -20.6443  -45.3427 O.2       7 UNK        -0.5000 
     37 CA          4.9766  -20.2958  -44.0877 C.3       7 UNK         0.1400 
     38 CB          6.1846  -20.2635  -45.0354 C.3       7 UNK        -0.1800 
     39 N           5.2931  -19.5386  -42.8766 N.am      7 UNK        -0.5000 
     40 C           4.4892  -19.3957  -41.8143 C.2       6 UNK         0.5000 
     41 O           3.3459  -19.8514  -41.7581 O.2       6 UNK        -0.5000 
     42 CA          5.0477  -18.6208  -40.6050 C.3       6 UNK         0.1400 
     43 CB          6.5600  -18.3121  -40.6936 C.3       6 UNK        -0.1800 
     44 N           4.3000  -17.3917  -40.3278 N.am      6 UNK        -0.5000 
     45 C           4.1063  -16.3499  -41.1494 C.2       5 UNK         0.5000 
     46 O           4.4452  -16.3281  -42.3362 O.2       5 UNK        -0.5000 
     47 CA          3.4735  -15.1095  -40.4877 C.3       5 UNK         0.1400 
     48 CB          4.4296  -14.5037  -39.4444 C.3       5 UNK        -0.1800 
     49 N           3.1318  -14.0594  -41.4458 N.am      5 UNK        -0.5000 
     50 C           2.0304  -14.0482  -42.2013 C.2       4 UNK         0.5000 
     51 O           1.1996  -14.9584  -42.2117 O.2       4 UNK        -0.5000 
     52 CA          1.8211  -12.7972  -43.0724 C.3       4 UNK         0.1400 
     53 CB          2.3868  -12.9885  -44.4867 C.3       4 UNK        -0.1800 
     54 N           0.3939  -12.5146  -43.1682 N.am      4 UNK        -0.5000 
     55 C          -0.2634  -11.6271  -42.4100 C.2       3 UNK         0.5000 
     56 O           0.2918  -10.8292  -41.6532 O.2       3 UNK        -0.5000 
     57 CA         -1.8041  -11.6391  -42.4914 C.3       3 UNK         0.1400 
     58 CB         -2.3000  -10.5443  -43.4474 C.3       3 UNK        -0.1800 
     59 N          -2.3404  -12.9349  -42.9151 N.am      3 UNK        -0.5000 
     60 C          -2.2782  -14.0535  -42.1750 C.2       2 UNK         0.5000 
     61 O          -1.8967  -14.0650  -41.0039 O.2       2 UNK        -0.5000 
     62 CA         -2.7020  -15.3835  -42.8334 C.3       2 UNK         0.1400 
     63 CB         -4.0072  -15.8998  -42.2067 C.3       2 UNK        -0.1800 
     64 N          -2.8702  -15.3181  -44.2872 N.am      2 UNK        -0.5000 
     65 C          -1.8962  -15.1003  -45.1845 C.2       1 UNK         0.5000 
     66 O          -0.7136  -14.9525  -44.8826 O.2       1 UNK        -0.5000 
     67 C          -1.7789  -21.5407  -46.5128 C.2       11 UNK         0.5000 
     68 O          -2.6097  -22.2193  -47.1128 O.2       11 UNK        -0.5000 
     69 N          -2.1060  -20.4996  -45.7324 N.am      12 UNK        -0.5000 
     70 CA         -3.4779  -20.0580  -45.4650 C.3       12 UNK         0.1400 
     71 CB         -3.4576  -18.7800  -44.6157 C.3       12 UNK        -0.1800 
     72 C          -4.3315  -21.1441  -44.7843 C.2       12 UNK         0.5000 
     73 O          -5.4768  -21.3547  -45.1836 O.2       12 UNK        -0.5000 
     74 N          -3.7380  -21.8591  -43.8175 N.am      13 UNK        -0.5000 
     75 CA         -4.3327  -23.0203  -43.1485 C.3       13 UNK         0.1400 
     76 CB         -3.4474  -23.4293  -41.9619 C.3       13 UNK        -0.1800 
     77 C          -4.5725  -24.2178  -44.0933 C.2       13 UNK         0.5000 
     78 O          -5.4862  -25.0065  -43.8514 O.2       13 UNK        -0.5000 
     79 N          -3.7826  -24.3059  -45.1713 N.am      14 UNK        -0.5000 
     80 CA         -3.9260  -25.2643  -46.2684 C.3       14 UNK         0.1400 
     81 CB         -2.5240  -25.6456  -46.7776 C.3       14 UNK        -0.1800 
     82 C          -4.8158  -24.7254  -47.4120 C.2       14 UNK         0.5000 
     83 O          -4.7787  -25.2770  -48.5128 O.2       14 UNK        -0.5000 
     84 N          -5.5812  -23.6522  -47.1542 N.am      15 UNK        -0.5000 
     85 CA         -6.5065  -22.9725  -48.0695 C.3       15 UNK         0.1400 
     86 CB         -7.6947  -23.8905  -48.4254 C.3       15 UNK        -0.1800 
     87 C          -5.8070  -22.3779  -49.3104 C.2       15 UNK         0.5000 
     88 O          -6.3658  -22.4040  -50.4074 O.2       15 UNK        -0.5000 
     89 N          -4.5832  -21.8713  -49.1030 N.am      16 UNK        -0.5000 
     90 CA         -3.6431  -21.3308  -50.0904 C.3       16 UNK         0.1400 
     91 CB         -4.2584  -20.1647  -50.8924 C.3       16 UNK        -0.1800 
     92 C          -3.0068  -22.4089  -50.9911 C.2       16 UNK         0.5000 
     93 O          -2.3398  -22.0521  -51.9599 O.2       16 UNK        -0.5000 
     94 N          -3.1885  -23.6970  -50.6513 N.am      17 UNK        -0.5000 
     95 CA         -2.6533  -24.8804  -51.3299 C.3       17 UNK         0.1400 
     96 CB         -1.1389  -25.0081  -51.0528 C.3       17 UNK        -0.1800 
     97 C          -3.0224  -24.8933  -52.8285 C.2       17 UNK         0.5000 
     98 O          -4.1774  -25.1613  -53.1658 O.2       17 UNK        -0.5000 
     99 N          -2.0596  -24.5582  -53.6969 N.am      18 UNK        -0.5000 
    100 CA        -2.2523  -24.2969  -55.1216 C.3       18 UNK         0.1400 
    101 CB        -0.8998  -24.4499  -55.8403 C.3       18 UNK        -0.1800 
    102 C         -2.8810  -22.9041  -55.3382 C.2       18 UNK         0.5000 
    103 O         -2.2308  -22.0006  -55.8657 O.2       18 UNK        -0.5000 
    104 N         -4.1455  -22.7548  -54.9228 N.am      19 UNK        -0.5000 
    105 CA        -4.9198  -21.5083  -54.9338 C.3       19 UNK         0.1400 
    106 CB        -6.2873  -21.7765  -54.2880 C.3       19 UNK        -0.1800 
    107 C         -5.0940  -20.8601  -56.3241 C.2       19 UNK         0.5000 
    108 O         -5.3555  -19.6605  -56.4042 O.2       19 UNK        -0.5000 
    109 N         -4.9465  -21.6573  -57.3895 N.am      20 UNK        -0.5000 
    110 CA        -4.9915  -21.2108  -58.7803 C.3       20 UNK         0.1400 
    111 CB        -5.4168  -22.3993  -59.6576 C.3       20 UNK        -0.1800 
    112 C         -3.6551  -20.6259  -59.2839 C.2       20 UNK         0.5000 
    113 O         -3.6557  -19.9705  -60.3270 O.2       20 UNK        -0.5000 
    114 N         -2.5400  -20.8902  -58.5838 N.am      21 UNK        -0.5000 
    115 CA        -1.2019  -20.4558  -58.9956 C.3       21 UNK         0.1400 
    116 CB        -0.1391  -21.3446  -58.3302 C.3       21 UNK        -0.1800 
    117 C         -0.9410  -18.9722  -58.6833 C.2       21 UNK         0.5000 
    118 O         -0.3026  -18.2857  -59.4828 O.2       21 UNK        -0.5000 
    119 N         -1.4361  -18.5090  -57.5310 N.am      22 UNK        -0.5000 
    120 CA        -1.4031  -17.1037  -57.1028 C.3       22 UNK         0.1400 
    121 C         -2.5189  -16.2443  -57.7646 C.2       22 UNK         0.5000 
    122 N         -2.3667  -14.9263  -57.7711 N.am      22 UNK        -0.7600 
    123 O         -3.5248  -16.7468  -58.2611 O.2       22 UNK        -0.5000 
    124 C124       -1.3915  -16.9723  -55.5553 C.3       23 UNK        -0.0398 
    125 S125       -2.6895  -17.9412  -54.7091 S.3       23 UNK        -0.2404 
    126 C126       -1.6805  -19.2435  -53.9209 C.3       23 UNK        -0.0205 
    127 H127       -6.2276  -12.8808  -45.7738 H         1 UNK         0.0600 
    128 H128       -6.1389  -13.8356  -47.2573 H         1 UNK         0.0600 
    129 H129       -5.7438  -12.1146  -47.2906 H         1 UNK         0.0600 
    130 H130       -4.3164  -15.1148  -47.3471 H         1 UNK         0.3000 
    131 H131       -1.6940  -14.1679  -47.0829 H         1 UNK         0.0600 
    132 H132       -2.6548  -17.0741  -47.0781 H         1 UNK         0.0800 
    133 H133       -1.0101  -16.5669  -47.3472 H         1 UNK         0.0800 
    134 H134       -0.0303  -15.8305  -49.3075 H         1 UNK         0.0800 
    135 H135       -0.7886  -15.2496  -50.7632 H         1 UNK         0.0800 
    136 H136       -1.8556  -16.9032  -52.3595 H         1 UNK         0.1150 
    137 H137        0.0499  -20.7432  -52.5419 H         1 UNK         0.1150 
    138 H138        0.7766  -18.1339  -49.2219 H         1 UNK         0.1150 
    139 H139        1.9675  -21.1167  -51.0238 H         1 UNK         0.0800 
    140 H140        2.1928  -20.1462  -49.5931 H         1 UNK         0.0800 
    141 H141        0.0654  -20.0447  -47.6995 H         1 UNK         0.0800 
    142 H142        1.5097  -20.9485  -47.3534 H         1 UNK         0.0800 
    143 H143       -0.2474  -22.9660  -46.9210 H         1 UNK         0.0600 
    144 H144        1.0837  -21.2152  -45.1387 H         1 UNK         0.3000 
    145 H145        0.0820  -22.8947  -42.1325 H         1 UNK         0.0600 
    146 H146        2.5656  -22.8772  -41.8589 H         1 UNK         0.0600 
    147 H147        2.0490  -24.1494  -42.9567 H         1 UNK         0.0600 
    148 H148        2.7647  -22.6787  -43.5985 H         1 UNK         0.0600 
    149 H149        1.7147  -20.5979  -42.5581 H         1 UNK         0.3000 
    150 H150       -0.9167  -18.1807  -42.6906 H         1 UNK         0.0600 
    151 H151       -0.4885  -18.5589  -40.2639 H         1 UNK         0.0600 
    152 H152        0.4334  -17.1914  -40.8655 H         1 UNK         0.0600 
    153 H153        1.2332  -18.7353  -40.5761 H         1 UNK         0.0600 
    154 H154        1.9674  -18.0786  -42.8521 H         1 UNK         0.3000 
    155 H155        2.1405  -18.3080  -46.4063 H         1 UNK         0.0600 
    156 H156        2.5821  -15.9330  -44.5373 H         1 UNK         0.0600 
    157 H157        1.5818  -15.9267  -45.9885 H         1 UNK         0.0600 
    158 H158        3.3200  -16.1476  -46.1247 H         1 UNK         0.0600 
    159 H159        4.0788  -17.8810  -44.3044 H         1 UNK         0.3000 
    160 H160        4.8082  -21.3319  -43.7885 H         1 UNK         0.0600 
    161 H161        6.4298  -19.2454  -45.3405 H         1 UNK         0.0600 
    162 H162        5.9863  -20.8391  -45.9407 H         1 UNK         0.0600 
    163 H163        7.0678  -20.6958  -44.5647 H         1 UNK         0.0600 
    164 H164        6.2063  -19.1096  -42.8412 H         1 UNK         0.3000 
    165 H165        4.8989  -19.2718  -39.7423 H         1 UNK         0.0600 
    166 H166        6.7976  -17.6373  -41.5168 H         1 UNK         0.0600 
    167 H167        6.9127  -17.8422  -39.7753 H         1 UNK         0.0600 
    168 H168        7.1435  -19.2241  -40.8267 H         1 UNK         0.0600 
    169 H169        3.9472  -17.3184  -39.3841 H         1 UNK         0.3000 
    170 H170        2.5619  -15.4288  -39.9776 H         1 UNK         0.0600 
    171 H171        5.3732  -14.1947  -39.8961 H         1 UNK         0.0600 
    172 H172        3.9868  -13.6308  -38.9640 H         1 UNK         0.0600 
    173 H173        4.6640  -15.2169  -38.6534 H         1 UNK         0.0600 
    174 H174        3.7925  -13.3008  -41.5287 H         1 UNK         0.3000 
    175 H175        2.3455  -11.9590  -42.6087 H         1 UNK         0.0600 
    176 H176        3.4163  -13.3480  -44.4584 H         1 UNK         0.0600 
    177 H177        2.3844  -12.0473  -45.0365 H         1 UNK         0.0600 
    178 H178        1.7979  -13.7032  -45.0600 H         1 UNK         0.0600 
    179 H179       -0.1428  -13.1962  -43.6928 H         1 UNK         0.3000 
    180 H180       -2.1908  -11.4204  -41.4939 H         1 UNK         0.0600 
    181 H181       -3.3890  -10.5226  -43.4938 H         1 UNK         0.0600 
    182 H182       -1.9237  -10.6953  -44.4599 H         1 UNK         0.0600 
    183 H183       -1.9682   -9.5589  -43.1179 H         1 UNK         0.0600 
    184 H184       -2.6934  -12.9874  -43.8643 H         1 UNK         0.3000 
    185 H185       -1.9089  -16.1021  -42.6225 H         1 UNK         0.0600 
    186 H186       -4.2697  -16.8864  -42.5857 H         1 UNK         0.0600 
    187 H187       -3.9138  -15.9890  -41.1235 H         1 UNK         0.0600 
    188 H188       -4.8421  -15.2281  -42.4093 H         1 UNK         0.0600 
    189 H189       -3.8169  -15.3854  -44.6305 H         1 UNK         0.3000 
    190 H190       -1.3613  -19.9489  -45.3149 H         1 UNK         0.3000 
    191 H191       -3.9352  -19.8212  -46.4280 H         1 UNK         0.0600 
    192 H192       -4.4446  -18.3173  -44.5938 H         1 UNK         0.0600 
    193 H193       -2.7588  -18.0477  -45.0135 H         1 UNK         0.0600 
    194 H194       -3.1679  -18.9794  -43.5845 H         1 UNK         0.0600 
    195 H195       -2.8105  -21.5807  -43.5096 H         1 UNK         0.3000 
    196 H196       -5.3048  -22.7143  -42.7564 H         1 UNK         0.0600 
    197 H197       -2.4562  -23.7438  -42.2881 H         1 UNK         0.0600 
    198 H198       -3.3218  -22.6042  -41.2605 H         1 UNK         0.0600 
    199 H199       -3.8907  -24.2602  -41.4119 H         1 UNK         0.0600 
    200 H200       -3.0543  -23.6128  -45.2884 H         1 UNK         0.3000 
    201 H201       -4.4028  -26.1722  -45.8943 H         1 UNK         0.0600 
    202 H202       -2.5779  -26.4448  -47.5176 H         1 UNK         0.0600 
    203 H203       -2.0195  -24.8011  -47.2468 H         1 UNK         0.0600 
    204 H204       -1.8918  -26.0010  -45.9636 H         1 UNK         0.0600 
    205 H205       -5.5001  -23.2230  -46.2402 H         1 UNK         0.3000 
    206 H206       -6.9067  -22.1215  -47.5166 H         1 UNK         0.0600 
    207 H207       -8.1738  -24.2810  -47.5276 H         1 UNK         0.0600 
    208 H208       -8.4551  -23.3460  -48.9864 H         1 UNK         0.0600 
    209 H209       -7.3838  -24.7385  -49.0363 H         1 UNK         0.0600 
    210 H210       -4.1772  -21.9816  -48.1772 H         1 UNK         0.3000 
    211 H211       -2.8174  -20.9143  -49.5120 H         1 UNK         0.0600 
    212 H212       -3.4927  -19.6416  -51.4644 H         1 UNK         0.0600 
    213 H213       -4.7221  -19.4313  -50.2330 H         1 UNK         0.0600 
    214 H214       -5.0108  -20.5080  -51.6022 H         1 UNK         0.0600 
    215 H215       -3.7864  -23.8978  -49.8588 H         1 UNK         0.3000 
    216 H216       -3.1458  -25.7450  -50.8828 H         1 UNK         0.0600 
    217 H217       -0.7223  -25.8907  -51.5395 H         1 UNK         0.0600 
    218 H218       -0.9504  -25.1113  -49.9839 H         1 UNK         0.0600 
    219 H219       -0.5781  -24.1388  -51.3980 H         1 UNK         0.0600 
    220 H220       -1.1675  -24.2796  -53.3152 H         1 UNK         0.3000 
    221 H221       -2.9370  -25.0409  -55.5338 H         1 UNK         0.0600 
    222 H222       -0.4939  -25.4528  -55.7072 H         1 UNK         0.0600 
    223 H223       -0.1617  -23.7374  -55.4696 H         1 UNK         0.0600 
    224 H224       -1.0076  -24.2836  -56.9127 H         1 UNK         0.0600 
    225 H225       -4.5739  -23.5467  -54.4566 H         1 UNK         0.3000 
    226 H226       -4.3921  -20.7884  -54.3081 H         1 UNK         0.0600 
    227 H227       -6.1756  -22.1519  -53.2702 H         1 UNK         0.0600 
    228 H228       -6.8803  -20.8627  -54.2318 H         1 UNK         0.0600 
    229 H229       -6.8625  -22.5090  -54.8553 H         1 UNK         0.0600 
    230 H230       -4.7425  -22.6326  -57.2301 H         1 UNK         0.3000 
    231 H231       -5.7483  -20.4297  -58.8793 H         1 UNK         0.0600 
    232 H232       -4.6971  -23.2172  -59.6040 H         1 UNK         0.0600 
    233 H233       -5.5000  -22.1038  -60.7043 H         1 UNK         0.0600 
    234 H234       -6.3895  -22.7863  -59.3533 H         1 UNK         0.0600 
    235 H235       -2.6024  -21.3949  -57.7049 H         1 UNK         0.3000 
    236 H236       -1.1119  -20.5891  -60.0759 H         1 UNK         0.0600 
    237 H237       -0.1290  -21.2240  -57.2466 H         1 UNK         0.0600 
    238 H238       -0.3103  -22.3983  -58.5500 H         1 UNK         0.0600 
    239 H239        0.8581  -21.0941  -58.6937 H         1 UNK         0.0600 
    240 H240       -1.9925  -19.1274  -56.9585 H         1 UNK         0.3000 
    241 H241       -0.4591  -16.6826  -57.4549 H         1 UNK         0.0600 
    242 H242       -3.0837  -14.3551  -58.1914 H         1 UNK         0.3800 
    243 H243       -1.5511  -14.4820  -57.3782 H         1 UNK         0.3800 
    244 H244       -1.4884  -15.9292  -55.2501 H         1 UNK         0.0800 
    245 H245       -0.4162  -17.2851  -55.1805 H         1 UNK         0.0800 
    246 H246       -0.9497  -19.6155  -54.6407 H         1 UNK         0.0800 
    247 H247       -2.3341  -20.0857  -53.7019 H         1 UNK         0.0800 
@<TRIPOS>BOND
     1    1    2 1    
     2    1  127 1    
     3    1  128 1    
     4    1  129 1    
     5    2    3 2    
     6    2    4 am   BACKBONE|DICT|INTERRES
     7    4    5 1    
     8    4  130 1    
     9    5    6 1    
    10    5   65 1    
    11    5  131 1    
    12    6    7 1    
    13    6  132 1    
    14    6  133 1    
    15    7    8 1    
    16    8    9 1    
    17    8  134 1    
    18    8  135 1    
    19    9   10 ar   
    20    9   14 ar   
    21   10   11 ar   
    22   10  136 1    
    23   11   12 ar   
    24   11  126 1    
    25   12   13 ar   
    26   12  137 1    
    27   13   14 ar   
    28   13   15 1    
    29   14  138 1    
    30   15   16 1    
    31   15  139 1    
    32   15  140 1    
    33   16   17 1    
    34   17   18 1    
    35   17  141 1    
    36   17  142 1    
    37   18   19 1    
    38   18   67 1    
    39   18  143 1    
    40   19   20 am   BACKBONE|DICT|INTERRES
    41   19  144 1    
    42   20   21 2    
    43   20   22 1    
    44   22   23 1    
    45   22   24 1    
    46   22  145 1    
    47   23  146 1    
    48   23  147 1    
    49   23  148 1    
    50   24   25 am   BACKBONE|DICT|INTERRES
    51   24  149 1    
    52   25   26 2    
    53   25   27 1    
    54   27   28 1    
    55   27   29 1    
    56   27  150 1    
    57   28  151 1    
    58   28  152 1    
    59   28  153 1    
    60   29   30 am   BACKBONE|DICT|INTERRES
    61   29  154 1    
    62   30   31 2    
    63   30   32 1    
    64   32   33 1    
    65   32   34 1    
    66   32  155 1    
    67   33  156 1    
    68   33  157 1    
    69   33  158 1    
    70   34   35 am   BACKBONE|DICT|INTERRES
    71   34  159 1    
    72   35   36 2    
    73   35   37 1    
    74   37   38 1    
    75   37   39 1    
    76   37  160 1    
    77   38  161 1    
    78   38  162 1    
    79   38  163 1    
    80   39   40 am   BACKBONE|DICT|INTERRES
    81   39  164 1    
    82   40   41 2    
    83   40   42 1    
    84   42   43 1    
    85   42   44 1    
    86   42  165 1    
    87   43  166 1    
    88   43  167 1    
    89   43  168 1    
    90   44   45 am   BACKBONE|DICT|INTERRES
    91   44  169 1    
    92   45   46 2    
    93   45   47 1    
    94   47   48 1    
    95   47   49 1    
    96   47  170 1    
    97   48  171 1    
    98   48  172 1    
    99   48  173 1    
   100   49   50 am   BACKBONE|DICT|INTERRES
   101   49  174 1    
   102   50   51 2    
   103   50   52 1    
   104   52   53 1    
   105   52   54 1    
   106   52  175 1    
   107   53  176 1    
   108   53  177 1    
   109   53  178 1    
   110   54   55 am   BACKBONE|DICT|INTERRES
   111   54  179 1    
   112   55   56 2    
   113   55   57 1    
   114   57   58 1    
   115   57   59 1    
   116   57  180 1    
   117   58  181 1    
   118   58  182 1    
   119   58  183 1    
   120   59   60 am   BACKBONE|DICT|INTERRES
   121   59  184 1    
   122   60   61 2    
   123   60   62 1    
   124   62   63 1    
   125   62   64 1    
   126   62  185 1    
   127   63  186 1    
   128   63  187 1    
   129   63  188 1    
   130   64   65 am   BACKBONE|DICT|INTERRES
   131   64  189 1    
   132   65   66 2    
   133   67   68 2    
   134   67   69 am   BACKBONE|DICT|INTERRES
   135   69   70 1    
   136   69  190 1    
   137   70   71 1    
   138   70   72 1    
   139   70  191 1    
   140   71  192 1    
   141   71  193 1    
   142   71  194 1    
   143   72   73 2    
   144   72   74 am   BACKBONE|DICT|INTERRES
   145   74   75 1    
   146   74  195 1    
   147   75   76 1    
   148   75   77 1    
   149   75  196 1    
   150   76  197 1    
   151   76  198 1    
   152   76  199 1    
   153   77   78 2    
   154   77   79 am   BACKBONE|DICT|INTERRES
   155   79   80 1    
   156   79  200 1    
   157   80   81 1    
   158   80   82 1    
   159   80  201 1    
   160   81  202 1    
   161   81  203 1    
   162   81  204 1    
   163   82   83 2    
   164   82   84 am   BACKBONE|DICT|INTERRES
   165   84   85 1    
   166   84  205 1    
   167   85   86 1    
   168   85   87 1    
   169   85  206 1    
   170   86  207 1    
   171   86  208 1    
   172   86  209 1    
   173   87   88 2    
   174   87   89 am   BACKBONE|DICT|INTERRES
   175   89   90 1    
   176   89  210 1    
   177   90   91 1    
   178   90   92 1    
   179   90  211 1    
   180   91  212 1    
   181   91  213 1    
   182   91  214 1    
   183   92   93 2    
   184   92   94 am   BACKBONE|DICT|INTERRES
   185   94   95 1    
   186   94  215 1    
   187   95   96 1    
   188   95   97 1    
   189   95  216 1    
   190   96  217 1    
   191   96  218 1    
   192   96  219 1    
   193   97   98 2    
   194   97   99 am   BACKBONE|DICT|INTERRES
   195   99  100 1    
   196   99  220 1    
   197  100  101 1    
   198  100  102 1    
   199  100  221 1    
   200  101  222 1    
   201  101  223 1    
   202  101  224 1    
   203  102  103 2    
   204  102  104 am   BACKBONE|DICT|INTERRES
   205  104  105 1    
   206  104  225 1    
   207  105  106 1    
   208  105  107 1    
   209  105  226 1    
   210  106  227 1    
   211  106  228 1    
   212  106  229 1    
   213  107  108 2    
   214  107  109 am   BACKBONE|DICT|INTERRES
   215  109  110 1    
   216  109  230 1    
   217  110  111 1    
   218  110  112 1    
   219  110  231 1    
   220  111  232 1    
   221  111  233 1    
   222  111  234 1    
   223  112  113 2    
   224  112  114 am   BACKBONE|DICT|INTERRES
   225  114  115 1    
   226  114  235 1    
   227  115  116 1    
   228  115  117 1    
   229  115  236 1    
   230  116  237 1    
   231  116  238 1    
   232  116  239 1    
   233  117  118 2    
   234  117  119 am   BACKBONE|DICT|INTERRES
   235  119  120 1    
   236  119  240 1    
   237  120  121 1    
   238  120  124 1    
   239  120  241 1    
   240  121  122 am   BACKBONE|DICT|INTERRES
   241  121  123 2    
   242  122  242 1    
   243  122  243 1    
   244  124  125 1    
   245  124  244 1    
   246  124  245 1    
   247  125  126 1    
   248  126  246 1    
   249  126  247 1    
@<TRIPOS>SUBSTRUCTURE
     1 UNK         1 GROUP             0       ****    0 ROOT    
