@<TRIPOS>MOLECULE
3R540
247   249    1
SMALL
USER_CHARGES


@<TRIPOS>ATOM
      1 CA         -2.4831  -13.0828  -47.4086 C.3       0 UNK        -0.1800 
      2 C          -0.9739  -13.1200  -47.2212 C.2       0 UNK         0.5000 
      3 O          -0.4971  -12.9498  -46.0996 O.2       0 UNK        -0.5000 
      4 N          -0.2266  -13.3288  -48.3138 N.am      1 UNK        -0.5000 
      5 CA          1.2373  -13.4420  -48.3787 C.3       1 UNK         0.1400 
      6 C6          1.7855  -14.7403  -47.7224 C.3       23 UNK        -0.0398 
      7 S7          1.1296  -16.2479  -48.5104 S.3       23 UNK        -0.2404 
      8 C8          2.3521  -16.4888  -49.8337 C.3       23 UNK        -0.0205 
      9 C9          2.1413  -17.8192  -50.5343 C.ar      23 UNK        -0.0193 
     10 C10         1.4717  -17.8908  -51.7594 C.ar      23 UNK        -0.1150 
     11 C11         1.3031  -19.1205  -52.4056 C.ar      23 UNK        -0.0193 
     12 C12         1.7938  -20.2837  -51.8015 C.ar      23 UNK        -0.1150 
     13 C13         2.4413  -20.2271  -50.5640 C.ar      23 UNK        -0.0193 
     14 C14         2.6297  -18.9873  -49.9488 C.ar      23 UNK        -0.1150 
     15 C15         2.9327  -21.5073  -49.8972 C.3       23 UNK        -0.0205 
     16 S16         2.4796  -21.6124  -48.1322 S.3       23 UNK        -0.2404 
     17 C17         0.6627  -21.4275  -48.1920 C.3       23 UNK        -0.0398 
     18 CA         -0.0490  -22.5406  -47.3950 C.3       11 UNK         0.1400 
     19 N           0.2635  -22.4797  -45.9638 N.am      11 UNK        -0.5000 
     20 C          -0.0480  -23.4150  -45.0562 C.2       10 UNK         0.5000 
     21 O          -0.7386  -24.4057  -45.3012 O.2       10 UNK        -0.5000 
     22 CA          0.4762  -23.1803  -43.6330 C.3       10 UNK         0.1400 
     23 CB          2.0036  -23.3409  -43.5733 C.3       10 UNK        -0.1800 
     24 N           0.1028  -21.8465  -43.1704 N.am      10 UNK        -0.5000 
     25 C          -1.0614  -21.5587  -42.5735 C.2       9 UNK         0.5000 
     26 O          -1.9013  -22.4062  -42.2686 O.2       9 UNK        -0.5000 
     27 CA         -1.3512  -20.0745  -42.2768 C.3       9 UNK         0.1400 
     28 CB         -0.9584  -19.7251  -40.8343 C.3       9 UNK        -0.1800 
     29 N          -0.6950  -19.1464  -43.2022 N.am      9 UNK        -0.5000 
     30 C          -0.9958  -19.0570  -44.5061 C.2       8 UNK         0.5000 
     31 O          -1.8231  -19.7751  -45.0632 O.2       8 UNK        -0.5000 
     32 CA         -0.2268  -18.0242  -45.3452 C.3       8 UNK         0.1400 
     33 CB         -0.8527  -16.6336  -45.1678 C.3       8 UNK        -0.1800 
     34 N           1.2051  -17.9510  -45.0590 N.am      8 UNK        -0.5000 
     35 C           2.0743  -18.9691  -45.0416 C.2       7 UNK         0.5000 
     36 O           1.7496  -20.1508  -45.1636 O.2       7 UNK        -0.5000 
     37 CA          3.5567  -18.6154  -44.8170 C.3       7 UNK         0.1400 
     38 CB          4.1986  -18.0460  -46.0966 C.3       7 UNK        -0.1800 
     39 N           3.7798  -17.7487  -43.6526 N.am      7 UNK        -0.5000 
     40 C           3.4210  -16.4702  -43.4718 C.2       6 UNK         0.5000 
     41 O           2.9092  -15.7571  -44.3386 O.2       6 UNK        -0.5000 
     42 CA          3.6183  -15.9189  -42.0473 C.3       6 UNK         0.1400 
     43 CB          4.5751  -14.7168  -42.0504 C.3       6 UNK        -0.1800 
     44 N           2.3547  -15.5230  -41.4225 N.am      6 UNK        -0.5000 
     45 C           1.2538  -16.2807  -41.2923 C.2       5 UNK         0.5000 
     46 O           1.1704  -17.4482  -41.6760 O.2       5 UNK        -0.5000 
     47 CA          0.0324  -15.6287  -40.6103 C.3       5 UNK         0.1400 
     48 CB         -0.0605  -16.0750  -39.1430 C.3       5 UNK        -0.1800 
     49 N           0.0355  -14.1625  -40.6616 N.am      5 UNK        -0.5000 
     50 C          -0.1050  -13.4484  -41.7853 C.2       4 UNK         0.5000 
     51 O          -0.2907  -13.9581  -42.8924 O.2       4 UNK        -0.5000 
     52 CA          0.0049  -11.9205  -41.6549 C.3       4 UNK         0.1400 
     53 CB          1.3767  -11.4983  -41.0893 C.3       4 UNK        -0.1800 
     54 N          -0.1750  -11.3487  -42.9819 N.am      4 UNK        -0.5000 
     55 C          -0.4683  -10.0817  -43.2891 C.2       3 UNK         0.5000 
     56 O          -0.6842   -9.2012  -42.4543 O.2       3 UNK        -0.5000 
     57 CA         -0.4885   -9.7691  -44.7984 C.3       3 UNK         0.1400 
     58 CB         -0.6211   -8.2671  -45.1277 C.3       3 UNK        -0.1800 
     59 N           0.6658  -10.3851  -45.4635 N.am      3 UNK        -0.5000 
     60 C           1.9631  -10.0685  -45.3218 C.2       2 UNK         0.5000 
     61 O           2.3644   -9.0685  -44.7256 O.2       2 UNK        -0.5000 
     62 CA          3.0028  -11.0530  -45.9029 C.3       2 UNK         0.1400 
     63 CB          3.8913  -11.6141  -44.7801 C.3       2 UNK        -0.1800 
     64 N           2.4049  -12.1865  -46.6101 N.am      2 UNK        -0.5000 
     65 C           1.9177  -12.1563  -47.8574 C.2       1 UNK         0.5000 
     66 O           1.9617  -11.1608  -48.5818 O.2       1 UNK        -0.5000 
     67 C          -1.5602  -22.5623  -47.6953 C.2       11 UNK         0.5000 
     68 O          -1.9494  -23.1013  -48.7324 O.2       11 UNK        -0.5000 
     69 N          -2.3926  -22.0402  -46.7826 N.am      12 UNK        -0.5000 
     70 CA         -3.8529  -22.1449  -46.8143 C.3       12 UNK         0.1400 
     71 CB         -4.4484  -21.4570  -45.5762 C.3       12 UNK        -0.1800 
     72 C          -4.3672  -23.5926  -46.9089 C.2       12 UNK         0.5000 
     73 O          -5.3506  -23.8335  -47.6087 O.2       12 UNK        -0.5000 
     74 N          -3.6752  -24.5172  -46.2316 N.am      13 UNK        -0.5000 
     75 CA         -3.9606  -25.9480  -46.2548 C.3       13 UNK         0.1400 
     76 CB         -3.8531  -26.5031  -44.8257 C.3       13 UNK        -0.1800 
     77 C          -2.9980  -26.6917  -47.1937 C.2       13 UNK         0.5000 
     78 O          -3.4434  -27.5407  -47.9656 O.2       13 UNK        -0.5000 
     79 N          -1.6980  -26.3753  -47.1052 N.am      14 UNK        -0.5000 
     80 CA         -0.6255  -27.1092  -47.7793 C.3       14 UNK         0.1400 
     81 CB          0.7193  -26.7556  -47.1247 C.3       14 UNK        -0.1800 
     82 C          -0.5591  -26.8811  -49.2995 C.2       14 UNK         0.5000 
     83 O          -0.1591  -27.7963  -50.0204 O.2       14 UNK        -0.5000 
     84 N          -0.9327  -25.6795  -49.7578 N.am      15 UNK        -0.5000 
     85 CA         -0.8673  -25.2730  -51.1643 C.3       15 UNK         0.1400 
     86 CB          0.1590  -24.1343  -51.2978 C.3       15 UNK        -0.1800 
     87 C          -2.2361  -24.8390  -51.7179 C.2       15 UNK         0.5000 
     88 O          -2.3203  -24.5285  -52.9047 O.2       15 UNK        -0.5000 
     89 N          -3.2707  -24.8052  -50.8636 N.am      16 UNK        -0.5000 
     90 CA         -4.6209  -24.2972  -51.1327 C.3       16 UNK         0.1400 
     91 CB         -5.3497  -25.1680  -52.1761 C.3       16 UNK        -0.1800 
     92 C          -4.6361  -22.7895  -51.4698 C.2       16 UNK         0.5000 
     93 O          -5.4294  -22.3376  -52.3007 O.2       16 UNK        -0.5000 
     94 N          -3.7695  -22.0192  -50.7934 N.am      17 UNK        -0.5000 
     95 CA         -3.6399  -20.5686  -50.9645 C.3       17 UNK         0.1400 
     96 CB         -2.3965  -20.0671  -50.2157 C.3       17 UNK        -0.1800 
     97 C          -4.8907  -19.7804  -50.5320 C.2       17 UNK         0.5000 
     98 O          -5.1389  -18.7027  -51.0704 O.2       17 UNK        -0.5000 
     99 N          -5.6884  -20.3501  -49.6170 N.am      18 UNK        -0.5000 
    100 CA        -6.9690  -19.8001  -49.1631 C.3       18 UNK         0.1400 
    101 CB        -7.4323  -20.5675  -47.9166 C.3       18 UNK        -0.1800 
    102 C         -8.0597  -19.8248  -50.2521 C.2       18 UNK         0.5000 
    103 O         -8.9585  -18.9840  -50.2290 O.2       18 UNK        -0.5000 
    104 N         -7.9436  -20.7660  -51.1987 N.am      19 UNK        -0.5000 
    105 CA        -8.7862  -20.8653  -52.3910 C.3       19 UNK         0.1400 
    106 CB        -8.9645  -22.3543  -52.7343 C.3       19 UNK        -0.1800 
    107 C         -8.1854  -20.1020  -53.5898 C.2       19 UNK         0.5000 
    108 O         -8.7973  -20.0914  -54.6584 O.2       19 UNK        -0.5000 
    109 N         -6.9902  -19.5146  -53.4069 N.am      20 UNK        -0.5000 
    110 CA        -6.1348  -18.8810  -54.4170 C.3       20 UNK         0.1400 
    111 CB        -6.7969  -17.6073  -54.9820 C.3       20 UNK        -0.1800 
    112 C         -5.6772  -19.8649  -55.5165 C.2       20 UNK         0.5000 
    113 O         -5.4275  -19.4515  -56.6499 O.2       20 UNK        -0.5000 
    114 N         -5.5803  -21.1534  -55.1612 N.am      21 UNK        -0.5000 
    115 CA        -5.2532  -22.2514  -56.0707 C.3       21 UNK         0.1400 
    116 CB        -6.1269  -23.4592  -55.6959 C.3       21 UNK        -0.1800 
    117 C         -3.7559  -22.6155  -56.0529 C.2       21 UNK         0.5000 
    118 O         -3.3458  -23.5013  -56.8053 O.2       21 UNK        -0.5000 
    119 N         -2.9704  -21.9453  -55.2006 N.am      22 UNK        -0.5000 
    120 CA        -1.5206  -22.1320  -55.0658 C.3       22 UNK         0.1400 
    121 C         -0.6998  -21.6890  -56.3133 C.2       22 UNK         0.5000 
    122 N          0.5123  -22.2040  -56.4751 N.am      22 UNK        -0.7600 
    123 O         -1.1311  -20.8677  -57.1201 O.2       22 UNK        -0.5000 
    124 C124       -0.9909  -21.5044  -53.7505 C.3       23 UNK        -0.0398 
    125 S125       -1.1257  -19.6825  -53.6546 S.3       23 UNK        -0.2404 
    126 C126        0.6222  -19.1787  -53.7681 C.3       23 UNK        -0.0205 
    127 H127       -2.9526  -13.8566  -46.8011 H         1 UNK         0.0600 
    128 H128       -2.7679  -13.2461  -48.4482 H         1 UNK         0.0600 
    129 H129       -2.8757  -12.1158  -47.0944 H         1 UNK         0.0600 
    130 H130       -0.6942  -13.4337  -49.2029 H         1 UNK         0.3000 
    131 H131        1.4840  -13.4897  -49.4405 H         1 UNK         0.0600 
    132 H132        1.5267  -14.7835  -46.6638 H         1 UNK         0.0800 
    133 H133        2.8757  -14.7681  -47.7661 H         1 UNK         0.0800 
    134 H134        3.3593  -16.4576  -49.4153 H         1 UNK         0.0800 
    135 H135        2.2851  -15.6664  -50.5473 H         1 UNK         0.0800 
    136 H136        1.0933  -16.9870  -52.2160 H         1 UNK         0.1150 
    137 H137        1.6781  -21.2379  -52.2914 H         1 UNK         0.1150 
    138 H138        3.1399  -18.9315  -48.9986 H         1 UNK         0.1150 
    139 H139        2.5405  -22.3862  -50.4101 H         1 UNK         0.0800 
    140 H140        4.0186  -21.5552  -49.9860 H         1 UNK         0.0800 
    141 H141        0.3430  -21.4424  -49.2343 H         1 UNK         0.0800 
    142 H142        0.3984  -20.4417  -47.8049 H         1 UNK         0.0800 
    143 H143        0.3345  -23.4948  -47.7597 H         1 UNK         0.0600 
    144 H144        0.8288  -21.6847  -45.6723 H         1 UNK         0.3000 
    145 H145        0.0351  -23.9369  -42.9804 H         1 UNK         0.0600 
    146 H146        2.3697  -23.2267  -42.5529 H         1 UNK         0.0600 
    147 H147        2.3040  -24.3314  -43.9176 H         1 UNK         0.0600 
    148 H148        2.5181  -22.6079  -44.1956 H         1 UNK         0.0600 
    149 H149        0.7065  -21.0827  -43.4477 H         1 UNK         0.3000 
    150 H150       -2.4295  -19.9316  -42.3747 H         1 UNK         0.0600 
    151 H151       -1.4510  -20.3879  -40.1218 H         1 UNK         0.0600 
    152 H152       -1.2525  -18.7059  -40.5849 H         1 UNK         0.0600 
    153 H153        0.1173  -19.8145  -40.6776 H         1 UNK         0.0600 
    154 H154        0.0203  -18.5386  -42.8116 H         1 UNK         0.3000 
    155 H155       -0.3275  -18.3124  -46.3933 H         1 UNK         0.0600 
    156 H156       -0.3877  -15.8995  -45.8236 H         1 UNK         0.0600 
    157 H157       -0.7474  -16.2777  -44.1428 H         1 UNK         0.0600 
    158 H158       -1.9173  -16.6480  -45.4041 H         1 UNK         0.0600 
    159 H159        1.5891  -17.0232  -44.9044 H         1 UNK         0.3000 
    160 H160        4.0696  -19.5509  -44.5877 H         1 UNK         0.0600 
    161 H161        3.6854  -17.1530  -46.4546 H         1 UNK         0.0600 
    162 H162        4.1657  -18.7826  -46.8994 H         1 UNK         0.0600 
    163 H163        5.2454  -17.7903  -45.9340 H         1 UNK         0.0600 
    164 H164        4.1545  -18.2334  -42.8490 H         1 UNK         0.3000 
    165 H165        4.0577  -16.6993  -41.4229 H         1 UNK         0.0600 
    166 H166        4.1632  -13.8774  -42.6105 H         1 UNK         0.0600 
    167 H167        4.7831  -14.3737  -41.0368 H         1 UNK         0.0600 
    168 H168        5.5303  -14.9787  -42.5071 H         1 UNK         0.0600 
    169 H169        2.3049  -14.5732  -41.0889 H         1 UNK         0.3000 
    170 H170       -0.8576  -15.9861  -41.1329 H         1 UNK         0.0600 
    171 H171       -0.9750  -15.7085  -38.6763 H         1 UNK         0.0600 
    172 H172       -0.0698  -17.1626  -39.0619 H         1 UNK         0.0600 
    173 H173        0.7854  -15.7119  -38.5580 H         1 UNK         0.0600 
    174 H174        0.1748  -13.6810  -39.7847 H         1 UNK         0.3000 
    175 H175       -0.7953  -11.5715  -40.9995 H         1 UNK         0.0600 
    176 H176        2.1954  -11.8646  -41.7100 H         1 UNK         0.0600 
    177 H177        1.4660  -10.4135  -41.0309 H         1 UNK         0.0600 
    178 H178        1.5288  -11.8827  -40.0805 H         1 UNK         0.0600 
    179 H179       -0.0934  -12.0342  -43.7263 H         1 UNK         0.3000 
    180 H180       -1.3710  -10.2683  -45.2012 H         1 UNK         0.0600 
    181 H181        0.1717   -7.6734  -44.6727 H         1 UNK         0.0600 
    182 H182       -1.5691   -7.8744  -44.7588 H         1 UNK         0.0600 
    183 H183       -0.5951   -8.0958  -46.2038 H         1 UNK         0.0600 
    184 H184        0.4565  -11.2662  -45.9236 H         1 UNK         0.3000 
    185 H185        3.6340  -10.4941  -46.5968 H         1 UNK         0.0600 
    186 H186        3.3007  -12.1592  -44.0430 H         1 UNK         0.0600 
    187 H187        4.6477  -12.2934  -45.1738 H         1 UNK         0.0600 
    188 H188        4.4162  -10.8153  -44.2547 H         1 UNK         0.0600 
    189 H189        2.2790  -13.0270  -46.0636 H         1 UNK         0.3000 
    190 H190       -2.0010  -21.5287  -45.9976 H         1 UNK         0.3000 
    191 H191       -4.2002  -21.6159  -47.7009 H         1 UNK         0.0600 
    192 H192       -3.9732  -21.8027  -44.6571 H         1 UNK         0.0600 
    193 H193       -5.5168  -21.6551  -45.4832 H         1 UNK         0.0600 
    194 H194       -4.3268  -20.3756  -45.6321 H         1 UNK         0.0600 
    195 H195       -2.8501  -24.2286  -45.7197 H         1 UNK         0.3000 
    196 H196       -4.9787  -26.1273  -46.6073 H         1 UNK         0.0600 
    197 H197       -4.0527  -27.5753  -44.8063 H         1 UNK         0.0600 
    198 H198       -4.5767  -26.0259  -44.1646 H         1 UNK         0.0600 
    199 H199       -2.8601  -26.3449  -44.4024 H         1 UNK         0.0600 
    200 H200       -1.4036  -25.6706  -46.4326 H         1 UNK         0.3000 
    201 H201       -0.8008  -28.1754  -47.6193 H         1 UNK         0.0600 
    202 H202        0.7072  -26.9719  -46.0563 H         1 UNK         0.0600 
    203 H203        0.9662  -25.7016  -47.2491 H         1 UNK         0.0600 
    204 H204        1.5319  -27.3355  -47.5641 H         1 UNK         0.0600 
    205 H205       -1.2550  -24.9731  -49.1068 H         1 UNK         0.3000 
    206 H206       -0.5327  -26.1019  -51.7907 H         1 UNK         0.0600 
    207 H207        1.1193  -24.4169  -50.8667 H         1 UNK         0.0600 
    208 H208        0.3357  -23.8923  -52.3457 H         1 UNK         0.0600 
    209 H209       -0.1786  -23.2243  -50.8020 H         1 UNK         0.0600 
    210 H210       -3.0917  -25.0787  -49.9089 H         1 UNK         0.3000 
    211 H211       -5.1727  -24.3941  -50.1980 H         1 UNK         0.0600 
    212 H212       -4.8605  -25.1339  -53.1489 H         1 UNK         0.0600 
    213 H213       -6.3800  -24.8380  -52.3136 H         1 UNK         0.0600 
    214 H214       -5.3846  -26.2100  -51.8587 H         1 UNK         0.0600 
    215 H215       -3.1374  -22.4616  -50.1320 H         1 UNK         0.3000 
    216 H216       -3.4967  -20.3779  -52.0291 H         1 UNK         0.0600 
    217 H217       -1.5032  -20.6065  -50.5302 H         1 UNK         0.0600 
    218 H218       -2.5013  -20.1764  -49.1366 H         1 UNK         0.0600 
    219 H219       -2.2203  -19.0102  -50.4203 H         1 UNK         0.0600 
    220 H220       -5.4292  -21.2543  -49.2531 H         1 UNK         0.3000 
    221 H221       -6.8119  -18.7563  -48.8826 H         1 UNK         0.0600 
    222 H222       -7.5148  -21.6385  -48.1065 H         1 UNK         0.0600 
    223 H223       -6.7377  -20.4217  -47.0910 H         1 UNK         0.0600 
    224 H224       -8.4084  -20.2164  -47.5790 H         1 UNK         0.0600 
    225 H225       -7.1584  -21.4027  -51.1620 H         1 UNK         0.3000 
    226 H226       -9.7717  -20.4408  -52.1888 H         1 UNK         0.0600 
    227 H227       -9.3921  -22.9043  -51.8958 H         1 UNK         0.0600 
    228 H228       -9.6379  -22.4835  -53.5824 H         1 UNK         0.0600 
    229 H229       -8.0164  -22.8253  -52.9960 H         1 UNK         0.0600 
    230 H230       -6.5920  -19.5461  -52.4775 H         1 UNK         0.3000 
    231 H231       -5.2275  -18.5736  -53.8953 H         1 UNK         0.0600 
    232 H232       -6.1018  -17.0529  -55.6136 H         1 UNK         0.0600 
    233 H233       -7.1091  -16.9376  -54.1807 H         1 UNK         0.0600 
    234 H234       -7.6734  -17.8388  -55.5876 H         1 UNK         0.0600 
    235 H235       -5.7664  -21.4155  -54.1991 H         1 UNK         0.3000 
    236 H236       -5.4994  -21.9696  -57.0964 H         1 UNK         0.0600 
    237 H237       -7.1864  -23.2221  -55.7958 H         1 UNK         0.0600 
    238 H238       -5.9229  -24.3137  -56.3422 H         1 UNK         0.0600 
    239 H239       -5.9535  -23.7725  -54.6679 H         1 UNK         0.0600 
    240 H240       -3.3808  -21.2100  -54.6471 H         1 UNK         0.3000 
    241 H241       -1.3679  -23.2096  -54.9830 H         1 UNK         0.0600 
    242 H242        0.8909  -22.8885  -55.8395 H         1 UNK         0.3800 
    243 H243        1.0583  -21.9203  -57.2740 H         1 UNK         0.3800 
    244 H244       -1.5366  -21.9198  -52.9030 H         1 UNK         0.0800 
    245 H245        0.0423  -21.8098  -53.6013 H         1 UNK         0.0800 
    246 H246        0.6630  -18.1974  -54.2430 H         1 UNK         0.0800 
    247 H247        1.1673  -19.8504  -54.4328 H         1 UNK         0.0800 
@<TRIPOS>BOND
     1    1    2 1    
     2    1  127 1    
     3    1  128 1    
     4    1  129 1    
     5    2    3 2    
     6    2    4 am   BACKBONE|DICT|INTERRES
     7    4    5 1    
     8    4  130 1    
     9    5    6 1    
    10    5   65 1    
    11    5  131 1    
    12    6    7 1    
    13    6  132 1    
    14    6  133 1    
    15    7    8 1    
    16    8    9 1    
    17    8  134 1    
    18    8  135 1    
    19    9   10 ar   
    20    9   14 ar   
    21   10   11 ar   
    22   10  136 1    
    23   11   12 ar   
    24   11  126 1    
    25   12   13 ar   
    26   12  137 1    
    27   13   14 ar   
    28   13   15 1    
    29   14  138 1    
    30   15   16 1    
    31   15  139 1    
    32   15  140 1    
    33   16   17 1    
    34   17   18 1    
    35   17  141 1    
    36   17  142 1    
    37   18   19 1    
    38   18   67 1    
    39   18  143 1    
    40   19   20 am   BACKBONE|DICT|INTERRES
    41   19  144 1    
    42   20   21 2    
    43   20   22 1    
    44   22   23 1    
    45   22   24 1    
    46   22  145 1    
    47   23  146 1    
    48   23  147 1    
    49   23  148 1    
    50   24   25 am   BACKBONE|DICT|INTERRES
    51   24  149 1    
    52   25   26 2    
    53   25   27 1    
    54   27   28 1    
    55   27   29 1    
    56   27  150 1    
    57   28  151 1    
    58   28  152 1    
    59   28  153 1    
    60   29   30 am   BACKBONE|DICT|INTERRES
    61   29  154 1    
    62   30   31 2    
    63   30   32 1    
    64   32   33 1    
    65   32   34 1    
    66   32  155 1    
    67   33  156 1    
    68   33  157 1    
    69   33  158 1    
    70   34   35 am   BACKBONE|DICT|INTERRES
    71   34  159 1    
    72   35   36 2    
    73   35   37 1    
    74   37   38 1    
    75   37   39 1    
    76   37  160 1    
    77   38  161 1    
    78   38  162 1    
    79   38  163 1    
    80   39   40 am   BACKBONE|DICT|INTERRES
    81   39  164 1    
    82   40   41 2    
    83   40   42 1    
    84   42   43 1    
    85   42   44 1    
    86   42  165 1    
    87   43  166 1    
    88   43  167 1    
    89   43  168 1    
    90   44   45 am   BACKBONE|DICT|INTERRES
    91   44  169 1    
    92   45   46 2    
    93   45   47 1    
    94   47   48 1    
    95   47   49 1    
    96   47  170 1    
    97   48  171 1    
    98   48  172 1    
    99   48  173 1    
   100   49   50 am   BACKBONE|DICT|INTERRES
   101   49  174 1    
   102   50   51 2    
   103   50   52 1    
   104   52   53 1    
   105   52   54 1    
   106   52  175 1    
   107   53  176 1    
   108   53  177 1    
   109   53  178 1    
   110   54   55 am   BACKBONE|DICT|INTERRES
   111   54  179 1    
   112   55   56 2    
   113   55   57 1    
   114   57   58 1    
   115   57   59 1    
   116   57  180 1    
   117   58  181 1    
   118   58  182 1    
   119   58  183 1    
   120   59   60 am   BACKBONE|DICT|INTERRES
   121   59  184 1    
   122   60   61 2    
   123   60   62 1    
   124   62   63 1    
   125   62   64 1    
   126   62  185 1    
   127   63  186 1    
   128   63  187 1    
   129   63  188 1    
   130   64   65 am   BACKBONE|DICT|INTERRES
   131   64  189 1    
   132   65   66 2    
   133   67   68 2    
   134   67   69 am   BACKBONE|DICT|INTERRES
   135   69   70 1    
   136   69  190 1    
   137   70   71 1    
   138   70   72 1    
   139   70  191 1    
   140   71  192 1    
   141   71  193 1    
   142   71  194 1    
   143   72   73 2    
   144   72   74 am   BACKBONE|DICT|INTERRES
   145   74   75 1    
   146   74  195 1    
   147   75   76 1    
   148   75   77 1    
   149   75  196 1    
   150   76  197 1    
   151   76  198 1    
   152   76  199 1    
   153   77   78 2    
   154   77   79 am   BACKBONE|DICT|INTERRES
   155   79   80 1    
   156   79  200 1    
   157   80   81 1    
   158   80   82 1    
   159   80  201 1    
   160   81  202 1    
   161   81  203 1    
   162   81  204 1    
   163   82   83 2    
   164   82   84 am   BACKBONE|DICT|INTERRES
   165   84   85 1    
   166   84  205 1    
   167   85   86 1    
   168   85   87 1    
   169   85  206 1    
   170   86  207 1    
   171   86  208 1    
   172   86  209 1    
   173   87   88 2    
   174   87   89 am   BACKBONE|DICT|INTERRES
   175   89   90 1    
   176   89  210 1    
   177   90   91 1    
   178   90   92 1    
   179   90  211 1    
   180   91  212 1    
   181   91  213 1    
   182   91  214 1    
   183   92   93 2    
   184   92   94 am   BACKBONE|DICT|INTERRES
   185   94   95 1    
   186   94  215 1    
   187   95   96 1    
   188   95   97 1    
   189   95  216 1    
   190   96  217 1    
   191   96  218 1    
   192   96  219 1    
   193   97   98 2    
   194   97   99 am   BACKBONE|DICT|INTERRES
   195   99  100 1    
   196   99  220 1    
   197  100  101 1    
   198  100  102 1    
   199  100  221 1    
   200  101  222 1    
   201  101  223 1    
   202  101  224 1    
   203  102  103 2    
   204  102  104 am   BACKBONE|DICT|INTERRES
   205  104  105 1    
   206  104  225 1    
   207  105  106 1    
   208  105  107 1    
   209  105  226 1    
   210  106  227 1    
   211  106  228 1    
   212  106  229 1    
   213  107  108 2    
   214  107  109 am   BACKBONE|DICT|INTERRES
   215  109  110 1    
   216  109  230 1    
   217  110  111 1    
   218  110  112 1    
   219  110  231 1    
   220  111  232 1    
   221  111  233 1    
   222  111  234 1    
   223  112  113 2    
   224  112  114 am   BACKBONE|DICT|INTERRES
   225  114  115 1    
   226  114  235 1    
   227  115  116 1    
   228  115  117 1    
   229  115  236 1    
   230  116  237 1    
   231  116  238 1    
   232  116  239 1    
   233  117  118 2    
   234  117  119 am   BACKBONE|DICT|INTERRES
   235  119  120 1    
   236  119  240 1    
   237  120  121 1    
   238  120  124 1    
   239  120  241 1    
   240  121  122 am   BACKBONE|DICT|INTERRES
   241  121  123 2    
   242  122  242 1    
   243  122  243 1    
   244  124  125 1    
   245  124  244 1    
   246  124  245 1    
   247  125  126 1    
   248  126  246 1    
   249  126  247 1    
@<TRIPOS>SUBSTRUCTURE
     1 UNK         1 GROUP             0       ****    0 ROOT    
