@<TRIPOS>MOLECULE
3R540
247   249    1
SMALL
USER_CHARGES


@<TRIPOS>ATOM
      1 CA          3.1068  -12.1867  -47.1195 C.3       0 UNK        -0.1800 
      2 C           2.2009  -13.3534  -46.7557 C.2       0 UNK         0.5000 
      3 O           1.7266  -13.4335  -45.6231 O.2       0 UNK        -0.5000 
      4 N           1.9451  -14.2541  -47.7115 N.am      1 UNK        -0.5000 
      5 CA          1.1229  -15.4639  -47.5761 C.3       1 UNK         0.1400 
      6 C6          1.5598  -16.5635  -48.5818 C.3       23 UNK        -0.0398 
      7 S7          1.6472  -16.0230  -50.3278 S.3       23 UNK        -0.2404 
      8 C8          3.0320  -17.0273  -50.9592 C.3       23 UNK        -0.0205 
      9 C9          2.5718  -18.2858  -51.6875 C.ar      23 UNK        -0.0193 
     10 C10         2.7341  -18.3833  -53.0732 C.ar      23 UNK        -0.1150 
     11 C11         2.3964  -19.5547  -53.7572 C.ar      23 UNK        -0.0193 
     12 C12         1.8749  -20.6345  -53.0352 C.ar      23 UNK        -0.1150 
     13 C13         1.6833  -20.5488  -51.6528 C.ar      23 UNK        -0.0193 
     14 C14         2.0395  -19.3716  -50.9833 C.ar      23 UNK        -0.1150 
     15 C15         1.0827  -21.7284  -50.8973 C.3       23 UNK        -0.0205 
     16 S16         2.2251  -22.4112  -49.6529 S.3       23 UNK        -0.2404 
     17 C17         1.3172  -23.9029  -49.0890 C.3       23 UNK        -0.0398 
     18 CA          0.7256  -23.8240  -47.6478 C.3       11 UNK         0.1400 
     19 N           1.6732  -23.3567  -46.6287 N.am      11 UNK        -0.5000 
     20 C           2.7848  -24.0283  -46.2897 C.2       10 UNK         0.5000 
     21 O           3.0725  -25.1353  -46.7475 O.2       10 UNK        -0.5000 
     22 CA          3.7606  -23.3731  -45.2906 C.3       10 UNK         0.1400 
     23 CB          4.8604  -22.6131  -46.0482 C.3       10 UNK        -0.1800 
     24 N           3.1254  -22.4567  -44.3485 N.am      10 UNK        -0.5000 
     25 C           2.2984  -22.8130  -43.3569 C.2       9 UNK         0.5000 
     26 O           2.0254  -23.9821  -43.0834 O.2       9 UNK        -0.5000 
     27 CA          1.6544  -21.6718  -42.5389 C.3       9 UNK         0.1400 
     28 CB          2.3507  -21.5244  -41.1777 C.3       9 UNK        -0.1800 
     29 N           1.6443  -20.3622  -43.2013 N.am      9 UNK        -0.5000 
     30 C           1.0925  -20.0910  -44.3918 C.2       8 UNK         0.5000 
     31 O           0.5663  -20.9457  -45.1038 O.2       8 UNK        -0.5000 
     32 CA          1.1442  -18.6394  -44.8899 C.3       8 UNK         0.1400 
     33 CB         -0.2463  -17.9989  -44.8030 C.3       8 UNK        -0.1800 
     34 N           2.1007  -17.8114  -44.1570 N.am      8 UNK        -0.5000 
     35 C           3.4171  -17.7743  -44.4087 C.2       7 UNK         0.5000 
     36 O           3.9577  -18.4617  -45.2751 O.2       7 UNK        -0.5000 
     37 CA          4.2765  -16.8079  -43.5689 C.3       7 UNK         0.1400 
     38 CB          4.6486  -15.5698  -44.3989 C.3       7 UNK        -0.1800 
     39 N           3.6160  -16.3666  -42.3393 N.am      7 UNK        -0.5000 
     40 C           3.4941  -17.1082  -41.2300 C.2       6 UNK         0.5000 
     41 O           3.9636  -18.2395  -41.1083 O.2       6 UNK        -0.5000 
     42 CA          2.6620  -16.4961  -40.0846 C.3       6 UNK         0.1400 
     43 CB          3.5476  -15.6310  -39.1753 C.3       6 UNK        -0.1800 
     44 N           1.5214  -15.6988  -40.5543 N.am      6 UNK        -0.5000 
     45 C           0.5054  -16.1913  -41.2753 C.2       5 UNK         0.5000 
     46 O           0.4458  -17.3690  -41.6343 O.2       5 UNK        -0.5000 
     47 CA         -0.5829  -15.1923  -41.7152 C.3       5 UNK         0.1400 
     48 CB         -0.1016  -14.3786  -42.9257 C.3       5 UNK        -0.1800 
     49 N          -1.8346  -15.8671  -42.0660 N.am      5 UNK        -0.5000 
     50 C          -2.6530  -16.4453  -41.1747 C.2       4 UNK         0.5000 
     51 O          -2.4790  -16.3712  -39.9562 O.2       4 UNK        -0.5000 
     52 CA         -3.8479  -17.2573  -41.7258 C.3       4 UNK         0.1400 
     53 CB         -5.0264  -17.3390  -40.7324 C.3       4 UNK        -0.1800 
     54 N          -4.3148  -16.8298  -43.0494 N.am      4 UNK        -0.5000 
     55 C          -4.8357  -15.6419  -43.3890 C.2       3 UNK         0.5000 
     56 O          -4.9989  -14.7002  -42.6106 O.2       3 UNK        -0.5000 
     57 CA         -5.2171  -15.4835  -44.8759 C.3       3 UNK         0.1400 
     58 CB         -6.6422  -14.9239  -45.0235 C.3       3 UNK        -0.1800 
     59 N          -4.2904  -14.6314  -45.6269 N.am      3 UNK        -0.5000 
     60 C          -2.9585  -14.7687  -45.6795 C.2       2 UNK         0.5000 
     61 O          -2.3363  -15.6255  -45.0495 O.2       2 UNK        -0.5000 
     62 CA         -2.2064  -13.7677  -46.5797 C.3       2 UNK         0.1400 
     63 CB         -2.2179  -12.3579  -45.9665 C.3       2 UNK        -0.1800 
     64 N          -0.8156  -14.1607  -46.8044 N.am      2 UNK        -0.5000 
     65 C          -0.4016  -15.1719  -47.5780 C.2       1 UNK         0.5000 
     66 O          -1.1689  -15.8525  -48.2594 O.2       1 UNK        -0.5000 
     67 C          -0.5739  -23.0053  -47.6234 C.2       11 UNK         0.5000 
     68 O          -1.6588  -23.5718  -47.4895 O.2       11 UNK        -0.5000 
     69 N          -0.4427  -21.6835  -47.7745 N.am      12 UNK        -0.5000 
     70 CA         -1.5253  -20.7217  -47.9876 C.3       12 UNK         0.1400 
     71 CB         -0.9006  -19.3519  -48.2403 C.3       12 UNK        -0.1800 
     72 C          -2.5871  -20.6441  -46.8791 C.2       12 UNK         0.5000 
     73 O          -3.7263  -20.2823  -47.1714 O.2       12 UNK        -0.5000 
     74 N          -2.2176  -21.0113  -45.6468 N.am      13 UNK        -0.5000 
     75 CA         -3.1298  -21.1373  -44.5094 C.3       13 UNK         0.1400 
     76 CB         -2.3151  -21.3965  -43.2336 C.3       13 UNK        -0.1800 
     77 C          -4.1983  -22.2311  -44.7148 C.2       13 UNK         0.5000 
     78 O          -5.3043  -22.0978  -44.1902 O.2       13 UNK        -0.5000 
     79 N          -3.8605  -23.2673  -45.4951 N.am      14 UNK        -0.5000 
     80 CA         -4.7912  -24.2881  -45.9687 C.3       14 UNK         0.1400 
     81 CB         -4.0940  -25.6577  -45.9617 C.3       14 UNK        -0.1800 
     82 C          -5.2982  -23.9424  -47.3793 C.2       14 UNK         0.5000 
     83 O          -6.4997  -24.0289  -47.6315 O.2       14 UNK        -0.5000 
     84 N          -4.3836  -23.5342  -48.2711 N.am      15 UNK        -0.5000 
     85 CA         -4.6260  -23.2695  -49.6927 C.3       15 UNK         0.1400 
     86 CB         -3.3203  -23.4986  -50.4765 C.3       15 UNK        -0.1800 
     87 C          -5.2661  -21.8949  -49.9977 C.2       15 UNK         0.5000 
     88 O          -4.9585  -21.2991  -51.0326 O.2       15 UNK        -0.5000 
     89 N          -6.1653  -21.4349  -49.1175 N.am      16 UNK        -0.5000 
     90 CA         -7.0649  -20.2856  -49.2717 C.3       16 UNK         0.1400 
     91 CB         -8.1570  -20.6237  -50.3092 C.3       16 UNK        -0.1800 
     92 C          -6.3475  -18.9552  -49.5846 C.2       16 UNK         0.5000 
     93 O          -6.6945  -18.2830  -50.5556 O.2       16 UNK        -0.5000 
     94 N          -5.3357  -18.6095  -48.7753 N.am      17 UNK        -0.5000 
     95 CA         -4.4719  -17.4271  -48.9205 C.3       17 UNK         0.1400 
     96 CB         -5.2727  -16.1224  -48.7300 C.3       17 UNK        -0.1800 
     97 C          -3.6679  -17.4602  -50.2385 C.2       17 UNK         0.5000 
     98 O          -3.5180  -16.4386  -50.9096 O.2       17 UNK        -0.5000 
     99 N          -3.2131  -18.6728  -50.5864 N.am      18 UNK        -0.5000 
    100 CA        -2.4700  -19.0733  -51.7840 C.3       18 UNK         0.1400 
    101 CB        -1.2159  -18.2038  -52.0084 C.3       18 UNK        -0.1800 
    102 C         -3.3251  -19.1553  -53.0610 C.2       18 UNK         0.5000 
    103 O         -2.7914  -19.5632  -54.0915 O.2       18 UNK        -0.5000 
    104 N         -4.6216  -18.8172  -52.9982 N.am      19 UNK        -0.5000 
    105 CA        -5.5253  -18.8072  -54.1503 C.3       19 UNK         0.1400 
    106 CB        -6.8597  -18.1554  -53.7623 C.3       19 UNK        -0.1800 
    107 C         -5.7671  -20.2006  -54.7564 C.2       19 UNK         0.5000 
    108 O         -5.9148  -20.3056  -55.9743 O.2       19 UNK        -0.5000 
    109 N         -5.7737  -21.2462  -53.9178 N.am      20 UNK        -0.5000 
    110 CA        -5.9325  -22.6308  -54.3678 C.3       20 UNK         0.1400 
    111 CB        -6.4921  -23.4809  -53.2178 C.3       20 UNK        -0.1800 
    112 C         -4.6175  -23.2332  -54.9001 C.2       20 UNK         0.5000 
    113 O         -4.6659  -24.1834  -55.6820 O.2       20 UNK        -0.5000 
    114 N         -3.4747  -22.6859  -54.4644 N.am      21 UNK        -0.5000 
    115 CA        -2.1405  -23.1430  -54.8480 C.3       21 UNK         0.1400 
    116 CB        -1.1682  -22.9148  -53.6784 C.3       21 UNK        -0.1800 
    117 C         -1.6313  -22.4367  -56.1145 C.2       21 UNK         0.5000 
    118 O         -1.1584  -23.1055  -57.0346 O.2       21 UNK        -0.5000 
    119 N         -1.7185  -21.1026  -56.1216 N.am      22 UNK        -0.5000 
    120 CA        -1.1022  -20.2029  -57.1085 C.3       22 UNK         0.1400 
    121 C         -2.1023  -19.1764  -57.7156 C.2       22 UNK         0.5000 
    122 N         -3.4014  -19.2706  -57.4632 N.am      22 UNK        -0.7600 
    123 O         -1.6991  -18.2865  -58.4599 O.2       22 UNK        -0.5000 
    124 C124        0.1550  -19.5062  -56.5148 C.3       23 UNK        -0.0398 
    125 S125        1.5162  -20.6806  -56.2046 S.3       23 UNK        -0.2404 
    126 C126        2.6870  -19.6525  -55.2549 C.3       23 UNK        -0.0205 
    127 H127        3.4450  -12.2433  -48.1544 H         1 UNK         0.0600 
    128 H128        3.9849  -12.1803  -46.4739 H         1 UNK         0.0600 
    129 H129        2.5761  -11.2442  -46.9852 H         1 UNK         0.0600 
    130 H130        2.3295  -14.1127  -48.6354 H         1 UNK         0.3000 
    131 H131        1.3251  -15.8720  -46.5838 H         1 UNK         0.0600 
    132 H132        2.5403  -16.9292  -48.2756 H         1 UNK         0.0800 
    133 H133        0.9050  -17.4271  -48.5267 H         1 UNK         0.0800 
    134 H134        3.7155  -17.3021  -50.1554 H         1 UNK         0.0800 
    135 H135        3.6159  -16.3996  -51.6339 H         1 UNK         0.0800 
    136 H136        3.1594  -17.5529  -53.6194 H         1 UNK         0.1150 
    137 H137        1.6269  -21.5516  -53.5489 H         1 UNK         0.1150 
    138 H138        1.9166  -19.3065  -49.9122 H         1 UNK         0.1150 
    139 H139        0.1536  -21.4124  -50.4257 H         1 UNK         0.0800 
    140 H140        0.8163  -22.5248  -51.5929 H         1 UNK         0.0800 
    141 H141        2.0199  -24.7348  -49.1409 H         1 UNK         0.0800 
    142 H142        0.5385  -24.1579  -49.8103 H         1 UNK         0.0800 
    143 H143        0.4355  -24.8377  -47.3623 H         1 UNK         0.0600 
    144 H144        1.4457  -22.4875  -46.1571 H         1 UNK         0.3000 
    145 H145        4.2320  -24.1741  -44.7173 H         1 UNK         0.0600 
    146 H146        5.6071  -22.2109  -45.3632 H         1 UNK         0.0600 
    147 H147        5.3811  -23.2706  -46.7458 H         1 UNK         0.0600 
    148 H148        4.4505  -21.7825  -46.6247 H         1 UNK         0.0600 
    149 H149        3.2886  -21.4715  -44.4963 H         1 UNK         0.3000 
    150 H150        0.6153  -21.9544  -42.3615 H         1 UNK         0.0600 
    151 H151        2.3507  -22.4684  -40.6312 H         1 UNK         0.0600 
    152 H152        1.8444  -20.7880  -40.5531 H         1 UNK         0.0600 
    153 H153        3.3888  -21.2090  -41.2914 H         1 UNK         0.0600 
    154 H154        2.0498  -19.5956  -42.6831 H         1 UNK         0.3000 
    155 H155        1.4448  -18.6633  -45.9385 H         1 UNK         0.0600 
    156 H156       -0.9656  -18.4999  -45.4472 H         1 UNK         0.0600 
    157 H157       -0.2068  -16.9586  -45.1146 H         1 UNK         0.0600 
    158 H158       -0.6564  -18.0348  -43.7954 H         1 UNK         0.0600 
    159 H159        1.7293  -17.2810  -43.3794 H         1 UNK         0.3000 
    160 H160        5.1976  -17.3322  -43.3053 H         1 UNK         0.0600 
    161 H161        5.3216  -14.9127  -43.8478 H         1 UNK         0.0600 
    162 H162        5.1558  -15.8525  -45.3223 H         1 UNK         0.0600 
    163 H163        3.7658  -14.9924  -44.6729 H         1 UNK         0.0600 
    164 H164        3.1989  -15.4474  -42.3524 H         1 UNK         0.3000 
    165 H165        2.2672  -17.3224  -39.4897 H         1 UNK         0.0600 
    166 H166        2.9901  -15.2666  -38.3123 H         1 UNK         0.0600 
    167 H167        4.3940  -16.2044  -38.7948 H         1 UNK         0.0600 
    168 H168        3.9487  -14.7668  -39.7063 H         1 UNK         0.0600 
    169 H169        1.5180  -14.7215  -40.2993 H         1 UNK         0.3000 
    170 H170       -0.7787  -14.5063  -40.8886 H         1 UNK         0.0600 
    171 H171        0.8041  -13.8172  -42.6941 H         1 UNK         0.0600 
    172 H172        0.1203  -15.0163  -43.7815 H         1 UNK         0.0600 
    173 H173       -0.8567  -13.6572  -43.2351 H         1 UNK         0.0600 
    174 H174       -2.0380  -15.9596  -43.0563 H         1 UNK         0.3000 
    175 H175       -3.4693  -18.2716  -41.8606 H         1 UNK         0.0600 
    176 H176       -5.8440  -17.9346  -41.1384 H         1 UNK         0.0600 
    177 H177       -4.7201  -17.8089  -39.7972 H         1 UNK         0.0600 
    178 H178       -5.4190  -16.3516  -40.4880 H         1 UNK         0.0600 
    179 H179       -4.1731  -17.5030  -43.7886 H         1 UNK         0.3000 
    180 H180       -5.1990  -16.4698  -45.3442 H         1 UNK         0.0600 
    181 H181       -6.7201  -13.9109  -44.6265 H         1 UNK         0.0600 
    182 H182       -7.3615  -15.5428  -44.4855 H         1 UNK         0.0600 
    183 H183       -6.9557  -14.8976  -46.0669 H         1 UNK         0.0600 
    184 H184       -4.7150  -13.8754  -46.1430 H         1 UNK         0.3000 
    185 H185       -2.7138  -13.7343  -47.5459 H         1 UNK         0.0600 
    186 H186       -3.2360  -11.9977  -45.8149 H         1 UNK         0.0600 
    187 H187       -1.7145  -12.3338  -45.0001 H         1 UNK         0.0600 
    188 H188       -1.7180  -11.6422  -46.6195 H         1 UNK         0.0600 
    189 H189       -0.1132  -13.6977  -46.2368 H         1 UNK         0.3000 
    190 H190        0.4944  -21.3150  -47.8476 H         1 UNK         0.3000 
    191 H191       -2.0544  -21.0145  -48.8941 H         1 UNK         0.0600 
    192 H192       -0.1591  -19.1171  -47.4827 H         1 UNK         0.0600 
    193 H193       -1.6408  -18.5535  -48.2329 H         1 UNK         0.0600 
    194 H194       -0.4039  -19.3292  -49.2077 H         1 UNK         0.0600 
    195 H195       -1.2392  -21.2365  -45.4849 H         1 UNK         0.3000 
    196 H196       -3.6530  -20.1860  -44.3927 H         1 UNK         0.0600 
    197 H197       -2.9680  -21.5064  -42.3668 H         1 UNK         0.0600 
    198 H198       -1.6374  -20.5688  -43.0244 H         1 UNK         0.0600 
    199 H199       -1.7203  -22.3069  -43.3169 H         1 UNK         0.0600 
    200 H200       -2.9369  -23.2777  -45.9124 H         1 UNK         0.3000 
    201 H201       -5.6558  -24.3496  -45.3043 H         1 UNK         0.0600 
    202 H202       -3.7704  -25.9273  -44.9563 H         1 UNK         0.0600 
    203 H203       -3.2167  -25.6725  -46.6094 H         1 UNK         0.0600 
    204 H204       -4.7701  -26.4409  -46.3068 H         1 UNK         0.0600 
    205 H205       -3.4110  -23.5014  -47.9759 H         1 UNK         0.3000 
    206 H206       -5.3411  -24.0146  -50.0464 H         1 UNK         0.0600 
    207 H207       -2.9067  -24.4865  -50.2736 H         1 UNK         0.0600 
    208 H208       -3.4941  -23.4402  -51.5509 H         1 UNK         0.0600 
    209 H209       -2.5581  -22.7621  -50.2293 H         1 UNK         0.0600 
    210 H210       -6.3387  -22.0186  -48.3085 H         1 UNK         0.3000 
    211 H211       -7.5566  -20.1465  -48.3080 H         1 UNK         0.0600 
    212 H212       -7.7380  -20.7621  -51.3067 H         1 UNK         0.0600 
    213 H213       -8.8985  -19.8265  -50.3732 H         1 UNK         0.0600 
    214 H214       -8.6871  -21.5372  -50.0400 H         1 UNK         0.0600 
    215 H215       -5.0511  -19.2642  -48.0495 H         1 UNK         0.3000 
    216 H216       -3.7429  -17.4779  -48.1108 H         1 UNK         0.0600 
    217 H217       -4.6031  -15.2645  -48.6629 H         1 UNK         0.0600 
    218 H218       -5.8595  -16.1531  -47.8135 H         1 UNK         0.0600 
    219 H219       -5.9566  -15.9372  -49.5586 H         1 UNK         0.0600 
    220 H220       -3.5087  -19.4412  -50.0016 H         1 UNK         0.3000 
    221 H221       -2.1296  -20.0905  -51.5853 H         1 UNK         0.0600 
    222 H222       -1.4704  -17.2100  -52.3769 H         1 UNK         0.0600 
    223 H223       -0.6408  -18.0767  -51.0932 H         1 UNK         0.0600 
    224 H224       -0.5549  -18.6589  -52.7468 H         1 UNK         0.0600 
    225 H225       -5.0151  -18.5372  -52.1087 H         1 UNK         0.3000 
    226 H226       -5.0612  -18.1891  -54.9217 H         1 UNK         0.0600 
    227 H227       -7.4980  -18.0269  -54.6373 H         1 UNK         0.0600 
    228 H228       -7.4107  -18.7647  -53.0452 H         1 UNK         0.0600 
    229 H229       -6.7079  -17.1700  -53.3213 H         1 UNK         0.0600 
    230 H230       -5.6063  -21.0948  -52.9271 H         1 UNK         0.3000 
    231 H231       -6.6614  -22.6565  -55.1809 H         1 UNK         0.0600 
    232 H232       -7.3987  -23.0414  -52.8015 H         1 UNK         0.0600 
    233 H233       -5.7689  -23.5911  -52.4126 H         1 UNK         0.0600 
    234 H234       -6.7447  -24.4834  -53.5650 H         1 UNK         0.0600 
    235 H235       -3.5286  -21.8760  -53.8644 H         1 UNK         0.3000 
    236 H236       -2.1659  -24.2160  -55.0504 H         1 UNK         0.0600 
    237 H237       -0.1562  -23.2144  -53.9534 H         1 UNK         0.0600 
    238 H238       -1.1297  -21.8670  -53.3778 H         1 UNK         0.0600 
    239 H239       -1.4510  -23.5056  -52.8081 H         1 UNK         0.0600 
    240 H240       -2.1402  -20.6248  -55.3260 H         1 UNK         0.3000 
    241 H241       -0.7776  -20.7888  -57.9700 H         1 UNK         0.0600 
    242 H242       -3.7720  -20.0027  -56.8765 H         1 UNK         0.3800 
    243 H243       -4.0320  -18.6054  -57.8810 H         1 UNK         0.3800 
    244 H244        0.5395  -18.7433  -57.1935 H         1 UNK         0.0800 
    245 H245       -0.0986  -18.9941  -55.5847 H         1 UNK         0.0800 
    246 H246        3.6838  -20.0790  -55.3723 H         1 UNK         0.0800 
    247 H247        2.7261  -18.6586  -55.7036 H         1 UNK         0.0800 
@<TRIPOS>BOND
     1    1    2 1    
     2    1  127 1    
     3    1  128 1    
     4    1  129 1    
     5    2    3 2    
     6    2    4 am   BACKBONE|DICT|INTERRES
     7    4    5 1    
     8    4  130 1    
     9    5    6 1    
    10    5   65 1    
    11    5  131 1    
    12    6    7 1    
    13    6  132 1    
    14    6  133 1    
    15    7    8 1    
    16    8    9 1    
    17    8  134 1    
    18    8  135 1    
    19    9   10 ar   
    20    9   14 ar   
    21   10   11 ar   
    22   10  136 1    
    23   11   12 ar   
    24   11  126 1    
    25   12   13 ar   
    26   12  137 1    
    27   13   14 ar   
    28   13   15 1    
    29   14  138 1    
    30   15   16 1    
    31   15  139 1    
    32   15  140 1    
    33   16   17 1    
    34   17   18 1    
    35   17  141 1    
    36   17  142 1    
    37   18   19 1    
    38   18   67 1    
    39   18  143 1    
    40   19   20 am   BACKBONE|DICT|INTERRES
    41   19  144 1    
    42   20   21 2    
    43   20   22 1    
    44   22   23 1    
    45   22   24 1    
    46   22  145 1    
    47   23  146 1    
    48   23  147 1    
    49   23  148 1    
    50   24   25 am   BACKBONE|DICT|INTERRES
    51   24  149 1    
    52   25   26 2    
    53   25   27 1    
    54   27   28 1    
    55   27   29 1    
    56   27  150 1    
    57   28  151 1    
    58   28  152 1    
    59   28  153 1    
    60   29   30 am   BACKBONE|DICT|INTERRES
    61   29  154 1    
    62   30   31 2    
    63   30   32 1    
    64   32   33 1    
    65   32   34 1    
    66   32  155 1    
    67   33  156 1    
    68   33  157 1    
    69   33  158 1    
    70   34   35 am   BACKBONE|DICT|INTERRES
    71   34  159 1    
    72   35   36 2    
    73   35   37 1    
    74   37   38 1    
    75   37   39 1    
    76   37  160 1    
    77   38  161 1    
    78   38  162 1    
    79   38  163 1    
    80   39   40 am   BACKBONE|DICT|INTERRES
    81   39  164 1    
    82   40   41 2    
    83   40   42 1    
    84   42   43 1    
    85   42   44 1    
    86   42  165 1    
    87   43  166 1    
    88   43  167 1    
    89   43  168 1    
    90   44   45 am   BACKBONE|DICT|INTERRES
    91   44  169 1    
    92   45   46 2    
    93   45   47 1    
    94   47   48 1    
    95   47   49 1    
    96   47  170 1    
    97   48  171 1    
    98   48  172 1    
    99   48  173 1    
   100   49   50 am   BACKBONE|DICT|INTERRES
   101   49  174 1    
   102   50   51 2    
   103   50   52 1    
   104   52   53 1    
   105   52   54 1    
   106   52  175 1    
   107   53  176 1    
   108   53  177 1    
   109   53  178 1    
   110   54   55 am   BACKBONE|DICT|INTERRES
   111   54  179 1    
   112   55   56 2    
   113   55   57 1    
   114   57   58 1    
   115   57   59 1    
   116   57  180 1    
   117   58  181 1    
   118   58  182 1    
   119   58  183 1    
   120   59   60 am   BACKBONE|DICT|INTERRES
   121   59  184 1    
   122   60   61 2    
   123   60   62 1    
   124   62   63 1    
   125   62   64 1    
   126   62  185 1    
   127   63  186 1    
   128   63  187 1    
   129   63  188 1    
   130   64   65 am   BACKBONE|DICT|INTERRES
   131   64  189 1    
   132   65   66 2    
   133   67   68 2    
   134   67   69 am   BACKBONE|DICT|INTERRES
   135   69   70 1    
   136   69  190 1    
   137   70   71 1    
   138   70   72 1    
   139   70  191 1    
   140   71  192 1    
   141   71  193 1    
   142   71  194 1    
   143   72   73 2    
   144   72   74 am   BACKBONE|DICT|INTERRES
   145   74   75 1    
   146   74  195 1    
   147   75   76 1    
   148   75   77 1    
   149   75  196 1    
   150   76  197 1    
   151   76  198 1    
   152   76  199 1    
   153   77   78 2    
   154   77   79 am   BACKBONE|DICT|INTERRES
   155   79   80 1    
   156   79  200 1    
   157   80   81 1    
   158   80   82 1    
   159   80  201 1    
   160   81  202 1    
   161   81  203 1    
   162   81  204 1    
   163   82   83 2    
   164   82   84 am   BACKBONE|DICT|INTERRES
   165   84   85 1    
   166   84  205 1    
   167   85   86 1    
   168   85   87 1    
   169   85  206 1    
   170   86  207 1    
   171   86  208 1    
   172   86  209 1    
   173   87   88 2    
   174   87   89 am   BACKBONE|DICT|INTERRES
   175   89   90 1    
   176   89  210 1    
   177   90   91 1    
   178   90   92 1    
   179   90  211 1    
   180   91  212 1    
   181   91  213 1    
   182   91  214 1    
   183   92   93 2    
   184   92   94 am   BACKBONE|DICT|INTERRES
   185   94   95 1    
   186   94  215 1    
   187   95   96 1    
   188   95   97 1    
   189   95  216 1    
   190   96  217 1    
   191   96  218 1    
   192   96  219 1    
   193   97   98 2    
   194   97   99 am   BACKBONE|DICT|INTERRES
   195   99  100 1    
   196   99  220 1    
   197  100  101 1    
   198  100  102 1    
   199  100  221 1    
   200  101  222 1    
   201  101  223 1    
   202  101  224 1    
   203  102  103 2    
   204  102  104 am   BACKBONE|DICT|INTERRES
   205  104  105 1    
   206  104  225 1    
   207  105  106 1    
   208  105  107 1    
   209  105  226 1    
   210  106  227 1    
   211  106  228 1    
   212  106  229 1    
   213  107  108 2    
   214  107  109 am   BACKBONE|DICT|INTERRES
   215  109  110 1    
   216  109  230 1    
   217  110  111 1    
   218  110  112 1    
   219  110  231 1    
   220  111  232 1    
   221  111  233 1    
   222  111  234 1    
   223  112  113 2    
   224  112  114 am   BACKBONE|DICT|INTERRES
   225  114  115 1    
   226  114  235 1    
   227  115  116 1    
   228  115  117 1    
   229  115  236 1    
   230  116  237 1    
   231  116  238 1    
   232  116  239 1    
   233  117  118 2    
   234  117  119 am   BACKBONE|DICT|INTERRES
   235  119  120 1    
   236  119  240 1    
   237  120  121 1    
   238  120  124 1    
   239  120  241 1    
   240  121  122 am   BACKBONE|DICT|INTERRES
   241  121  123 2    
   242  122  242 1    
   243  122  243 1    
   244  124  125 1    
   245  124  244 1    
   246  124  245 1    
   247  125  126 1    
   248  126  246 1    
   249  126  247 1    
@<TRIPOS>SUBSTRUCTURE
     1 UNK         1 GROUP             0       ****    0 ROOT    
