@<TRIPOS>MOLECULE
3R540
247   249    1
SMALL
USER_CHARGES


@<TRIPOS>ATOM
      1 CA          4.6908  -10.2086  -48.6059 C.3       0 UNK        -0.1800 
      2 C           3.5229  -10.8587  -47.8802 C.2       0 UNK         0.5000 
      3 O           3.3879  -10.6938  -46.6685 O.2       0 UNK        -0.5000 
      4 N           2.6660  -11.5786  -48.6161 N.am      1 UNK        -0.5000 
      5 CA          1.5141  -12.3476  -48.1160 C.3       1 UNK         0.1400 
      6 C6          0.8447  -13.1627  -49.2467 C.3       23 UNK        -0.0398 
      7 S7          1.9684  -14.4065  -49.9685 S.3       23 UNK        -0.2404 
      8 C8          1.3217  -15.9096  -49.1741 C.3       23 UNK        -0.0205 
      9 C9          1.9271  -17.1873  -49.7324 C.ar      23 UNK        -0.0193 
     10 C10         1.8156  -17.4821  -51.0918 C.ar      23 UNK        -0.1150 
     11 C11         2.3097  -18.6814  -51.6161 C.ar      23 UNK        -0.0193 
     12 C12         2.9174  -19.5937  -50.7444 C.ar      23 UNK        -0.1150 
     13 C13         3.0188  -19.3230  -49.3741 C.ar      23 UNK        -0.0193 
     14 C14         2.5356  -18.1093  -48.8809 C.ar      23 UNK        -0.1150 
     15 C15         3.6350  -20.3302  -48.4074 C.3       23 UNK        -0.0205 
     16 S16         2.9712  -22.0226  -48.5726 S.3       23 UNK        -0.2404 
     17 C17         1.1623  -21.7744  -48.5664 C.3       23 UNK        -0.0398 
     18 CA          0.4370  -22.7955  -47.6552 C.3       11 UNK         0.1400 
     19 N           0.3362  -22.3486  -46.2631 N.am      11 UNK        -0.5000 
     20 C          -0.0504  -23.1366  -45.2496 C.2       10 UNK         0.5000 
     21 O          -0.3312  -24.3283  -45.3798 O.2       10 UNK        -0.5000 
     22 CA         -0.1924  -22.4790  -43.8664 C.3       10 UNK         0.1400 
     23 CB          1.1846  -22.2355  -43.2313 C.3       10 UNK        -0.1800 
     24 N          -0.9561  -21.2308  -43.9058 N.am      10 UNK        -0.5000 
     25 C          -2.2428  -21.1413  -44.2736 C.2       9 UNK         0.5000 
     26 O          -2.9265  -22.1077  -44.6078 O.2       9 UNK        -0.5000 
     27 CA         -2.8679  -19.7356  -44.3107 C.3       9 UNK         0.1400 
     28 CB         -3.2538  -19.2699  -42.8990 C.3       9 UNK        -0.1800 
     29 N          -1.9972  -18.7418  -44.9352 N.am      9 UNK        -0.5000 
     30 C          -1.5732  -18.7896  -46.2060 C.2       8 UNK         0.5000 
     31 O          -1.8938  -19.6659  -47.0066 O.2       8 UNK        -0.5000 
     32 CA         -0.5656  -17.7095  -46.6322 C.3       8 UNK         0.1400 
     33 CB         -1.2682  -16.3550  -46.8303 C.3       8 UNK        -0.1800 
     34 N           0.5294  -17.5744  -45.6689 N.am      8 UNK        -0.5000 
     35 C           1.3594  -18.5694  -45.3165 C.2       7 UNK         0.5000 
     36 O           1.3389  -19.6934  -45.8161 O.2       7 UNK        -0.5000 
     37 CA          2.3500  -18.2728  -44.1811 C.3       7 UNK         0.1400 
     38 CB          3.5889  -17.5407  -44.7172 C.3       7 UNK        -0.1800 
     39 N           1.7215  -17.4963  -43.1119 N.am      7 UNK        -0.5000 
     40 C           0.7883  -17.9862  -42.2812 C.2       6 UNK         0.5000 
     41 O           0.4030  -19.1545  -42.3008 O.2       6 UNK        -0.5000 
     42 CA          0.1444  -16.9950  -41.2947 C.3       6 UNK         0.1400 
     43 CB          1.0159  -16.8333  -40.0406 C.3       6 UNK        -0.1800 
     44 N          -0.0901  -15.6828  -41.8970 N.am      6 UNK        -0.5000 
     45 C          -0.9554  -15.4491  -42.8943 C.2       5 UNK         0.5000 
     46 O          -1.7005  -16.3082  -43.3641 O.2       5 UNK        -0.5000 
     47 CA         -0.9482  -14.0331  -43.5003 C.3       5 UNK         0.1400 
     48 CB         -1.9723  -13.1324  -42.7957 C.3       5 UNK        -0.1800 
     49 N           0.3694  -13.3978  -43.4458 N.am      5 UNK        -0.5000 
     50 C           1.4549  -13.8222  -44.1040 C.2       4 UNK         0.5000 
     51 O           1.4557  -14.8181  -44.8310 O.2       4 UNK        -0.5000 
     52 CA          2.7460  -13.0045  -43.8902 C.3       4 UNK         0.1400 
     53 CB          3.9145  -13.4956  -44.7631 C.3       4 UNK        -0.1800 
     54 N           2.5413  -11.5777  -44.1388 N.am      4 UNK        -0.5000 
     55 C           1.9967  -10.6980  -43.2876 C.2       3 UNK         0.5000 
     56 O           1.5688  -11.0049  -42.1742 O.2       3 UNK        -0.5000 
     57 CA          1.8715   -9.2491  -43.7828 C.3       3 UNK         0.1400 
     58 CB          3.2403   -8.5500  -43.7830 C.3       3 UNK        -0.1800 
     59 N           1.3134   -9.2257  -45.1328 N.am      3 UNK        -0.5000 
     60 C           0.0149   -9.0581  -45.4188 C.2       2 UNK         0.5000 
     61 O          -0.8460   -8.8009  -44.5765 O.2       2 UNK        -0.5000 
     62 CA         -0.3985   -9.2183  -46.8962 C.3       2 UNK         0.1400 
     63 CB         -0.3438   -7.8652  -47.6216 C.3       2 UNK        -0.1800 
     64 N           0.4336  -10.1825  -47.6183 N.am      2 UNK        -0.5000 
     65 C           0.4538  -11.5011  -47.3758 C.2       1 UNK         0.5000 
     66 O          -0.3130  -12.0559  -46.5892 O.2       1 UNK        -0.5000 
     67 C          -0.9378  -23.1881  -48.2329 C.2       11 UNK         0.5000 
     68 O          -1.0262  -24.2150  -48.9067 O.2       11 UNK        -0.5000 
     69 N          -1.9882  -22.4083  -47.9343 N.am      12 UNK        -0.5000 
     70 CA         -3.3618  -22.7062  -48.3428 C.3       12 UNK         0.1400 
     71 CB         -4.2850  -21.5251  -48.0096 C.3       12 UNK        -0.1800 
     72 C          -3.8971  -24.0075  -47.7216 C.2       12 UNK         0.5000 
     73 O          -4.5114  -24.8030  -48.4295 O.2       12 UNK        -0.5000 
     74 N          -3.6238  -24.2244  -46.4276 N.am      13 UNK        -0.5000 
     75 CA         -3.9751  -25.4457  -45.7023 C.3       13 UNK         0.1400 
     76 CB         -3.7258  -25.2454  -44.1999 C.3       13 UNK        -0.1800 
     77 C          -3.2218  -26.6849  -46.2185 C.2       13 UNK         0.5000 
     78 O          -3.8265  -27.7510  -46.3366 O.2       13 UNK        -0.5000 
     79 N          -1.9282  -26.5211  -46.5308 N.am      14 UNK        -0.5000 
     80 CA         -1.0704  -27.5683  -47.0860 C.3       14 UNK         0.1400 
     81 CB          0.3946  -27.1061  -47.0544 C.3       14 UNK        -0.1800 
     82 C          -1.4817  -27.9819  -48.5105 C.2       14 UNK         0.5000 
     83 O          -1.5349  -29.1772  -48.8034 O.2       14 UNK        -0.5000 
     84 N          -1.7714  -26.9917  -49.3654 N.am      15 UNK        -0.5000 
     85 CA         -2.2194  -27.1977  -50.7432 C.3       15 UNK         0.1400 
     86 CB         -2.0469  -25.8884  -51.5224 C.3       15 UNK        -0.1800 
     87 C          -3.6777  -27.6823  -50.8381 C.2       15 UNK         0.5000 
     88 O          -4.0144  -28.4062  -51.7760 O.2       15 UNK        -0.5000 
     89 N          -4.5144  -27.2534  -49.8835 N.am      16 UNK        -0.5000 
     90 CA         -5.9463  -27.5133  -49.7033 C.3       16 UNK         0.1400 
     91 CB         -6.2381  -29.0183  -49.5522 C.3       16 UNK        -0.1800 
     92 C          -6.8412  -26.8647  -50.7763 C.2       16 UNK         0.5000 
     93 O          -7.7940  -26.1661  -50.4291 O.2       16 UNK        -0.5000 
     94 N          -6.5281  -27.1038  -52.0547 N.am      17 UNK        -0.5000 
     95 CA         -7.2680  -26.5901  -53.2074 C.3       17 UNK         0.1400 
     96 CB         -6.9752  -27.4827  -54.4229 C.3       17 UNK        -0.1800 
     97 C          -6.9376  -25.1212  -53.5293 C.2       17 UNK         0.5000 
     98 O          -7.7959  -24.4084  -54.0521 O.2       17 UNK        -0.5000 
     99 N          -5.7043  -24.6936  -53.2280 N.am      18 UNK        -0.5000 
    100 CA        -5.2051  -23.3460  -53.4931 C.3       18 UNK         0.1400 
    101 CB        -3.6852  -23.4029  -53.7217 C.3       18 UNK        -0.1800 
    102 C         -5.5937  -22.3970  -52.3469 C.2       18 UNK         0.5000 
    103 O         -4.7813  -22.1248  -51.4605 O.2       18 UNK        -0.5000 
    104 N         -6.8466  -21.9255  -52.3717 N.am      19 UNK        -0.5000 
    105 CA        -7.3831  -20.9319  -51.4415 C.3       19 UNK         0.1400 
    106 CB        -8.8694  -20.6967  -51.7505 C.3       19 UNK        -0.1800 
    107 C         -6.5864  -19.6147  -51.5143 C.2       19 UNK         0.5000 
    108 O         -6.4106  -19.0728  -52.6075 O.2       19 UNK        -0.5000 
    109 N         -6.0956  -19.1592  -50.3533 N.am      20 UNK        -0.5000 
    110 CA        -5.1867  -18.0201  -50.1657 C.3       20 UNK         0.1400 
    111 CB        -5.8570  -16.6931  -50.5804 C.3       20 UNK        -0.1800 
    112 C         -3.7955  -18.2175  -50.8119 C.2       20 UNK         0.5000 
    113 O         -3.1200  -17.2315  -51.1159 O.2       20 UNK        -0.5000 
    114 N         -3.3823  -19.4830  -50.9875 N.am      21 UNK        -0.5000 
    115 CA        -2.0885  -19.9345  -51.5005 C.3       21 UNK         0.1400 
    116 CB        -0.9719  -19.6127  -50.4874 C.3       21 UNK        -0.1800 
    117 C         -1.8236  -19.4109  -52.9260 C.2       21 UNK         0.5000 
    118 O         -2.4167  -19.9333  -53.8701 O.2       21 UNK        -0.5000 
    119 N         -0.9613  -18.3938  -53.0656 N.am      22 UNK        -0.5000 
    120 CA        -0.7081  -17.7027  -54.3416 C.3       22 UNK         0.1400 
    121 C         -1.9163  -16.8379  -54.8219 C.2       22 UNK         0.5000 
    122 N         -2.8658  -16.4747  -53.9660 N.am      22 UNK        -0.7600 
    123 O         -1.9909  -16.4901  -55.9973 O.2       22 UNK        -0.5000 
    124 C124        0.5794  -16.8296  -54.3228 C.3       23 UNK        -0.0398 
    125 S125        2.2181  -17.6624  -54.2801 S.3       23 UNK        -0.2404 
    126 C126        2.1513  -19.0544  -53.0929 C.3       23 UNK        -0.0205 
    127 H127        4.6781  -10.4284  -49.6737 H         1 UNK         0.0600 
    128 H128        5.6332  -10.5700  -48.1946 H         1 UNK         0.0600 
    129 H129        4.6547   -9.1267  -48.4793 H         1 UNK         0.0600 
    130 H130        2.8411  -11.6752  -49.6065 H         1 UNK         0.3000 
    131 H131        1.8990  -13.0548  -47.3788 H         1 UNK         0.0600 
    132 H132       -0.0547  -13.6644  -48.8840 H         1 UNK         0.0800 
    133 H133        0.5111  -12.4995  -50.0468 H         1 UNK         0.0800 
    134 H134        0.2419  -15.9596  -49.3191 H         1 UNK         0.0800 
    135 H135        1.4999  -15.8362  -48.1001 H         1 UNK         0.0800 
    136 H136        1.3300  -16.7631  -51.7252 H         1 UNK         0.1150 
    137 H137        3.2900  -20.5334  -51.1273 H         1 UNK         0.1150 
    138 H138        2.6128  -17.8905  -47.8262 H         1 UNK         0.1150 
    139 H139        4.7125  -20.3589  -48.5728 H         1 UNK         0.0800 
    140 H140        3.4938  -20.0101  -47.3746 H         1 UNK         0.0800 
    141 H141        0.8490  -21.8775  -49.6067 H         1 UNK         0.0800 
    142 H142        0.9116  -20.7531  -48.2762 H         1 UNK         0.0800 
    143 H143        1.0225  -23.7177  -47.6487 H         1 UNK         0.0600 
    144 H144        0.5758  -21.3771  -46.0752 H         1 UNK         0.3000 
    145 H145       -0.7373  -23.1760  -43.2263 H         1 UNK         0.0600 
    146 H146        1.7725  -21.5183  -43.8036 H         1 UNK         0.0600 
    147 H147        1.0878  -21.8543  -42.2147 H         1 UNK         0.0600 
    148 H148        1.7585  -23.1614  -43.1776 H         1 UNK         0.0600 
    149 H149       -0.4712  -20.3923  -43.6025 H         1 UNK         0.3000 
    150 H150       -3.7797  -19.7954  -44.9083 H         1 UNK         0.0600 
    151 H151       -3.9200  -19.9878  -42.4190 H         1 UNK         0.0600 
    152 H152       -3.7738  -18.3123  -42.9291 H         1 UNK         0.0600 
    153 H153       -2.3787  -19.1538  -42.2592 H         1 UNK         0.0600 
    154 H154       -1.7112  -17.9592  -44.3533 H         1 UNK         0.3000 
    155 H155       -0.1293  -18.0158  -47.5846 H         1 UNK         0.0600 
    156 H156       -1.8904  -16.0879  -45.9770 H         1 UNK         0.0600 
    157 H157       -0.5565  -15.5433  -46.9770 H         1 UNK         0.0600 
    158 H158       -1.9185  -16.3853  -47.7054 H         1 UNK         0.0600 
    159 H159        0.6518  -16.6664  -45.2334 H         1 UNK         0.3000 
    160 H160        2.6788  -19.2252  -43.7602 H         1 UNK         0.0600 
    161 H161        4.1306  -18.1694  -45.4251 H         1 UNK         0.0600 
    162 H162        3.3241  -16.6227  -45.2408 H         1 UNK         0.0600 
    163 H163        4.2798  -17.2860  -43.9136 H         1 UNK         0.0600 
    164 H164        1.9441  -16.5130  -43.0729 H         1 UNK         0.3000 
    165 H165       -0.8204  -17.4066  -40.9905 H         1 UNK         0.0600 
    166 H166        0.5323  -16.1903  -39.3049 H         1 UNK         0.0600 
    167 H167        1.1921  -17.7975  -39.5619 H         1 UNK         0.0600 
    168 H168        1.9891  -16.4012  -40.2769 H         1 UNK         0.0600 
    169 H169        0.4771  -14.9170  -41.5648 H         1 UNK         0.3000 
    170 H170       -1.2335  -14.1194  -44.5507 H         1 UNK         0.0600 
    171 H171       -2.9713  -13.5683  -42.8400 H         1 UNK         0.0600 
    172 H172       -1.7231  -12.9842  -41.7443 H         1 UNK         0.0600 
    173 H173       -2.0244  -12.1520  -43.2703 H         1 UNK         0.0600 
    174 H174        0.4616  -12.5675  -42.8708 H         1 UNK         0.3000 
    175 H175        3.0389  -13.1369  -42.8468 H         1 UNK         0.0600 
    176 H176        3.6719  -13.4593  -45.8251 H         1 UNK         0.0600 
    177 H177        4.8064  -12.8892  -44.6050 H         1 UNK         0.0600 
    178 H178        4.1790  -14.5242  -44.5189 H         1 UNK         0.0600 
    179 H179        2.8516  -11.2415  -45.0485 H         1 UNK         0.3000 
    180 H180        1.2189   -8.7094  -43.0933 H         1 UNK         0.0600 
    181 H181        3.9461   -9.0352  -44.4585 H         1 UNK         0.0600 
    182 H182        3.6817   -8.5572  -42.7857 H         1 UNK         0.0600 
    183 H183        3.1478   -7.5083  -44.0902 H         1 UNK         0.0600 
    184 H184        1.9457   -9.4888  -45.8801 H         1 UNK         0.3000 
    185 H185       -1.4301   -9.5763  -46.9156 H         1 UNK         0.0600 
    186 H186       -0.7013   -7.9527  -48.6477 H         1 UNK         0.0600 
    187 H187       -0.9735   -7.1285  -47.1208 H         1 UNK         0.0600 
    188 H188        0.6702   -7.4645  -47.6511 H         1 UNK         0.0600 
    189 H189        1.0924   -9.8082  -48.2854 H         1 UNK         0.3000 
    190 H190       -1.8488  -21.5529  -47.4028 H         1 UNK         0.3000 
    191 H191       -3.3552  -22.8386  -49.4256 H         1 UNK         0.0600 
    192 H192       -4.3283  -21.3381  -46.9364 H         1 UNK         0.0600 
    193 H193       -5.3015  -21.7186  -48.3541 H         1 UNK         0.0600 
    194 H194       -3.9448  -20.6108  -48.4928 H         1 UNK         0.0600 
    195 H195       -3.1570  -23.4967  -45.8922 H         1 UNK         0.3000 
    196 H196       -5.0427  -25.6240  -45.8467 H         1 UNK         0.0600 
    197 H197       -3.9847  -26.1427  -43.6365 H         1 UNK         0.0600 
    198 H198       -4.3311  -24.4286  -43.8065 H         1 UNK         0.0600 
    199 H199       -2.6801  -25.0157  -43.9924 H         1 UNK         0.0600 
    200 H200       -1.4899  -25.6236  -46.3460 H         1 UNK         0.3000 
    201 H201       -1.1593  -28.4484  -46.4458 H         1 UNK         0.0600 
    202 H202        0.7177  -26.8914  -46.0357 H         1 UNK         0.0600 
    203 H203        0.5461  -26.2052  -47.6495 H         1 UNK         0.0600 
    204 H204        1.0567  -27.8771  -47.4502 H         1 UNK         0.0600 
    205 H205       -1.6504  -26.0275  -49.0650 H         1 UNK         0.3000 
    206 H206       -1.5850  -27.9565  -51.2061 H         1 UNK         0.0600 
    207 H207       -1.0045  -25.5694  -51.5327 H         1 UNK         0.0600 
    208 H208       -2.3630  -26.0041  -52.5598 H         1 UNK         0.0600 
    209 H209       -2.6364  -25.0857  -51.0772 H         1 UNK         0.0600 
    210 H210       -4.1483  -26.5736  -49.2239 H         1 UNK         0.3000 
    211 H211       -6.2055  -27.0400  -48.7548 H         1 UNK         0.0600 
    212 H212       -6.0216  -29.5740  -50.4647 H         1 UNK         0.0600 
    213 H213       -7.2883  -29.1866  -49.3114 H         1 UNK         0.0600 
    214 H214       -5.6458  -29.4525  -48.7464 H         1 UNK         0.0600 
    215 H215       -5.7149  -27.6858  -52.2377 H         1 UNK         0.3000 
    216 H216       -8.3373  -26.6499  -52.9932 H         1 UNK         0.0600 
    217 H217       -7.5251  -27.1411  -55.3009 H         1 UNK         0.0600 
    218 H218       -7.2731  -28.5143  -54.2347 H         1 UNK         0.0600 
    219 H219       -5.9144  -27.4810  -54.6775 H         1 UNK         0.0600 
    220 H220       -5.0773  -25.3276  -52.7572 H         1 UNK         0.3000 
    221 H221       -5.6545  -22.9681  -54.4142 H         1 UNK         0.0600 
    222 H222       -3.1421  -23.6605  -52.8147 H         1 UNK         0.0600 
    223 H223       -3.4246  -24.1299  -54.4910 H         1 UNK         0.0600 
    224 H224       -3.3130  -22.4341  -54.0536 H         1 UNK         0.0600 
    225 H225       -7.4590  -22.2297  -53.1165 H         1 UNK         0.3000 
    226 H226       -7.3035  -21.3452  -50.4338 H         1 UNK         0.0600 
    227 H227       -9.4431  -21.6189  -51.6555 H         1 UNK         0.0600 
    228 H228       -9.3013  -19.9722  -51.0589 H         1 UNK         0.0600 
    229 H229       -9.0148  -20.3132  -52.7613 H         1 UNK         0.0600 
    230 H230       -6.3058  -19.6796  -49.5133 H         1 UNK         0.3000 
    231 H231       -5.0011  -17.9644  -49.0921 H         1 UNK         0.0600 
    232 H232       -5.2520  -15.8383  -50.2760 H         1 UNK         0.0600 
    233 H233       -6.8341  -16.5802  -50.1108 H         1 UNK         0.0600 
    234 H234       -5.9924  -16.6256  -51.6601 H         1 UNK         0.0600 
    235 H235       -4.0421  -20.2305  -50.8063 H         1 UNK         0.3000 
    236 H236       -2.1524  -21.0210  -51.5793 H         1 UNK         0.0600 
    237 H237       -0.0132  -19.9912  -50.8375 H         1 UNK         0.0600 
    238 H238       -1.1749  -20.0908  -49.5308 H         1 UNK         0.0600 
    239 H239       -0.8661  -18.5441  -50.3000 H         1 UNK         0.0600 
    240 H240       -0.5439  -17.9945  -52.2388 H         1 UNK         0.3000 
    241 H241       -0.5651  -18.4700  -55.1049 H         1 UNK         0.0600 
    242 H242       -3.6389  -15.9190  -54.2946 H         1 UNK         0.3800 
    243 H243       -2.8294  -16.7554  -52.9905 H         1 UNK         0.3800 
    244 H244        0.6183  -16.2381  -55.2398 H         1 UNK         0.0800 
    245 H245        0.5188  -16.0813  -53.5340 H         1 UNK         0.0800 
    246 H246        1.2547  -19.6526  -53.2402 H         1 UNK         0.0800 
    247 H247        2.9754  -19.7161  -53.3640 H         1 UNK         0.0800 
@<TRIPOS>BOND
     1    1    2 1    
     2    1  127 1    
     3    1  128 1    
     4    1  129 1    
     5    2    3 2    
     6    2    4 am   BACKBONE|DICT|INTERRES
     7    4    5 1    
     8    4  130 1    
     9    5    6 1    
    10    5   65 1    
    11    5  131 1    
    12    6    7 1    
    13    6  132 1    
    14    6  133 1    
    15    7    8 1    
    16    8    9 1    
    17    8  134 1    
    18    8  135 1    
    19    9   10 ar   
    20    9   14 ar   
    21   10   11 ar   
    22   10  136 1    
    23   11   12 ar   
    24   11  126 1    
    25   12   13 ar   
    26   12  137 1    
    27   13   14 ar   
    28   13   15 1    
    29   14  138 1    
    30   15   16 1    
    31   15  139 1    
    32   15  140 1    
    33   16   17 1    
    34   17   18 1    
    35   17  141 1    
    36   17  142 1    
    37   18   19 1    
    38   18   67 1    
    39   18  143 1    
    40   19   20 am   BACKBONE|DICT|INTERRES
    41   19  144 1    
    42   20   21 2    
    43   20   22 1    
    44   22   23 1    
    45   22   24 1    
    46   22  145 1    
    47   23  146 1    
    48   23  147 1    
    49   23  148 1    
    50   24   25 am   BACKBONE|DICT|INTERRES
    51   24  149 1    
    52   25   26 2    
    53   25   27 1    
    54   27   28 1    
    55   27   29 1    
    56   27  150 1    
    57   28  151 1    
    58   28  152 1    
    59   28  153 1    
    60   29   30 am   BACKBONE|DICT|INTERRES
    61   29  154 1    
    62   30   31 2    
    63   30   32 1    
    64   32   33 1    
    65   32   34 1    
    66   32  155 1    
    67   33  156 1    
    68   33  157 1    
    69   33  158 1    
    70   34   35 am   BACKBONE|DICT|INTERRES
    71   34  159 1    
    72   35   36 2    
    73   35   37 1    
    74   37   38 1    
    75   37   39 1    
    76   37  160 1    
    77   38  161 1    
    78   38  162 1    
    79   38  163 1    
    80   39   40 am   BACKBONE|DICT|INTERRES
    81   39  164 1    
    82   40   41 2    
    83   40   42 1    
    84   42   43 1    
    85   42   44 1    
    86   42  165 1    
    87   43  166 1    
    88   43  167 1    
    89   43  168 1    
    90   44   45 am   BACKBONE|DICT|INTERRES
    91   44  169 1    
    92   45   46 2    
    93   45   47 1    
    94   47   48 1    
    95   47   49 1    
    96   47  170 1    
    97   48  171 1    
    98   48  172 1    
    99   48  173 1    
   100   49   50 am   BACKBONE|DICT|INTERRES
   101   49  174 1    
   102   50   51 2    
   103   50   52 1    
   104   52   53 1    
   105   52   54 1    
   106   52  175 1    
   107   53  176 1    
   108   53  177 1    
   109   53  178 1    
   110   54   55 am   BACKBONE|DICT|INTERRES
   111   54  179 1    
   112   55   56 2    
   113   55   57 1    
   114   57   58 1    
   115   57   59 1    
   116   57  180 1    
   117   58  181 1    
   118   58  182 1    
   119   58  183 1    
   120   59   60 am   BACKBONE|DICT|INTERRES
   121   59  184 1    
   122   60   61 2    
   123   60   62 1    
   124   62   63 1    
   125   62   64 1    
   126   62  185 1    
   127   63  186 1    
   128   63  187 1    
   129   63  188 1    
   130   64   65 am   BACKBONE|DICT|INTERRES
   131   64  189 1    
   132   65   66 2    
   133   67   68 2    
   134   67   69 am   BACKBONE|DICT|INTERRES
   135   69   70 1    
   136   69  190 1    
   137   70   71 1    
   138   70   72 1    
   139   70  191 1    
   140   71  192 1    
   141   71  193 1    
   142   71  194 1    
   143   72   73 2    
   144   72   74 am   BACKBONE|DICT|INTERRES
   145   74   75 1    
   146   74  195 1    
   147   75   76 1    
   148   75   77 1    
   149   75  196 1    
   150   76  197 1    
   151   76  198 1    
   152   76  199 1    
   153   77   78 2    
   154   77   79 am   BACKBONE|DICT|INTERRES
   155   79   80 1    
   156   79  200 1    
   157   80   81 1    
   158   80   82 1    
   159   80  201 1    
   160   81  202 1    
   161   81  203 1    
   162   81  204 1    
   163   82   83 2    
   164   82   84 am   BACKBONE|DICT|INTERRES
   165   84   85 1    
   166   84  205 1    
   167   85   86 1    
   168   85   87 1    
   169   85  206 1    
   170   86  207 1    
   171   86  208 1    
   172   86  209 1    
   173   87   88 2    
   174   87   89 am   BACKBONE|DICT|INTERRES
   175   89   90 1    
   176   89  210 1    
   177   90   91 1    
   178   90   92 1    
   179   90  211 1    
   180   91  212 1    
   181   91  213 1    
   182   91  214 1    
   183   92   93 2    
   184   92   94 am   BACKBONE|DICT|INTERRES
   185   94   95 1    
   186   94  215 1    
   187   95   96 1    
   188   95   97 1    
   189   95  216 1    
   190   96  217 1    
   191   96  218 1    
   192   96  219 1    
   193   97   98 2    
   194   97   99 am   BACKBONE|DICT|INTERRES
   195   99  100 1    
   196   99  220 1    
   197  100  101 1    
   198  100  102 1    
   199  100  221 1    
   200  101  222 1    
   201  101  223 1    
   202  101  224 1    
   203  102  103 2    
   204  102  104 am   BACKBONE|DICT|INTERRES
   205  104  105 1    
   206  104  225 1    
   207  105  106 1    
   208  105  107 1    
   209  105  226 1    
   210  106  227 1    
   211  106  228 1    
   212  106  229 1    
   213  107  108 2    
   214  107  109 am   BACKBONE|DICT|INTERRES
   215  109  110 1    
   216  109  230 1    
   217  110  111 1    
   218  110  112 1    
   219  110  231 1    
   220  111  232 1    
   221  111  233 1    
   222  111  234 1    
   223  112  113 2    
   224  112  114 am   BACKBONE|DICT|INTERRES
   225  114  115 1    
   226  114  235 1    
   227  115  116 1    
   228  115  117 1    
   229  115  236 1    
   230  116  237 1    
   231  116  238 1    
   232  116  239 1    
   233  117  118 2    
   234  117  119 am   BACKBONE|DICT|INTERRES
   235  119  120 1    
   236  119  240 1    
   237  120  121 1    
   238  120  124 1    
   239  120  241 1    
   240  121  122 am   BACKBONE|DICT|INTERRES
   241  121  123 2    
   242  122  242 1    
   243  122  243 1    
   244  124  125 1    
   245  124  244 1    
   246  124  245 1    
   247  125  126 1    
   248  126  246 1    
   249  126  247 1    
@<TRIPOS>SUBSTRUCTURE
     1 UNK         1 GROUP             0       ****    0 ROOT    
