@<TRIPOS>MOLECULE
3R540
247   249    1
SMALL
USER_CHARGES


@<TRIPOS>ATOM
      1 CA         -1.2750  -11.8863  -47.6160 C.3       0 UNK        -0.1800 
      2 C           0.2208  -11.9284  -47.8920 C.2       0 UNK         0.5000 
      3 O           0.9030  -10.9204  -47.7085 O.2       0 UNK        -0.5000 
      4 N           0.7298  -13.0960  -48.3113 N.am      1 UNK        -0.5000 
      5 CA          2.1277  -13.3634  -48.6924 C.3       1 UNK         0.1400 
      6 C6          2.2845  -14.8317  -49.1587 C.3       23 UNK        -0.0398 
      7 S7          3.7807  -15.1374  -50.1646 S.3       23 UNK        -0.2404 
      8 C8          3.0891  -15.5768  -51.7968 C.3       23 UNK        -0.0205 
      9 C9          2.0826  -16.7201  -51.7319 C.ar      23 UNK        -0.0193 
     10 C10         0.8012  -16.5526  -52.2652 C.ar      23 UNK        -0.1150 
     11 C11        -0.1483  -17.5739  -52.1730 C.ar      23 UNK        -0.0193 
     12 C12         0.1921  -18.7715  -51.5377 C.ar      23 UNK        -0.1150 
     13 C13         1.4712  -18.9542  -51.0022 C.ar      23 UNK        -0.0193 
     14 C14         2.4161  -17.9315  -51.1185 C.ar      23 UNK        -0.1150 
     15 C15         1.8363  -20.2471  -50.2858 C.3       23 UNK        -0.0205 
     16 S16         1.9123  -20.0285  -48.4768 S.3       23 UNK        -0.2404 
     17 C17         0.1531  -19.8032  -48.0526 C.3       23 UNK        -0.0398 
     18 CA         -0.4518  -21.0667  -47.3976 C.3       11 UNK         0.1400 
     19 N          -0.0297  -21.2418  -46.0032 N.am      11 UNK        -0.5000 
     20 C          -0.3187  -22.3165  -45.2539 C.2       10 UNK         0.5000 
     21 O          -0.9289  -23.2991  -45.6746 O.2       10 UNK        -0.5000 
     22 CA          0.0888  -22.2672  -43.7717 C.3       10 UNK         0.1400 
     23 CB          1.5885  -22.5529  -43.6053 C.3       10 UNK        -0.1800 
     24 N          -0.2540  -20.9938  -43.1370 N.am      10 UNK        -0.5000 
     25 C          -1.5033  -20.5300  -42.9857 C.2       9 UNK         0.5000 
     26 O          -2.5078  -21.1531  -43.3262 O.2       9 UNK        -0.5000 
     27 CA         -1.6601  -19.1114  -42.4070 C.3       9 UNK         0.1400 
     28 CB         -1.5342  -19.1218  -40.8769 C.3       9 UNK        -0.1800 
     29 N          -0.7017  -18.1640  -42.9746 N.am      9 UNK        -0.5000 
     30 C          -0.6384  -17.8293  -44.2714 C.2       8 UNK         0.5000 
     31 O          -1.4139  -18.2490  -45.1304 O.2       8 UNK        -0.5000 
     32 CA          0.5278  -16.9180  -44.6852 C.3       8 UNK         0.1400 
     33 CB          0.2057  -15.4442  -44.3935 C.3       8 UNK        -0.1800 
     34 N           1.7725  -17.3024  -44.0180 N.am      8 UNK        -0.5000 
     35 C           2.4379  -18.4387  -44.2731 C.2       7 UNK         0.5000 
     36 O           2.0844  -19.2590  -45.1196 O.2       7 UNK        -0.5000 
     37 CA          3.6751  -18.7305  -43.4033 C.3       7 UNK         0.1400 
     38 CB          4.9032  -17.9708  -43.9262 C.3       7 UNK        -0.1800 
     39 N           3.4631  -18.4036  -41.9920 N.am      7 UNK        -0.5000 
     40 C           2.6051  -19.0503  -41.1902 C.2       6 UNK         0.5000 
     41 O           1.9381  -20.0190  -41.5486 O.2       6 UNK        -0.5000 
     42 CA          2.4234  -18.4995  -39.7623 C.3       6 UNK         0.1400 
     43 CB          3.4339  -19.1487  -38.8053 C.3       6 UNK        -0.1800 
     44 N           2.5274  -17.0405  -39.6583 N.am      6 UNK        -0.5000 
     45 C           1.7862  -16.1583  -40.3424 C.2       5 UNK         0.5000 
     46 O           0.9532  -16.4847  -41.1923 O.2       5 UNK        -0.5000 
     47 CA          2.0710  -14.6710  -40.0513 C.3       5 UNK         0.1400 
     48 CB          3.4821  -14.2921  -40.5301 C.3       5 UNK        -0.1800 
     49 N           1.0967  -13.7779  -40.6838 N.am      5 UNK        -0.5000 
     50 C          -0.1828  -13.6557  -40.2969 C.2       4 UNK         0.5000 
     51 O          -0.6448  -14.2352  -39.3119 O.2       4 UNK        -0.5000 
     52 CA         -1.0995  -12.7314  -41.1252 C.3       4 UNK         0.1400 
     53 CB         -2.0587  -11.9208  -40.2345 C.3       4 UNK        -0.1800 
     54 N          -0.3316  -11.8011  -41.9527 N.am      4 UNK        -0.5000 
     55 C          -0.4343  -11.6728  -43.2803 C.2       3 UNK         0.5000 
     56 O          -1.2116  -12.3257  -43.9772 O.2       3 UNK        -0.5000 
     57 CA          0.5083  -10.6588  -43.9624 C.3       3 UNK         0.1400 
     58 CB          1.0614   -9.5726  -43.0122 C.3       3 UNK        -0.1800 
     59 N           1.6003  -11.3372  -44.6657 N.am      3 UNK        -0.5000 
     60 C           2.4986  -12.1815  -44.1339 C.2       2 UNK         0.5000 
     61 O           2.5429  -12.4628  -42.9362 O.2       2 UNK        -0.5000 
     62 CA          3.4703  -12.8536  -45.1192 C.3       2 UNK         0.1400 
     63 CB          4.1635  -14.0974  -44.5337 C.3       2 UNK        -0.1800 
     64 N           2.7403  -13.2290  -46.3264 N.am      2 UNK        -0.5000 
     65 C           3.1472  -13.0165  -47.5818 C.2       1 UNK         0.5000 
     66 O           4.2431  -12.5377  -47.8774 O.2       1 UNK        -0.5000 
     67 C          -1.9860  -21.0691  -47.5443 C.2       11 UNK         0.5000 
     68 O          -2.4952  -21.7157  -48.4600 O.2       11 UNK        -0.5000 
     69 N          -2.6937  -20.3805  -46.6381 N.am      12 UNK        -0.5000 
     70 CA         -4.1552  -20.3495  -46.5870 C.3       12 UNK         0.1400 
     71 CB         -4.6189  -19.2883  -45.5782 C.3       12 UNK        -0.1800 
     72 C          -4.7642  -21.7263  -46.2647 C.2       12 UNK         0.5000 
     73 O          -5.6936  -22.1486  -46.9524 O.2       12 UNK        -0.5000 
     74 N          -4.2059  -22.4188  -45.2612 N.am      13 UNK        -0.5000 
     75 CA         -4.6146  -23.7614  -44.8383 C.3       13 UNK         0.1400 
     76 CB         -3.8772  -24.1389  -43.5447 C.3       13 UNK        -0.1800 
     77 C          -4.3917  -24.8331  -45.9216 C.2       13 UNK         0.5000 
     78 O          -5.2428  -25.7050  -46.0996 O.2       13 UNK        -0.5000 
     79 N          -3.2709  -24.7284  -46.6476 N.am      14 UNK        -0.5000 
     80 CA         -2.9310  -25.5794  -47.7897 C.3       14 UNK         0.1400 
     81 CB         -1.4139  -25.5005  -48.0252 C.3       14 UNK        -0.1800 
     82 C          -3.6845  -25.2030  -49.0814 C.2       14 UNK         0.5000 
     83 O          -3.5645  -25.9234  -50.0735 O.2       14 UNK        -0.5000 
     84 N          -4.3932  -24.0639  -49.0754 N.am      15 UNK        -0.5000 
     85 CA         -5.0821  -23.4370  -50.2063 C.3       15 UNK         0.1400 
     86 CB         -6.3143  -24.2649  -50.6238 C.3       15 UNK        -0.1800 
     87 C          -4.1263  -23.1516  -51.3812 C.2       15 UNK         0.5000 
     88 O          -4.4653  -23.4284  -52.5324 O.2       15 UNK        -0.5000 
     89 N          -2.9414  -22.6124  -51.0614 N.am      16 UNK        -0.5000 
     90 CA         -1.8107  -22.3555  -51.9617 C.3       16 UNK         0.1400 
     91 CB         -2.1666  -21.2786  -53.0073 C.3       16 UNK        -0.1800 
     92 C          -1.2375  -23.6449  -52.5884 C.2       16 UNK         0.5000 
     93 O          -0.8073  -23.6324  -53.7413 O.2       16 UNK        -0.5000 
     94 N          -1.2527  -24.7331  -51.8035 N.am      17 UNK        -0.5000 
     95 CA         -0.9215  -26.1103  -52.1842 C.3       17 UNK         0.1400 
     96 CB          0.5604  -26.2451  -52.5941 C.3       17 UNK        -0.1800 
     97 C          -1.9108  -26.6479  -53.2374 C.2       17 UNK         0.5000 
     98 O          -1.5000  -27.1186  -54.2998 O.2       17 UNK        -0.5000 
     99 N          -3.2061  -26.5439  -52.9032 N.am      18 UNK        -0.5000 
    100 CA        -4.3704  -26.9154  -53.7126 C.3       18 UNK         0.1400 
    101 CB        -4.4469  -28.4467  -53.8852 C.3       18 UNK        -0.1800 
    102 C         -4.4398  -26.1459  -55.0497 C.2       18 UNK         0.5000 
    103 O         -4.6147  -26.7499  -56.1100 O.2       18 UNK        -0.5000 
    104 N         -4.3084  -24.8176  -54.9653 N.am      19 UNK        -0.5000 
    105 CA        -4.3782  -23.8779  -56.0840 C.3       19 UNK         0.1400 
    106 CB        -2.9635  -23.3912  -56.4431 C.3       19 UNK        -0.1800 
    107 C         -5.3469  -22.7283  -55.7501 C.2       19 UNK         0.5000 
    108 O         -5.0821  -21.5726  -56.0876 O.2       19 UNK        -0.5000 
    109 N         -6.4536  -23.0748  -55.0727 N.am      20 UNK        -0.5000 
    110 CA        -7.5998  -22.2241  -54.7259 C.3       20 UNK         0.1400 
    111 CB        -8.4114  -21.8972  -55.9967 C.3       20 UNK        -0.1800 
    112 C         -7.2336  -20.9581  -53.9215 C.2       20 UNK         0.5000 
    113 O         -7.8736  -19.9181  -54.0891 O.2       20 UNK        -0.5000 
    114 N         -6.1850  -21.0547  -53.0894 N.am      21 UNK        -0.5000 
    115 CA        -5.6063  -19.9720  -52.2803 C.3       21 UNK         0.1400 
    116 CB        -6.5674  -19.5724  -51.1418 C.3       21 UNK        -0.1800 
    117 C         -5.1304  -18.7677  -53.1245 C.2       21 UNK         0.5000 
    118 O         -5.1914  -17.6290  -52.6593 O.2       21 UNK        -0.5000 
    119 N         -4.6835  -19.0509  -54.3565 N.am      22 UNK        -0.5000 
    120 CA        -4.3262  -18.0850  -55.4092 C.3       22 UNK         0.1400 
    121 C         -5.5478  -17.3511  -56.0473 C.2       22 UNK         0.5000 
    122 N         -6.7896  -17.7385  -55.7774 N.am      22 UNK        -0.7600 
    123 O         -5.3705  -16.4245  -56.8339 O.2       22 UNK        -0.5000 
    124 C124       -3.1928  -17.0938  -55.0124 C.3       23 UNK        -0.0398 
    125 S125       -1.6458  -17.9041  -54.4745 S.3       23 UNK        -0.2404 
    126 C126       -1.5447  -17.3645  -52.7391 C.3       23 UNK        -0.0205 
    127 H127       -1.7311  -12.8733  -47.6961 H         1 UNK         0.0600 
    128 H128       -1.7680  -11.2229  -48.3266 H         1 UNK         0.0600 
    129 H129       -1.4618  -11.5085  -46.6111 H         1 UNK         0.0600 
    130 H130        0.0967  -13.8737  -48.4306 H         1 UNK         0.3000 
    131 H131        2.3410  -12.7099  -49.5409 H         1 UNK         0.0600 
    132 H132        2.2932  -15.5155  -48.3076 H         1 UNK         0.0800 
    133 H133        1.4101  -15.1146  -49.7441 H         1 UNK         0.0800 
    134 H134        2.6353  -14.6851  -52.2321 H         1 UNK         0.0800 
    135 H135        3.9053  -15.8629  -52.4613 H         1 UNK         0.0800 
    136 H136        0.5355  -15.6210  -52.7450 H         1 UNK         0.1150 
    137 H137       -0.5432  -19.5561  -51.4499 H         1 UNK         0.1150 
    138 H138        3.4033  -18.0665  -50.6990 H         1 UNK         0.1150 
    139 H139        1.1304  -21.0423  -50.5278 H         1 UNK         0.0800 
    140 H140        2.8105  -20.5881  -50.6391 H         1 UNK         0.0800 
    141 H141       -0.3926  -19.5298  -48.9556 H         1 UNK         0.0800 
    142 H142        0.0643  -18.9449  -47.3855 H         1 UNK         0.0800 
    143 H143       -0.0950  -21.9385  -47.9507 H         1 UNK         0.0600 
    144 H144        0.5212  -20.4914  -45.5982 H         1 UNK         0.3000 
    145 H145       -0.4624  -23.0536  -43.2520 H         1 UNK         0.0600 
    146 H146        1.8597  -23.5009  -44.0716 H         1 UNK         0.0600 
    147 H147        2.2017  -21.7752  -44.0609 H         1 UNK         0.0600 
    148 H148        1.8615  -22.6196  -42.5522 H         1 UNK         0.0600 
    149 H149        0.5209  -20.4488  -42.7699 H         1 UNK         0.3000 
    150 H150       -2.6611  -18.7573  -42.6615 H         1 UNK         0.0600 
    151 H151       -1.6563  -18.1206  -40.4627 H         1 UNK         0.0600 
    152 H152       -0.5654  -19.5019  -40.5550 H         1 UNK         0.0600 
    153 H153       -2.2993  -19.7570  -40.4290 H         1 UNK         0.0600 
    154 H154       -0.0397  -17.7357  -42.3337 H         1 UNK         0.3000 
    155 H155        0.6726  -17.0251  -45.7623 H         1 UNK         0.0600 
    156 H156       -0.6897  -15.1276  -44.9301 H         1 UNK         0.0600 
    157 H157        1.0178  -14.7932  -44.7081 H         1 UNK         0.0600 
    158 H158        0.0279  -15.2638  -43.3334 H         1 UNK         0.0600 
    159 H159        2.0629  -16.7316  -43.2372 H         1 UNK         0.3000 
    160 H160        3.8834  -19.8002  -43.4757 H         1 UNK         0.0600 
    161 H161        5.0736  -18.1828  -44.9826 H         1 UNK         0.0600 
    162 H162        5.8047  -18.2633  -43.3875 H         1 UNK         0.0600 
    163 H163        4.7869  -16.8923  -43.8217 H         1 UNK         0.0600 
    164 H164        3.9746  -17.6184  -41.6181 H         1 UNK         0.3000 
    165 H165        1.4205  -18.7754  -39.4321 H         1 UNK         0.0600 
    166 H166        3.2494  -18.8499  -37.7733 H         1 UNK         0.0600 
    167 H167        3.3649  -20.2369  -38.8435 H         1 UNK         0.0600 
    168 H168        4.4596  -18.8758  -39.0567 H         1 UNK         0.0600 
    169 H169        3.1986  -16.6919  -38.9892 H         1 UNK         0.3000 
    170 H170        2.0192  -14.5209  -38.9710 H         1 UNK         0.0600 
    171 H171        3.6747  -13.2278  -40.3930 H         1 UNK         0.0600 
    172 H172        4.2498  -14.8308  -39.9738 H         1 UNK         0.0600 
    173 H173        3.6213  -14.5240  -41.5859 H         1 UNK         0.0600 
    174 H174        1.4149  -13.2902  -41.5158 H         1 UNK         0.3000 
    175 H175       -1.6990  -13.3923  -41.7543 H         1 UNK         0.0600 
    176 H176       -1.5150  -11.2778  -39.5414 H         1 UNK         0.0600 
    177 H177       -2.7126  -11.2885  -40.8353 H         1 UNK         0.0600 
    178 H178       -2.7000  -12.5760  -39.6438 H         1 UNK         0.0600 
    179 H179        0.3685  -11.2532  -41.4722 H         1 UNK         0.3000 
    180 H180       -0.0859  -10.1540  -44.7256 H         1 UNK         0.0600 
    181 H181        1.6228   -8.8227  -43.5695 H         1 UNK         0.0600 
    182 H182        1.7280   -9.9797  -42.2515 H         1 UNK         0.0600 
    183 H183        0.2518   -9.0507  -42.5003 H         1 UNK         0.0600 
    184 H184        1.6243  -11.1862  -45.6679 H         1 UNK         0.3000 
    185 H185        4.2344  -12.1099  -45.3538 H         1 UNK         0.0600 
    186 H186        3.4396  -14.8460  -44.2125 H         1 UNK         0.0600 
    187 H187        4.8234  -14.5623  -45.2663 H         1 UNK         0.0600 
    188 H188        4.7745  -13.8340  -43.6698 H         1 UNK         0.0600 
    189 H189        1.8061  -13.5851  -46.1846 H         1 UNK         0.3000 
    190 H190       -2.2012  -19.8264  -45.9428 H         1 UNK         0.3000 
    191 H191       -4.5150  -20.0525  -47.5745 H         1 UNK         0.0600 
    192 H192       -4.2718  -19.5095  -44.5690 H         1 UNK         0.0600 
    193 H193       -5.7075  -19.2296  -45.5459 H         1 UNK         0.0600 
    194 H194       -4.2471  -18.2999  -45.8487 H         1 UNK         0.0600 
    195 H195       -3.4663  -21.9808  -44.7167 H         1 UNK         0.3000 
    196 H196       -5.6843  -23.7288  -44.6218 H         1 UNK         0.0600 
    197 H197       -4.1726  -25.1306  -43.2000 H         1 UNK         0.0600 
    198 H198       -4.1032  -23.4353  -42.7433 H         1 UNK         0.0600 
    199 H199       -2.7960  -24.1475  -43.6866 H         1 UNK         0.0600 
    200 H200       -2.5857  -24.0224  -46.3905 H         1 UNK         0.3000 
    201 H201       -3.1878  -26.6128  -47.5488 H         1 UNK         0.0600 
    202 H202       -0.8618  -25.7926  -47.1317 H         1 UNK         0.0600 
    203 H203       -1.1013  -24.4905  -48.2944 H         1 UNK         0.0600 
    204 H204       -1.1025  -26.1693  -48.8281 H         1 UNK         0.0600 
    205 H205       -4.4149  -23.5326  -48.2143 H         1 UNK         0.3000 
    206 H206       -5.4350  -22.4670  -49.8537 H         1 UNK         0.0600 
    207 H207       -6.8929  -23.7469  -51.3896 H         1 UNK         0.0600 
    208 H208       -6.0329  -25.2378  -51.0275 H         1 UNK         0.0600 
    209 H209       -6.9780  -24.4337  -49.7759 H         1 UNK         0.0600 
    210 H210       -2.7794  -22.3821  -50.0803 H         1 UNK         0.3000 
    211 H211       -1.0140  -21.9535  -51.3357 H         1 UNK         0.0600 
    212 H212       -2.9651  -21.5993  -53.6750 H         1 UNK         0.0600 
    213 H213       -1.3043  -21.0296  -53.6269 H         1 UNK         0.0600 
    214 H214       -2.4856  -20.3566  -52.5257 H         1 UNK         0.0600 
    215 H215       -1.6713  -24.6335  -50.8905 H         1 UNK         0.3000 
    216 H216       -1.0658  -26.7202  -51.2914 H         1 UNK         0.0600 
    217 H217        0.8236  -27.2915  -52.7524 H         1 UNK         0.0600 
    218 H218        1.2203  -25.8581  -51.8178 H         1 UNK         0.0600 
    219 H219        0.7818  -25.7127  -53.5193 H         1 UNK         0.0600 
    220 H220       -3.4195  -26.1673  -51.9830 H         1 UNK         0.3000 
    221 H221       -5.2467  -26.6076  -53.1403 H         1 UNK         0.0600 
    222 H222       -3.6172  -28.8314  -54.4790 H         1 UNK         0.0600 
    223 H223       -4.4309  -28.9525  -52.9197 H         1 UNK         0.0600 
    224 H224       -5.3703  -28.7371  -54.3874 H         1 UNK         0.0600 
    225 H225       -4.2122  -24.3909  -54.0443 H         1 UNK         0.3000 
    226 H226       -4.7949  -24.3730  -56.9631 H         1 UNK         0.0600 
    227 H227       -2.2990  -24.2301  -56.6504 H         1 UNK         0.0600 
    228 H228       -2.9796  -22.7602  -57.3323 H         1 UNK         0.0600 
    229 H229       -2.5218  -22.8088  -55.6360 H         1 UNK         0.0600 
    230 H230       -6.5398  -24.0451  -54.8059 H         1 UNK         0.3000 
    231 H231       -8.2364  -22.8202  -54.0708 H         1 UNK         0.0600 
    232 H232       -7.8510  -21.2554  -56.6776 H         1 UNK         0.0600 
    233 H233       -8.6810  -22.8046  -56.5371 H         1 UNK         0.0600 
    234 H234       -9.3405  -21.3820  -55.7501 H         1 UNK         0.0600 
    235 H235       -5.6911  -21.9414  -53.0606 H         1 UNK         0.3000 
    236 H236       -4.7107  -20.3745  -51.8112 H         1 UNK         0.0600 
    237 H237       -7.4663  -19.0868  -51.5228 H         1 UNK         0.0600 
    238 H238       -6.8766  -20.4419  -50.5620 H         1 UNK         0.0600 
    239 H239       -6.0885  -18.8776  -50.4509 H         1 UNK         0.0600 
    240 H240       -4.7206  -20.0137  -54.6713 H         1 UNK         0.3000 
    241 H241       -3.9345  -18.7001  -56.2200 H         1 UNK         0.0600 
    242 H242       -7.5581  -17.2539  -56.2126 H         1 UNK         0.3800 
    243 H243       -6.9840  -18.5020  -55.1379 H         1 UNK         0.3800 
    244 H244       -2.9280  -16.4701  -55.8676 H         1 UNK         0.0800 
    245 H245       -3.5417  -16.4003  -54.2470 H         1 UNK         0.0800 
    246 H246       -2.2816  -17.9058  -52.1447 H         1 UNK         0.0800 
    247 H247       -1.8091  -16.3085  -52.6661 H         1 UNK         0.0800 
@<TRIPOS>BOND
     1    1    2 1    
     2    1  127 1    
     3    1  128 1    
     4    1  129 1    
     5    2    3 2    
     6    2    4 am   BACKBONE|DICT|INTERRES
     7    4    5 1    
     8    4  130 1    
     9    5    6 1    
    10    5   65 1    
    11    5  131 1    
    12    6    7 1    
    13    6  132 1    
    14    6  133 1    
    15    7    8 1    
    16    8    9 1    
    17    8  134 1    
    18    8  135 1    
    19    9   10 ar   
    20    9   14 ar   
    21   10   11 ar   
    22   10  136 1    
    23   11   12 ar   
    24   11  126 1    
    25   12   13 ar   
    26   12  137 1    
    27   13   14 ar   
    28   13   15 1    
    29   14  138 1    
    30   15   16 1    
    31   15  139 1    
    32   15  140 1    
    33   16   17 1    
    34   17   18 1    
    35   17  141 1    
    36   17  142 1    
    37   18   19 1    
    38   18   67 1    
    39   18  143 1    
    40   19   20 am   BACKBONE|DICT|INTERRES
    41   19  144 1    
    42   20   21 2    
    43   20   22 1    
    44   22   23 1    
    45   22   24 1    
    46   22  145 1    
    47   23  146 1    
    48   23  147 1    
    49   23  148 1    
    50   24   25 am   BACKBONE|DICT|INTERRES
    51   24  149 1    
    52   25   26 2    
    53   25   27 1    
    54   27   28 1    
    55   27   29 1    
    56   27  150 1    
    57   28  151 1    
    58   28  152 1    
    59   28  153 1    
    60   29   30 am   BACKBONE|DICT|INTERRES
    61   29  154 1    
    62   30   31 2    
    63   30   32 1    
    64   32   33 1    
    65   32   34 1    
    66   32  155 1    
    67   33  156 1    
    68   33  157 1    
    69   33  158 1    
    70   34   35 am   BACKBONE|DICT|INTERRES
    71   34  159 1    
    72   35   36 2    
    73   35   37 1    
    74   37   38 1    
    75   37   39 1    
    76   37  160 1    
    77   38  161 1    
    78   38  162 1    
    79   38  163 1    
    80   39   40 am   BACKBONE|DICT|INTERRES
    81   39  164 1    
    82   40   41 2    
    83   40   42 1    
    84   42   43 1    
    85   42   44 1    
    86   42  165 1    
    87   43  166 1    
    88   43  167 1    
    89   43  168 1    
    90   44   45 am   BACKBONE|DICT|INTERRES
    91   44  169 1    
    92   45   46 2    
    93   45   47 1    
    94   47   48 1    
    95   47   49 1    
    96   47  170 1    
    97   48  171 1    
    98   48  172 1    
    99   48  173 1    
   100   49   50 am   BACKBONE|DICT|INTERRES
   101   49  174 1    
   102   50   51 2    
   103   50   52 1    
   104   52   53 1    
   105   52   54 1    
   106   52  175 1    
   107   53  176 1    
   108   53  177 1    
   109   53  178 1    
   110   54   55 am   BACKBONE|DICT|INTERRES
   111   54  179 1    
   112   55   56 2    
   113   55   57 1    
   114   57   58 1    
   115   57   59 1    
   116   57  180 1    
   117   58  181 1    
   118   58  182 1    
   119   58  183 1    
   120   59   60 am   BACKBONE|DICT|INTERRES
   121   59  184 1    
   122   60   61 2    
   123   60   62 1    
   124   62   63 1    
   125   62   64 1    
   126   62  185 1    
   127   63  186 1    
   128   63  187 1    
   129   63  188 1    
   130   64   65 am   BACKBONE|DICT|INTERRES
   131   64  189 1    
   132   65   66 2    
   133   67   68 2    
   134   67   69 am   BACKBONE|DICT|INTERRES
   135   69   70 1    
   136   69  190 1    
   137   70   71 1    
   138   70   72 1    
   139   70  191 1    
   140   71  192 1    
   141   71  193 1    
   142   71  194 1    
   143   72   73 2    
   144   72   74 am   BACKBONE|DICT|INTERRES
   145   74   75 1    
   146   74  195 1    
   147   75   76 1    
   148   75   77 1    
   149   75  196 1    
   150   76  197 1    
   151   76  198 1    
   152   76  199 1    
   153   77   78 2    
   154   77   79 am   BACKBONE|DICT|INTERRES
   155   79   80 1    
   156   79  200 1    
   157   80   81 1    
   158   80   82 1    
   159   80  201 1    
   160   81  202 1    
   161   81  203 1    
   162   81  204 1    
   163   82   83 2    
   164   82   84 am   BACKBONE|DICT|INTERRES
   165   84   85 1    
   166   84  205 1    
   167   85   86 1    
   168   85   87 1    
   169   85  206 1    
   170   86  207 1    
   171   86  208 1    
   172   86  209 1    
   173   87   88 2    
   174   87   89 am   BACKBONE|DICT|INTERRES
   175   89   90 1    
   176   89  210 1    
   177   90   91 1    
   178   90   92 1    
   179   90  211 1    
   180   91  212 1    
   181   91  213 1    
   182   91  214 1    
   183   92   93 2    
   184   92   94 am   BACKBONE|DICT|INTERRES
   185   94   95 1    
   186   94  215 1    
   187   95   96 1    
   188   95   97 1    
   189   95  216 1    
   190   96  217 1    
   191   96  218 1    
   192   96  219 1    
   193   97   98 2    
   194   97   99 am   BACKBONE|DICT|INTERRES
   195   99  100 1    
   196   99  220 1    
   197  100  101 1    
   198  100  102 1    
   199  100  221 1    
   200  101  222 1    
   201  101  223 1    
   202  101  224 1    
   203  102  103 2    
   204  102  104 am   BACKBONE|DICT|INTERRES
   205  104  105 1    
   206  104  225 1    
   207  105  106 1    
   208  105  107 1    
   209  105  226 1    
   210  106  227 1    
   211  106  228 1    
   212  106  229 1    
   213  107  108 2    
   214  107  109 am   BACKBONE|DICT|INTERRES
   215  109  110 1    
   216  109  230 1    
   217  110  111 1    
   218  110  112 1    
   219  110  231 1    
   220  111  232 1    
   221  111  233 1    
   222  111  234 1    
   223  112  113 2    
   224  112  114 am   BACKBONE|DICT|INTERRES
   225  114  115 1    
   226  114  235 1    
   227  115  116 1    
   228  115  117 1    
   229  115  236 1    
   230  116  237 1    
   231  116  238 1    
   232  116  239 1    
   233  117  118 2    
   234  117  119 am   BACKBONE|DICT|INTERRES
   235  119  120 1    
   236  119  240 1    
   237  120  121 1    
   238  120  124 1    
   239  120  241 1    
   240  121  122 am   BACKBONE|DICT|INTERRES
   241  121  123 2    
   242  122  242 1    
   243  122  243 1    
   244  124  125 1    
   245  124  244 1    
   246  124  245 1    
   247  125  126 1    
   248  126  246 1    
   249  126  247 1    
@<TRIPOS>SUBSTRUCTURE
     1 UNK         1 GROUP             0       ****    0 ROOT    
