@<TRIPOS>MOLECULE
3R540
247   249    1
SMALL
USER_CHARGES


@<TRIPOS>ATOM
      1 CA          6.1050  -11.9710  -47.3085 C.3       0 UNK        -0.1800 
      2 C           4.7333  -12.3218  -46.7531 C.2       0 UNK         0.5000 
      3 O           4.3284  -11.7696  -45.7305 O.2       0 UNK        -0.5000 
      4 N           4.0068  -13.2182  -47.4345 N.am      1 UNK        -0.5000 
      5 CA          2.6780  -13.7346  -47.0647 C.3       1 UNK         0.1400 
      6 C6          2.2190  -14.8675  -48.0208 C.3       23 UNK        -0.0398 
      7 S7          2.1159  -14.3520  -49.7743 S.3       23 UNK        -0.2404 
      8 C8          3.4619  -15.3051  -50.5460 C.3       23 UNK        -0.0205 
      9 C9          3.0179  -16.7114  -50.9192 C.ar      23 UNK        -0.0193 
     10 C10         2.2733  -16.9206  -52.0841 C.ar      23 UNK        -0.1150 
     11 C11         1.8718  -18.2083  -52.4496 C.ar      23 UNK        -0.0193 
     12 C12         2.2180  -19.2930  -51.6388 C.ar      23 UNK        -0.1150 
     13 C13         2.9713  -19.0993  -50.4775 C.ar      23 UNK        -0.0193 
     14 C14         3.3690  -17.8056  -50.1229 C.ar      23 UNK        -0.1150 
     15 C15         3.3864  -20.2908  -49.6262 C.3       23 UNK        -0.0205 
     16 S16         2.6153  -20.2625  -47.9799 S.3       23 UNK        -0.2404 
     17 C17         0.8741  -20.6726  -48.3460 C.3       23 UNK        -0.0398 
     18 CA          0.4098  -21.9529  -47.6099 C.3       11 UNK         0.1400 
     19 N           0.4600  -21.8207  -46.1492 N.am      11 UNK        -0.5000 
     20 C           0.2766  -22.8259  -45.2821 C.2       10 UNK         0.5000 
     21 O           0.0943  -23.9937  -45.6241 O.2       10 UNK        -0.5000 
     22 CA          0.2297  -22.4630  -43.7858 C.3       10 UNK         0.1400 
     23 CB          1.6427  -22.3283  -43.1988 C.3       10 UNK        -0.1800 
     24 N          -0.5400  -21.2438  -43.5310 N.am      10 UNK        -0.5000 
     25 C          -1.8613  -21.1361  -43.7326 C.2       9 UNK         0.5000 
     26 O          -2.5702  -22.0716  -44.1027 O.2       9 UNK        -0.5000 
     27 CA         -2.4937  -19.7461  -43.5323 C.3       9 UNK         0.1400 
     28 CB         -2.7893  -19.4890  -42.0475 C.3       9 UNK        -0.1800 
     29 N          -1.6674  -18.6623  -44.0638 N.am      9 UNK        -0.5000 
     30 C          -1.3419  -18.5144  -45.3560 C.2       8 UNK         0.5000 
     31 O          -1.7510  -19.2499  -46.2533 O.2       8 UNK        -0.5000 
     32 CA         -0.3411  -17.3937  -45.6948 C.3       8 UNK         0.1400 
     33 CB         -1.0565  -16.0384  -45.7689 C.3       8 UNK        -0.1800 
     34 N           0.7730  -17.3204  -44.7451 N.am      8 UNK        -0.5000 
     35 C           1.6175  -18.3323  -44.4934 C.2       7 UNK         0.5000 
     36 O           1.5618  -19.4216  -45.0563 O.2       7 UNK        -0.5000 
     37 CA          2.6468  -18.1256  -43.3737 C.3       7 UNK         0.1400 
     38 CB          3.8568  -17.3214  -43.8732 C.3       7 UNK        -0.1800 
     39 N           2.0352  -17.4747  -42.2161 N.am      7 UNK        -0.5000 
     40 C           1.1721  -18.0845  -41.3894 C.2       6 UNK         0.5000 
     41 O           0.8663  -19.2740  -41.4799 O.2       6 UNK        -0.5000 
     42 CA          0.5098  -17.2122  -40.3057 C.3       6 UNK         0.1400 
     43 CB          1.3968  -17.1394  -39.0541 C.3       6 UNK        -0.1800 
     44 N           0.2190  -15.8553  -40.7721 N.am      6 UNK        -0.5000 
     45 C          -0.6809  -15.5549  -41.7197 C.2       5 UNK         0.5000 
     46 O          -1.4104  -16.3901  -42.2525 O.2       5 UNK        -0.5000 
     47 CA         -0.7382  -14.0857  -42.1861 C.3       5 UNK         0.1400 
     48 CB         -1.7620  -13.2958  -41.3583 C.3       5 UNK        -0.1800 
     49 N           0.5577  -13.4019  -42.1326 N.am      5 UNK        -0.5000 
     50 C           1.6515  -13.7809  -42.8049 C.2       4 UNK         0.5000 
     51 O           1.6788  -14.7509  -43.5647 O.2       4 UNK        -0.5000 
     52 CA          2.9197  -12.9431  -42.5669 C.3       4 UNK         0.1400 
     53 CB          4.2035  -13.7043  -42.9405 C.3       4 UNK        -0.1800 
     54 N           2.8704  -11.7000  -43.3275 N.am      4 UNK        -0.5000 
     55 C           2.2033  -10.5956  -42.9691 C.2       3 UNK         0.5000 
     56 O           1.5390  -10.5059  -41.9353 O.2       3 UNK        -0.5000 
     57 CA          2.2871   -9.3984  -43.9290 C.3       3 UNK         0.1400 
     58 CB          3.6488   -8.6969  -43.8020 C.3       3 UNK        -0.1800 
     59 N           2.0986   -9.8341  -45.3114 N.am      3 UNK        -0.5000 
     60 C           0.9725   -9.6709  -46.0191 C.2       2 UNK         0.5000 
     61 O          -0.0142   -9.0591  -45.6075 O.2       2 UNK        -0.5000 
     62 CA          0.9315  -10.3023  -47.4265 C.3       2 UNK         0.1400 
     63 CB          1.3432   -9.2732  -48.4901 C.3       2 UNK        -0.1800 
     64 N           1.7830  -11.4857  -47.5566 N.am      2 UNK        -0.5000 
     65 C           1.5897  -12.6438  -46.9088 C.2       1 UNK         0.5000 
     66 O           0.6164  -12.8559  -46.1873 O.2       1 UNK        -0.5000 
     67 C          -0.9892  -22.3907  -48.0920 C.2       11 UNK         0.5000 
     68 O          -1.0841  -23.2741  -48.9434 O.2       11 UNK        -0.5000 
     69 N          -2.0493  -21.8099  -47.5113 N.am      12 UNK        -0.5000 
     70 CA         -3.4415  -22.1740  -47.7781 C.3       12 UNK         0.1400 
     71 CB         -4.3813  -21.1607  -47.1087 C.3       12 UNK        -0.1800 
     72 C          -3.7854  -23.6075  -47.3375 C.2       12 UNK         0.5000 
     73 O          -4.5000  -24.3064  -48.0583 O.2       12 UNK        -0.5000 
     74 N          -3.2484  -24.0292  -46.1842 N.am      13 UNK        -0.5000 
     75 CA         -3.3602  -25.3920  -45.6662 C.3       13 UNK         0.1400 
     76 CB         -2.8706  -25.4394  -44.2113 C.3       13 UNK        -0.1800 
     77 C          -2.6058  -26.4124  -46.5371 C.2       13 UNK         0.5000 
     78 O          -3.1445  -27.4855  -46.8059 O.2       13 UNK        -0.5000 
     79 N          -1.4015  -26.0478  -47.0018 N.am      14 UNK        -0.5000 
     80 CA         -0.5867  -26.8413  -47.9265 C.3       14 UNK         0.1400 
     81 CB          0.8129  -26.2197  -48.0461 C.3       14 UNK        -0.1800 
     82 C          -1.2385  -26.9974  -49.3141 C.2       14 UNK         0.5000 
     83 O          -1.1743  -28.0799  -49.8976 O.2       14 UNK        -0.5000 
     84 N          -1.8905  -25.9298  -49.7959 N.am      15 UNK        -0.5000 
     85 CA         -2.7121  -25.9226  -51.0096 C.3       15 UNK         0.1400 
     86 CB         -2.9917  -24.4646  -51.4118 C.3       15 UNK        -0.1800 
     87 C          -4.0394  -26.6946  -50.8537 C.2       15 UNK         0.5000 
     88 O          -4.6578  -27.0360  -51.8614 O.2       15 UNK        -0.5000 
     89 N          -4.4535  -26.9410  -49.6012 N.am      16 UNK        -0.5000 
     90 CA         -5.7139  -27.5513  -49.1720 C.3       16 UNK         0.1400 
     91 CB         -5.7856  -29.0316  -49.6003 C.3       16 UNK        -0.1800 
     92 C          -6.9310  -26.7209  -49.6240 C.2       16 UNK         0.5000 
     93 O          -7.8954  -27.2705  -50.1584 O.2       16 UNK        -0.5000 
     94 N          -6.8309  -25.3950  -49.4426 N.am      17 UNK        -0.5000 
     95 CA         -7.7772  -24.3325  -49.8144 C.3       17 UNK         0.1400 
     96 CB         -9.1453  -24.5330  -49.1357 C.3       17 UNK        -0.1800 
     97 C          -7.9408  -24.0987  -51.3327 C.2       17 UNK         0.5000 
     98 O          -8.1933  -22.9625  -51.7372 O.2       17 UNK        -0.5000 
     99 N          -7.7877  -25.1496  -52.1473 N.am      18 UNK        -0.5000 
    100 CA        -7.8700  -25.1400  -53.6062 C.3       18 UNK         0.1400 
    101 CB        -7.7320  -26.5815  -54.1218 C.3       18 UNK        -0.1800 
    102 C         -6.8120  -24.2133  -54.2336 C.2       18 UNK         0.5000 
    103 O         -5.6244  -24.5399  -54.2170 O.2       18 UNK        -0.5000 
    104 N         -7.2726  -23.0623  -54.7441 N.am      19 UNK        -0.5000 
    105 CA        -6.4814  -21.9755  -55.3338 C.3       19 UNK         0.1400 
    106 CB        -5.8021  -22.4334  -56.6417 C.3       19 UNK        -0.1800 
    107 C         -5.4926  -21.3211  -54.3430 C.2       19 UNK         0.5000 
    108 O         -4.4615  -20.7954  -54.7655 O.2       19 UNK        -0.5000 
    109 N         -5.8357  -21.3286  -53.0448 N.am      20 UNK        -0.5000 
    110 CA        -5.0201  -20.7982  -51.9449 C.3       20 UNK         0.1400 
    111 CB        -5.6849  -21.1572  -50.6094 C.3       20 UNK        -0.1800 
    112 C         -4.7355  -19.2840  -52.0092 C.2       20 UNK         0.5000 
    113 O         -3.7908  -18.8243  -51.3680 O.2       20 UNK        -0.5000 
    114 N         -5.5395  -18.5390  -52.7810 N.am      21 UNK        -0.5000 
    115 CA        -5.3176  -17.1249  -53.0904 C.3       21 UNK         0.1400 
    116 CB        -6.5721  -16.5603  -53.7748 C.3       21 UNK        -0.1800 
    117 C         -4.0682  -16.8858  -53.9653 C.2       21 UNK         0.5000 
    118 O         -3.4661  -15.8170  -53.8577 O.2       21 UNK        -0.5000 
    119 N         -3.7138  -17.8908  -54.7833 N.am      22 UNK        -0.5000 
    120 CA        -2.5443  -17.9925  -55.6720 C.3       22 UNK         0.1400 
    121 C         -2.1574  -16.6941  -56.4461 C.2       22 UNK         0.5000 
    122 N         -0.8968  -16.2806  -56.4589 N.am      22 UNK        -0.7600 
    123 O         -3.0019  -16.0875  -57.1015 O.2       22 UNK        -0.5000 
    124 C124       -1.3764  -18.7976  -55.0312 C.3       23 UNK        -0.0398 
    125 S125       -0.6846  -18.0998  -53.4908 S.3       23 UNK        -0.2404 
    126 C126        1.0861  -18.4320  -53.7314 C.3       23 UNK        -0.0205 
    127 H127        6.1576  -10.9051  -47.5296 H         1 UNK         0.0600 
    128 H128        6.8758  -12.2066  -46.5748 H         1 UNK         0.0600 
    129 H129        6.3255  -12.5209  -48.2236 H         1 UNK         0.0600 
    130 H130        4.3893  -13.6023  -48.2859 H         1 UNK         0.3000 
    131 H131        2.7901  -14.1798  -46.0740 H         1 UNK         0.0600 
    132 H132        2.8974  -15.7163  -47.9296 H         1 UNK         0.0800 
    133 H133        1.2431  -15.2515  -47.7214 H         1 UNK         0.0800 
    134 H134        3.7843  -14.7825  -51.4479 H         1 UNK         0.0800 
    135 H135        4.3317  -15.3327  -49.8882 H         1 UNK         0.0800 
    136 H136        2.0048  -16.0788  -52.7072 H         1 UNK         0.1150 
    137 H137        1.9120  -20.2906  -51.9212 H         1 UNK         0.1150 
    138 H138        3.9553  -17.6555  -49.2272 H         1 UNK         0.1150 
    139 H139        3.1502  -21.2339  -50.1216 H         1 UNK         0.0800 
    140 H140        4.4703  -20.2743  -49.5042 H         1 UNK         0.0800 
    141 H141        0.7550  -20.7891  -49.4246 H         1 UNK         0.0800 
    142 H142        0.2557  -19.8196  -48.0635 H         1 UNK         0.0800 
    143 H143        1.0988  -22.7557  -47.8805 H         1 UNK         0.0600 
    144 H144        0.6782  -20.8957  -45.7844 H         1 UNK         0.3000 
    145 H145       -0.2687  -23.2826  -43.2640 H         1 UNK         0.0600 
    146 H146        1.6069  -22.1031  -42.1327 H         1 UNK         0.0600 
    147 H147        2.2012  -23.2575  -43.3174 H         1 UNK         0.0600 
    148 H148        2.2150  -21.5405  -43.6872 H         1 UNK         0.0600 
    149 H149       -0.0225  -20.4327  -43.2155 H         1 UNK         0.3000 
    150 H150       -3.4421  -19.7335  -44.0729 H         1 UNK         0.0600 
    151 H151       -3.4250  -20.2731  -41.6344 H         1 UNK         0.0600 
    152 H152       -3.3092  -18.5411  -41.9080 H         1 UNK         0.0600 
    153 H153       -1.8757  -19.4592  -41.4535 H         1 UNK         0.0600 
    154 H154       -1.3387  -17.9703  -43.3967 H         1 UNK         0.3000 
    155 H155        0.0849  -17.6090  -46.6768 H         1 UNK         0.0600 
    156 H156       -1.7824  -16.0274  -46.5826 H         1 UNK         0.0600 
    157 H157       -0.3521  -15.2292  -45.9476 H         1 UNK         0.0600 
    158 H158       -1.5951  -15.8118  -44.8497 H         1 UNK         0.0600 
    159 H159        0.9082  -16.4425  -44.2529 H         1 UNK         0.3000 
    160 H160        3.0075  -19.1081  -43.0614 H         1 UNK         0.0600 
    161 H161        4.5740  -17.1448  -43.0717 H         1 UNK         0.0600 
    162 H162        3.5666  -16.3567  -44.2871 H         1 UNK         0.0600 
    163 H163        4.3782  -17.8647  -44.6622 H         1 UNK         0.0600 
    164 H164        2.1766  -16.4786  -42.1307 H         1 UNK         0.3000 
    165 H165       -0.4345  -17.6860  -40.0291 H         1 UNK         0.0600 
    166 H166        0.9047  -16.5866  -38.2537 H         1 UNK         0.0600 
    167 H167        1.6140  -18.1378  -38.6720 H         1 UNK         0.0600 
    168 H168        2.3505  -16.6528  -39.2623 H         1 UNK         0.0600 
    169 H169        0.7709  -15.1073  -40.3792 H         1 UNK         0.3000 
    170 H170       -1.0661  -14.0831  -43.2272 H         1 UNK         0.0600 
    171 H171       -2.7450  -13.7670  -41.4002 H         1 UNK         0.0600 
    172 H172       -1.4707  -13.2349  -40.3090 H         1 UNK         0.0600 
    173 H173       -1.8737  -12.2791  -41.7358 H         1 UNK         0.0600 
    174 H174        0.6076  -12.5555  -41.5794 H         1 UNK         0.3000 
    175 H175        2.9750  -12.7094  -41.5016 H         1 UNK         0.0600 
    176 H176        5.0902  -13.1083  -42.7247 H         1 UNK         0.0600 
    177 H177        4.2881  -14.6300  -42.3706 H         1 UNK         0.0600 
    178 H178        4.2290  -13.9642  -43.9990 H         1 UNK         0.0600 
    179 H179        3.3910  -11.6980  -44.2023 H         1 UNK         0.3000 
    180 H180        1.5133   -8.6837  -43.6414 H         1 UNK         0.0600 
    181 H181        4.4724   -9.3547  -44.0831 H         1 UNK         0.0600 
    182 H182        3.8247   -8.3682  -42.7770 H         1 UNK         0.0600 
    183 H183        3.6953   -7.8138  -44.4393 H         1 UNK         0.0600 
    184 H184        2.8468  -10.3896  -45.7112 H         1 UNK         0.3000 
    185 H185       -0.0991  -10.6052  -47.6227 H         1 UNK         0.0600 
    186 H186        1.2468   -9.6842  -49.4953 H         1 UNK         0.0600 
    187 H187        0.7103   -8.3862  -48.4408 H         1 UNK         0.0600 
    188 H188        2.3757   -8.9478  -48.3567 H         1 UNK         0.0600 
    189 H189        2.6035  -11.3966  -48.1376 H         1 UNK         0.3000 
    190 H190       -1.8955  -21.0440  -46.8601 H         1 UNK         0.3000 
    191 H191       -3.5886  -22.1211  -48.8574 H         1 UNK         0.0600 
    192 H192       -4.2614  -21.1534  -46.0256 H         1 UNK         0.0600 
    193 H193       -5.4250  -21.3958  -47.3212 H         1 UNK         0.0600 
    194 H194       -4.1937  -20.1499  -47.4715 H         1 UNK         0.0600 
    195 H195       -2.7324  -23.3660  -45.6144 H         1 UNK         0.3000 
    196 H196       -4.4173  -25.6664  -45.6743 H         1 UNK         0.0600 
    197 H197       -1.8209  -25.1589  -44.1275 H         1 UNK         0.0600 
    198 H198       -2.9764  -26.4426  -43.7967 H         1 UNK         0.0600 
    199 H199       -3.4477  -24.7636  -43.5799 H         1 UNK         0.0600 
    200 H200       -0.9992  -25.1717  -46.6793 H         1 UNK         0.3000 
    201 H201       -0.4771  -27.8400  -47.4988 H         1 UNK         0.0600 
    202 H202        0.7726  -25.2099  -48.4543 H         1 UNK         0.0600 
    203 H203        1.4492  -26.8141  -48.7027 H         1 UNK         0.0600 
    204 H204        1.3053  -26.1679  -47.0749 H         1 UNK         0.0600 
    205 H205       -1.8155  -25.0487  -49.2951 H         1 UNK         0.3000 
    206 H206       -2.1453  -26.3982  -51.8124 H         1 UNK         0.0600 
    207 H207       -2.0652  -23.9156  -51.5799 H         1 UNK         0.0600 
    208 H208       -3.5701  -24.4161  -52.3352 H         1 UNK         0.0600 
    209 H209       -3.5586  -23.9376  -50.6443 H         1 UNK         0.0600 
    210 H210       -3.8658  -26.6060  -48.8497 H         1 UNK         0.3000 
    211 H211       -5.7127  -27.5233  -48.0815 H         1 UNK         0.0600 
    212 H212       -5.8426  -29.1410  -50.6836 H         1 UNK         0.0600 
    213 H213       -6.6654  -29.5171  -49.1767 H         1 UNK         0.0600 
    214 H214       -4.9118  -29.5829  -49.2528 H         1 UNK         0.0600 
    215 H215       -5.9717  -25.0577  -49.0127 H         1 UNK         0.3000 
    216 H216       -7.3529  -23.4157  -49.4046 H         1 UNK         0.0600 
    217 H217       -9.0379  -24.6450  -48.0568 H         1 UNK         0.0600 
    218 H218       -9.7932  -23.6731  -49.3101 H         1 UNK         0.0600 
    219 H219       -9.6665  -25.4119  -49.5156 H         1 UNK         0.0600 
    220 H220       -7.6034  -26.0464  -51.7122 H         1 UNK         0.3000 
    221 H221       -8.8634  -24.7798  -53.8811 H         1 UNK         0.0600 
    222 H222       -6.7796  -27.0246  -53.8269 H         1 UNK         0.0600 
    223 H223       -8.5291  -27.2167  -53.7351 H         1 UNK         0.0600 
    224 H224       -7.7875  -26.6142  -55.2106 H         1 UNK         0.0600 
    225 H225       -8.2636  -22.8779  -54.6677 H         1 UNK         0.3000 
    226 H226       -7.1952  -21.1937  -55.5965 H         1 UNK         0.0600 
    227 H227       -6.5230  -22.8829  -57.3245 H         1 UNK         0.0600 
    228 H228       -5.3469  -21.5903  -57.1628 H         1 UNK         0.0600 
    229 H229       -5.0145  -23.1641  -56.4558 H         1 UNK         0.0600 
    230 H230       -6.7009  -21.7857  -52.7791 H         1 UNK         0.3000 
    231 H231       -4.0499  -21.2981  -51.9843 H         1 UNK         0.0600 
    232 H232       -5.6164  -22.2276  -50.4205 H         1 UNK         0.0600 
    233 H233       -6.7368  -20.8702  -50.5909 H         1 UNK         0.0600 
    234 H234       -5.1991  -20.6481  -49.7779 H         1 UNK         0.0600 
    235 H235       -6.3077  -18.9950  -53.2501 H         1 UNK         0.3000 
    236 H236       -5.1708  -16.5902  -52.1494 H         1 UNK         0.0600 
    237 H237       -6.4507  -15.4992  -53.9966 H         1 UNK         0.0600 
    238 H238       -6.7812  -17.0702  -54.7161 H         1 UNK         0.0600 
    239 H239       -7.4496  -16.6592  -53.1355 H         1 UNK         0.0600 
    240 H240       -4.2703  -18.7365  -54.7459 H         1 UNK         0.3000 
    241 H241       -2.9063  -18.6359  -56.4749 H         1 UNK         0.0600 
    242 H242       -0.6571  -15.4531  -56.9826 H         1 UNK         0.3800 
    243 H243       -0.1931  -16.7417  -55.9057 H         1 UNK         0.3800 
    244 H244       -1.7333  -19.7998  -54.7891 H         1 UNK         0.0800 
    245 H245       -0.5819  -18.9513  -55.7629 H         1 UNK         0.0800 
    246 H246        1.4764  -17.7895  -54.5218 H         1 UNK         0.0800 
    247 H247        1.2191  -19.4595  -54.0744 H         1 UNK         0.0800 
@<TRIPOS>BOND
     1    1    2 1    
     2    1  127 1    
     3    1  128 1    
     4    1  129 1    
     5    2    3 2    
     6    2    4 am   BACKBONE|DICT|INTERRES
     7    4    5 1    
     8    4  130 1    
     9    5    6 1    
    10    5   65 1    
    11    5  131 1    
    12    6    7 1    
    13    6  132 1    
    14    6  133 1    
    15    7    8 1    
    16    8    9 1    
    17    8  134 1    
    18    8  135 1    
    19    9   10 ar   
    20    9   14 ar   
    21   10   11 ar   
    22   10  136 1    
    23   11   12 ar   
    24   11  126 1    
    25   12   13 ar   
    26   12  137 1    
    27   13   14 ar   
    28   13   15 1    
    29   14  138 1    
    30   15   16 1    
    31   15  139 1    
    32   15  140 1    
    33   16   17 1    
    34   17   18 1    
    35   17  141 1    
    36   17  142 1    
    37   18   19 1    
    38   18   67 1    
    39   18  143 1    
    40   19   20 am   BACKBONE|DICT|INTERRES
    41   19  144 1    
    42   20   21 2    
    43   20   22 1    
    44   22   23 1    
    45   22   24 1    
    46   22  145 1    
    47   23  146 1    
    48   23  147 1    
    49   23  148 1    
    50   24   25 am   BACKBONE|DICT|INTERRES
    51   24  149 1    
    52   25   26 2    
    53   25   27 1    
    54   27   28 1    
    55   27   29 1    
    56   27  150 1    
    57   28  151 1    
    58   28  152 1    
    59   28  153 1    
    60   29   30 am   BACKBONE|DICT|INTERRES
    61   29  154 1    
    62   30   31 2    
    63   30   32 1    
    64   32   33 1    
    65   32   34 1    
    66   32  155 1    
    67   33  156 1    
    68   33  157 1    
    69   33  158 1    
    70   34   35 am   BACKBONE|DICT|INTERRES
    71   34  159 1    
    72   35   36 2    
    73   35   37 1    
    74   37   38 1    
    75   37   39 1    
    76   37  160 1    
    77   38  161 1    
    78   38  162 1    
    79   38  163 1    
    80   39   40 am   BACKBONE|DICT|INTERRES
    81   39  164 1    
    82   40   41 2    
    83   40   42 1    
    84   42   43 1    
    85   42   44 1    
    86   42  165 1    
    87   43  166 1    
    88   43  167 1    
    89   43  168 1    
    90   44   45 am   BACKBONE|DICT|INTERRES
    91   44  169 1    
    92   45   46 2    
    93   45   47 1    
    94   47   48 1    
    95   47   49 1    
    96   47  170 1    
    97   48  171 1    
    98   48  172 1    
    99   48  173 1    
   100   49   50 am   BACKBONE|DICT|INTERRES
   101   49  174 1    
   102   50   51 2    
   103   50   52 1    
   104   52   53 1    
   105   52   54 1    
   106   52  175 1    
   107   53  176 1    
   108   53  177 1    
   109   53  178 1    
   110   54   55 am   BACKBONE|DICT|INTERRES
   111   54  179 1    
   112   55   56 2    
   113   55   57 1    
   114   57   58 1    
   115   57   59 1    
   116   57  180 1    
   117   58  181 1    
   118   58  182 1    
   119   58  183 1    
   120   59   60 am   BACKBONE|DICT|INTERRES
   121   59  184 1    
   122   60   61 2    
   123   60   62 1    
   124   62   63 1    
   125   62   64 1    
   126   62  185 1    
   127   63  186 1    
   128   63  187 1    
   129   63  188 1    
   130   64   65 am   BACKBONE|DICT|INTERRES
   131   64  189 1    
   132   65   66 2    
   133   67   68 2    
   134   67   69 am   BACKBONE|DICT|INTERRES
   135   69   70 1    
   136   69  190 1    
   137   70   71 1    
   138   70   72 1    
   139   70  191 1    
   140   71  192 1    
   141   71  193 1    
   142   71  194 1    
   143   72   73 2    
   144   72   74 am   BACKBONE|DICT|INTERRES
   145   74   75 1    
   146   74  195 1    
   147   75   76 1    
   148   75   77 1    
   149   75  196 1    
   150   76  197 1    
   151   76  198 1    
   152   76  199 1    
   153   77   78 2    
   154   77   79 am   BACKBONE|DICT|INTERRES
   155   79   80 1    
   156   79  200 1    
   157   80   81 1    
   158   80   82 1    
   159   80  201 1    
   160   81  202 1    
   161   81  203 1    
   162   81  204 1    
   163   82   83 2    
   164   82   84 am   BACKBONE|DICT|INTERRES
   165   84   85 1    
   166   84  205 1    
   167   85   86 1    
   168   85   87 1    
   169   85  206 1    
   170   86  207 1    
   171   86  208 1    
   172   86  209 1    
   173   87   88 2    
   174   87   89 am   BACKBONE|DICT|INTERRES
   175   89   90 1    
   176   89  210 1    
   177   90   91 1    
   178   90   92 1    
   179   90  211 1    
   180   91  212 1    
   181   91  213 1    
   182   91  214 1    
   183   92   93 2    
   184   92   94 am   BACKBONE|DICT|INTERRES
   185   94   95 1    
   186   94  215 1    
   187   95   96 1    
   188   95   97 1    
   189   95  216 1    
   190   96  217 1    
   191   96  218 1    
   192   96  219 1    
   193   97   98 2    
   194   97   99 am   BACKBONE|DICT|INTERRES
   195   99  100 1    
   196   99  220 1    
   197  100  101 1    
   198  100  102 1    
   199  100  221 1    
   200  101  222 1    
   201  101  223 1    
   202  101  224 1    
   203  102  103 2    
   204  102  104 am   BACKBONE|DICT|INTERRES
   205  104  105 1    
   206  104  225 1    
   207  105  106 1    
   208  105  107 1    
   209  105  226 1    
   210  106  227 1    
   211  106  228 1    
   212  106  229 1    
   213  107  108 2    
   214  107  109 am   BACKBONE|DICT|INTERRES
   215  109  110 1    
   216  109  230 1    
   217  110  111 1    
   218  110  112 1    
   219  110  231 1    
   220  111  232 1    
   221  111  233 1    
   222  111  234 1    
   223  112  113 2    
   224  112  114 am   BACKBONE|DICT|INTERRES
   225  114  115 1    
   226  114  235 1    
   227  115  116 1    
   228  115  117 1    
   229  115  236 1    
   230  116  237 1    
   231  116  238 1    
   232  116  239 1    
   233  117  118 2    
   234  117  119 am   BACKBONE|DICT|INTERRES
   235  119  120 1    
   236  119  240 1    
   237  120  121 1    
   238  120  124 1    
   239  120  241 1    
   240  121  122 am   BACKBONE|DICT|INTERRES
   241  121  123 2    
   242  122  242 1    
   243  122  243 1    
   244  124  125 1    
   245  124  244 1    
   246  124  245 1    
   247  125  126 1    
   248  126  246 1    
   249  126  247 1    
@<TRIPOS>SUBSTRUCTURE
     1 UNK         1 GROUP             0       ****    0 ROOT    
