@<TRIPOS>MOLECULE
3R540
247   249    1
SMALL
USER_CHARGES


@<TRIPOS>ATOM
      1 CA          4.9212  -16.6303  -45.6103 C.3       0 UNK        -0.1800 
      2 C           4.1566  -15.3364  -45.3791 C.2       0 UNK         0.5000 
      3 O           4.0284  -14.8934  -44.2387 O.2       0 UNK        -0.5000 
      4 N           3.6755  -14.7071  -46.4597 N.am      1 UNK        -0.5000 
      5 CA          2.8816  -13.4686  -46.4324 C.3       1 UNK         0.1400 
      6 C6          2.2251  -13.1631  -47.8033 C.3       23 UNK        -0.0398 
      7 S7          0.8264  -14.2864  -48.1538 S.3       23 UNK        -0.2404 
      8 C8          0.8817  -14.4448  -49.9725 C.3       23 UNK        -0.0205 
      9 C9          1.5505  -15.7187  -50.4899 C.ar      23 UNK        -0.0193 
     10 C10         1.1509  -16.2387  -51.7264 C.ar      23 UNK        -0.1150 
     11 C11         1.7558  -17.3852  -52.2502 C.ar      23 UNK        -0.0193 
     12 C12         2.7700  -18.0177  -51.5269 C.ar      23 UNK        -0.1150 
     13 C13         3.1840  -17.5110  -50.2933 C.ar      23 UNK        -0.0193 
     14 C14         2.5724  -16.3636  -49.7829 C.ar      23 UNK        -0.1150 
     15 C15         4.3211  -18.1771  -49.5324 C.3       23 UNK        -0.0205 
     16 S16         3.8783  -19.8228  -48.8957 S.3       23 UNK        -0.2404 
     17 C17         2.6125  -19.4329  -47.6399 C.3       23 UNK        -0.0398 
     18 CA          1.4389  -20.4421  -47.6704 C.3       11 UNK         0.1400 
     19 N           0.7551  -20.5215  -46.3806 N.am      11 UNK        -0.5000 
     20 C           0.0723  -21.5938  -45.9594 C.2       10 UNK         0.5000 
     21 O          -0.0477  -22.6287  -46.6140 O.2       10 UNK        -0.5000 
     22 CA         -0.5890  -21.5036  -44.5716 C.3       10 UNK         0.1400 
     23 CB          0.4244  -21.8397  -43.4674 C.3       10 UNK        -0.1800 
     24 N          -1.1987  -20.2025  -44.2964 N.am      10 UNK        -0.5000 
     25 C          -2.2107  -19.6788  -45.0026 C.2       9 UNK         0.5000 
     26 O          -2.7266  -20.2302  -45.9743 O.2       9 UNK        -0.5000 
     27 CA         -2.7003  -18.2828  -44.5803 C.3       9 UNK         0.1400 
     28 CB         -3.5560  -18.3606  -43.3071 C.3       9 UNK        -0.1800 
     29 N          -1.6041  -17.3389  -44.3738 N.am      9 UNK        -0.5000 
     30 C          -0.7200  -16.9814  -45.3163 C.2       8 UNK         0.5000 
     31 O          -0.7260  -17.4069  -46.4691 O.2       8 UNK        -0.5000 
     32 CA          0.4024  -16.0374  -44.8709 C.3       8 UNK         0.1400 
     33 CB         -0.1626  -14.6374  -44.5682 C.3       8 UNK        -0.1800 
     34 N           1.1132  -16.5564  -43.7051 N.am      8 UNK        -0.5000 
     35 C           1.7269  -17.7461  -43.6269 C.2       7 UNK         0.5000 
     36 O           1.8151  -18.5389  -44.5636 O.2       7 UNK        -0.5000 
     37 CA          2.2903  -18.1422  -42.2518 C.3       7 UNK         0.1400 
     38 CB          3.6856  -17.5425  -42.0258 C.3       7 UNK        -0.1800 
     39 N           1.4021  -17.7420  -41.1617 N.am      7 UNK        -0.5000 
     40 C           0.1877  -18.2643  -40.9387 C.2       6 UNK         0.5000 
     41 O          -0.3027  -19.1766  -41.6049 O.2       6 UNK        -0.5000 
     42 CA         -0.6296  -17.6189  -39.8057 C.3       6 UNK         0.1400 
     43 CB         -0.1702  -18.1386  -38.4351 C.3       6 UNK        -0.1800 
     44 N          -0.5395  -16.1575  -39.8299 N.am      6 UNK        -0.5000 
     45 C          -1.0751  -15.3910  -40.7902 C.2       5 UNK         0.5000 
     46 O          -1.7463  -15.8378  -41.7212 O.2       5 UNK        -0.5000 
     47 CA         -0.7837  -13.8782  -40.7167 C.3       5 UNK         0.1400 
     48 CB         -1.8361  -13.1703  -39.8505 C.3       5 UNK        -0.1800 
     49 N           0.5572  -13.5512  -40.2152 N.am      5 UNK        -0.5000 
     50 C           1.7003  -13.9033  -40.8182 C.2       4 UNK         0.5000 
     51 O           1.7463  -14.5873  -41.8391 O.2       4 UNK        -0.5000 
     52 CA          3.0077  -13.4690  -40.1475 C.3       4 UNK         0.1400 
     53 CB          3.3112  -14.3888  -38.9473 C.3       4 UNK        -0.1800 
     54 N           4.0966  -13.5370  -41.1232 N.am      4 UNK        -0.5000 
     55 C           5.3146  -13.0092  -40.9535 C.2       3 UNK         0.5000 
     56 O           5.6320  -12.3243  -39.9799 O.2       3 UNK        -0.5000 
     57 CA          6.3611  -13.3011  -42.0397 C.3       3 UNK         0.1400 
     58 CB          6.6926  -14.8019  -42.1103 C.3       3 UNK        -0.1800 
     59 N           5.9390  -12.8243  -43.3565 N.am      3 UNK        -0.5000 
     60 C           6.2197  -11.6031  -43.8371 C.2       2 UNK         0.5000 
     61 O           6.7776  -10.7284  -43.1726 O.2       2 UNK        -0.5000 
     62 CA          5.8718  -11.2998  -45.3104 C.3       2 UNK         0.1400 
     63 CB          7.1544  -11.2195  -46.1544 C.3       2 UNK        -0.1800 
     64 N           4.9895  -12.2997  -45.9101 N.am      2 UNK        -0.5000 
     65 C           3.6520  -12.2476  -45.8807 C.2       1 UNK         0.5000 
     66 O           3.0202  -11.2987  -45.4147 O.2       1 UNK        -0.5000 
     67 C           0.4540  -20.1677  -48.8251 C.2       11 UNK         0.5000 
     68 O           0.5171  -20.8548  -49.8453 O.2       11 UNK        -0.5000 
     69 N          -0.4477  -19.1897  -48.6508 N.am      12 UNK        -0.5000 
     70 CA         -1.3797  -18.7589  -49.6937 C.3       12 UNK         0.1400 
     71 CB         -1.9792  -17.3918  -49.3358 C.3       12 UNK        -0.1800 
     72 C          -2.4961  -19.7780  -49.9796 C.2       12 UNK         0.5000 
     73 O          -2.9272  -19.8867  -51.1273 O.2       12 UNK        -0.5000 
     74 N          -2.9342  -20.5135  -48.9502 N.am      13 UNK        -0.5000 
     75 CA         -3.9386  -21.5699  -49.0461 C.3       13 UNK         0.1400 
     76 CB         -5.1364  -21.2332  -48.1396 C.3       13 UNK        -0.1800 
     77 C          -3.2987  -22.9302  -48.7225 C.2       13 UNK         0.5000 
     78 O          -3.8597  -23.7103  -47.9523 O.2       13 UNK        -0.5000 
     79 N          -2.1408  -23.2109  -49.3391 N.am      14 UNK        -0.5000 
     80 CA         -1.3845  -24.4596  -49.1781 C.3       14 UNK         0.1400 
     81 CB         -0.0498  -24.3447  -49.9288 C.3       14 UNK        -0.1800 
     82 C          -2.1520  -25.7195  -49.6296 C.2       14 UNK         0.5000 
     83 O          -1.9687  -26.7858  -49.0425 O.2       14 UNK        -0.5000 
     84 N          -3.0263  -25.5611  -50.6326 N.am      15 UNK        -0.5000 
     85 CA         -3.9529  -26.5863  -51.1231 C.3       15 UNK         0.1400 
     86 CB         -3.9925  -26.5232  -52.6614 C.3       15 UNK        -0.1800 
     87 C          -5.3611  -26.4234  -50.5089 C.2       15 UNK         0.5000 
     88 O          -6.3477  -26.8165  -51.1337 O.2       15 UNK        -0.5000 
     89 N          -5.4487  -25.7774  -49.3334 N.am      16 UNK        -0.5000 
     90 CA         -6.6626  -25.4369  -48.5727 C.3       16 UNK         0.1400 
     91 CB         -7.3736  -26.7179  -48.0897 C.3       16 UNK        -0.1800 
     92 C          -7.6247  -24.4867  -49.3208 C.2       16 UNK         0.5000 
     93 O          -8.7892  -24.3698  -48.9386 O.2       16 UNK        -0.5000 
     94 N          -7.1244  -23.8632  -50.3995 N.am      17 UNK        -0.5000 
     95 CA         -7.8450  -23.0998  -51.4239 C.3       17 UNK         0.1400 
     96 CB         -8.4790  -21.8273  -50.8286 C.3       17 UNK        -0.1800 
     97 C          -8.8548  -23.9429  -52.2389 C.2       17 UNK         0.5000 
     98 O          -9.6326  -23.3744  -53.0058 O.2       17 UNK        -0.5000 
     99 N          -8.8102  -25.2785  -52.1056 N.am      18 UNK        -0.5000 
    100 CA        -9.6872  -26.2216  -52.8046 C.3       18 UNK         0.1400 
    101 CB        -9.6189  -27.5882  -52.1069 C.3       18 UNK        -0.1800 
    102 C         -9.3274  -26.3509  -54.2948 C.2       18 UNK         0.5000 
    103 O        -10.2171  -26.5203  -55.1285 O.2       18 UNK        -0.5000 
    104 N         -8.0308  -26.2142  -54.5965 N.am      19 UNK        -0.5000 
    105 CA        -7.4699  -26.1198  -55.9443 C.3       19 UNK         0.1400 
    106 CB        -6.2766  -27.0867  -56.0488 C.3       19 UNK        -0.1800 
    107 C         -7.0678  -24.6625  -56.2545 C.2       19 UNK         0.5000 
    108 O         -6.0848  -24.4344  -56.9605 O.2       19 UNK        -0.5000 
    109 N         -7.7960  -23.6984  -55.6683 N.am      20 UNK        -0.5000 
    110 CA        -7.6140  -22.2386  -55.6898 C.3       20 UNK         0.1400 
    111 CB        -7.6684  -21.6806  -57.1243 C.3       20 UNK        -0.1800 
    112 C         -6.3613  -21.7328  -54.9452 C.2       20 UNK         0.5000 
    113 O         -6.4236  -20.6717  -54.3217 O.2       20 UNK        -0.5000 
    114 N         -5.2625  -22.4982  -55.0005 N.am      21 UNK        -0.5000 
    115 CA        -3.9474  -22.2107  -54.4244 C.3       21 UNK         0.1400 
    116 CB        -4.0081  -22.3083  -52.8852 C.3       21 UNK        -0.1800 
    117 C         -3.3898  -20.8791  -54.9743 C.2       21 UNK         0.5000 
    118 O         -3.3337  -20.7254  -56.1967 O.2       21 UNK        -0.5000 
    119 N         -3.0137  -19.9417  -54.0970 N.am      22 UNK        -0.5000 
    120 CA        -2.5931  -18.5800  -54.4708 C.3       22 UNK         0.1400 
    121 C         -3.7794  -17.5789  -54.6161 C.2       22 UNK         0.5000 
    122 N         -5.0350  -17.9862  -54.4630 N.am      22 UNK        -0.7600 
    123 O         -3.5591  -16.4022  -54.8897 O.2       22 UNK        -0.5000 
    124 C124       -1.4971  -18.0312  -53.5209 C.3       23 UNK        -0.0398 
    125 S125       -0.0284  -19.1193  -53.4631 S.3       23 UNK        -0.2404 
    126 C126        1.3411  -17.9313  -53.6080 C.3       23 UNK        -0.0205 
    127 H127        5.3712  -16.6559  -46.6021 H         1 UNK         0.0600 
    128 H128        4.2533  -17.4850  -45.5098 H         1 UNK         0.0600 
    129 H129        5.7208  -16.7327  -44.8765 H         1 UNK         0.0600 
    130 H130        3.8375  -15.1013  -47.3733 H         1 UNK         0.3000 
    131 H131        2.0808  -13.6278  -45.7147 H         1 UNK         0.0600 
    132 H132        2.9653  -13.2185  -48.6030 H         1 UNK         0.0800 
    133 H133        1.8238  -12.1481  -47.8290 H         1 UNK         0.0800 
    134 H134       -0.1497  -14.4156  -50.3273 H         1 UNK         0.0800 
    135 H135        1.3767  -13.5770  -50.4096 H         1 UNK         0.0800 
    136 H136        0.3717  -15.7442  -52.2890 H         1 UNK         0.1150 
    137 H137        3.2442  -18.9033  -51.9263 H         1 UNK         0.1150 
    138 H138        2.9032  -15.9715  -48.8352 H         1 UNK         0.1150 
    139 H139        5.1778  -18.2805  -50.1997 H         1 UNK         0.0800 
    140 H140        4.6568  -17.5524  -48.7046 H         1 UNK         0.0800 
    141 H141        2.2566  -18.4059  -47.7360 H         1 UNK         0.0800 
    142 H142        3.1186  -19.4827  -46.6753 H         1 UNK         0.0800 
    143 H143        1.8710  -21.4288  -47.8543 H         1 UNK         0.0600 
    144 H144        0.8541  -19.7220  -45.7607 H         1 UNK         0.3000 
    145 H145       -1.3843  -22.2513  -44.5392 H         1 UNK         0.0600 
    146 H146       -0.0540  -21.8691  -42.4884 H         1 UNK         0.0600 
    147 H147        0.8786  -22.8167  -43.6371 H         1 UNK         0.0600 
    148 H148        1.2293  -21.1055  -43.4249 H         1 UNK         0.0600 
    149 H149       -0.8373  -19.6901  -43.4979 H         1 UNK         0.3000 
    150 H150       -3.3239  -17.8928  -45.3873 H         1 UNK         0.0600 
    151 H151       -4.3889  -19.0527  -43.4371 H         1 UNK         0.0600 
    152 H152       -3.9771  -17.3868  -43.0565 H         1 UNK         0.0600 
    153 H153       -2.9740  -18.7014  -42.4499 H         1 UNK         0.0600 
    154 H154       -1.5198  -16.9337  -43.4470 H         1 UNK         0.3000 
    155 H155        1.1262  -15.9599  -45.6830 H         1 UNK         0.0600 
    156 H156       -1.0079  -14.6728  -43.8839 H         1 UNK         0.0600 
    157 H157        0.5853  -13.9836  -44.1227 H         1 UNK         0.0600 
    158 H158       -0.5168  -14.1581  -45.4807 H         1 UNK         0.0600 
    159 H159        1.1850  -15.9275  -42.9083 H         1 UNK         0.3000 
    160 H160        2.3827  -19.2298  -42.2313 H         1 UNK         0.0600 
    161 H161        3.6565  -16.4537  -42.0009 H         1 UNK         0.0600 
    162 H162        4.3697  -17.8336  -42.8235 H         1 UNK         0.0600 
    163 H163        4.1165  -17.8868  -41.0857 H         1 UNK         0.0600 
    164 H164        1.7007  -16.9591  -40.6007 H         1 UNK         0.3000 
    165 H165       -1.6754  -17.9018  -39.9450 H         1 UNK         0.0600 
    166 H166       -0.7940  -17.7413  -37.6343 H         1 UNK         0.0600 
    167 H167       -0.2373  -19.2264  -38.3889 H         1 UNK         0.0600 
    168 H168        0.8639  -17.8640  -38.2229 H         1 UNK         0.0600 
    169 H169       -0.0090  -15.7140  -39.0951 H         1 UNK         0.3000 
    170 H170       -0.8605  -13.4820  -41.7310 H         1 UNK         0.0600 
    171 H171       -2.8439  -13.3773  -40.2135 H         1 UNK         0.0600 
    172 H172       -1.7883  -13.4963  -38.8108 H         1 UNK         0.0600 
    173 H173       -1.7014  -12.0887  -39.8707 H         1 UNK         0.0600 
    174 H174        0.5981  -13.0014  -39.3691 H         1 UNK         0.3000 
    175 H175        2.8954  -12.4374  -39.8082 H         1 UNK         0.0600 
    176 H176        3.4673  -15.4208  -39.2641 H         1 UNK         0.0600 
    177 H177        4.2040  -14.0675  -38.4112 H         1 UNK         0.0600 
    178 H178        2.4918  -14.3856  -38.2277 H         1 UNK         0.0600 
    179 H179        3.8727  -14.0471  -41.9723 H         1 UNK         0.3000 
    180 H180        7.2824  -12.7899  -41.7512 H         1 UNK         0.0600 
    181 H181        5.8318  -15.4018  -42.4020 H         1 UNK         0.0600 
    182 H182        7.0323  -15.1707  -41.1418 H         1 UNK         0.0600 
    183 H183        7.4896  -14.9941  -42.8285 H         1 UNK         0.0600 
    184 H184        5.3893  -13.4698  -43.9129 H         1 UNK         0.3000 
    185 H185        5.3905  -10.3198  -45.3377 H         1 UNK         0.0600 
    186 H186        7.8321  -10.4575  -45.7671 H         1 UNK         0.0600 
    187 H187        7.6942  -12.1673  -46.1583 H         1 UNK         0.0600 
    188 H188        6.9301  -10.9562  -47.1882 H         1 UNK         0.0600 
    189 H189        5.4311  -13.1155  -46.3084 H         1 UNK         0.3000 
    190 H190       -0.4670  -18.6570  -47.7827 H         1 UNK         0.3000 
    191 H191       -0.7995  -18.6356  -50.6089 H         1 UNK         0.0600 
    192 H192       -2.5867  -17.4441  -48.4316 H         1 UNK         0.0600 
    193 H193       -2.6171  -17.0222  -50.1395 H         1 UNK         0.0600 
    194 H194       -1.1974  -16.6497  -49.1735 H         1 UNK         0.0600 
    195 H195       -2.5411  -20.3639  -48.0258 H         1 UNK         0.3000 
    196 H196       -4.3219  -21.6465  -50.0639 H         1 UNK         0.0600 
    197 H197       -5.9390  -21.9602  -48.2674 H         1 UNK         0.0600 
    198 H198       -5.5477  -20.2527  -48.3793 H         1 UNK         0.0600 
    199 H199       -4.8618  -21.2336  -47.0851 H         1 UNK         0.0600 
    200 H200       -1.7166  -22.4992  -49.9177 H         1 UNK         0.3000 
    201 H201       -1.1681  -24.5804  -48.1151 H         1 UNK         0.0600 
    202 H202        0.5658  -23.5480  -49.5112 H         1 UNK         0.0600 
    203 H203       -0.1986  -24.1361  -50.9889 H         1 UNK         0.0600 
    204 H204        0.5255  -25.2682  -49.8512 H         1 UNK         0.0600 
    205 H205       -3.0971  -24.6477  -51.0546 H         1 UNK         0.3000 
    206 H206       -3.5960  -27.5784  -50.8399 H         1 UNK         0.0600 
    207 H207       -2.9917  -26.6061  -53.0856 H         1 UNK         0.0600 
    208 H208       -4.5820  -27.3449  -53.0700 H         1 UNK         0.0600 
    209 H209       -4.4336  -25.5939  -53.0214 H         1 UNK         0.0600 
    210 H210       -4.5908  -25.4381  -48.9126 H         1 UNK         0.3000 
    211 H211       -6.3276  -24.8916  -47.6895 H         1 UNK         0.0600 
    212 H212       -7.8091  -27.2780  -48.9178 H         1 UNK         0.0600 
    213 H213       -8.1816  -26.4809  -47.3967 H         1 UNK         0.0600 
    214 H214       -6.6828  -27.3777  -47.5647 H         1 UNK         0.0600 
    215 H215       -6.1567  -24.0547  -50.6084 H         1 UNK         0.3000 
    216 H216       -7.0872  -22.7777  -52.1389 H         1 UNK         0.0600 
    217 H217       -8.8684  -21.1808  -51.6160 H         1 UNK         0.0600 
    218 H218       -7.7456  -21.2469  -50.2689 H         1 UNK         0.0600 
    219 H219       -9.3073  -22.0597  -50.1591 H         1 UNK         0.0600 
    220 H220       -8.1087  -25.6871  -51.4985 H         1 UNK         0.3000 
    221 H221      -10.7133  -25.8538  -52.7369 H         1 UNK         0.0600 
    222 H222       -8.6158  -28.0143  -52.1502 H         1 UNK         0.0600 
    223 H223       -9.9036  -27.5096  -51.0574 H         1 UNK         0.0600 
    224 H224      -10.2985  -28.3003  -52.5766 H         1 UNK         0.0600 
    225 H225       -7.3833  -26.0798  -53.8327 H         1 UNK         0.3000 
    226 H226       -8.2112  -26.4140  -56.6897 H         1 UNK         0.0600 
    227 H227       -6.5715  -28.1050  -55.7950 H         1 UNK         0.0600 
    228 H228       -5.8776  -27.1102  -57.0636 H         1 UNK         0.0600 
    229 H229       -5.4639  -26.7969  -55.3822 H         1 UNK         0.0600 
    230 H230       -8.5645  -24.0055  -55.0870 H         1 UNK         0.3000 
    231 H231       -8.4724  -21.8328  -55.1520 H         1 UNK         0.0600 
    232 H232       -7.6585  -20.5899  -57.1153 H         1 UNK         0.0600 
    233 H233       -8.5790  -21.9932  -57.6354 H         1 UNK         0.0600 
    234 H234       -6.8172  -22.0055  -57.7231 H         1 UNK         0.0600 
    235 H235       -5.3076  -23.3007  -55.6216 H         1 UNK         0.3000 
    236 H236       -3.2761  -22.9938  -54.7795 H         1 UNK         0.0600 
    237 H237       -3.0121  -22.2279  -52.4487 H         1 UNK         0.0600 
    238 H238       -4.6326  -21.5256  -52.4537 H         1 UNK         0.0600 
    239 H239       -4.4211  -23.2647  -52.5694 H         1 UNK         0.0600 
    240 H240       -3.0865  -20.1166  -53.0988 H         1 UNK         0.3000 
    241 H241       -2.1420  -18.6224  -55.4638 H         1 UNK         0.0600 
    242 H242       -5.7824  -17.3189  -54.5671 H         1 UNK         0.3800 
    243 H243       -5.2608  -18.9568  -54.2763 H         1 UNK         0.3800 
    244 H244       -1.1880  -17.0364  -53.8440 H         1 UNK         0.0800 
    245 H245       -1.8928  -17.9049  -52.5146 H         1 UNK         0.0800 
    246 H246        2.1884  -18.4393  -54.0708 H         1 UNK         0.0800 
    247 H247        1.0773  -17.1188  -54.2864 H         1 UNK         0.0800 
@<TRIPOS>BOND
     1    1    2 1    
     2    1  127 1    
     3    1  128 1    
     4    1  129 1    
     5    2    3 2    
     6    2    4 am   BACKBONE|DICT|INTERRES
     7    4    5 1    
     8    4  130 1    
     9    5    6 1    
    10    5   65 1    
    11    5  131 1    
    12    6    7 1    
    13    6  132 1    
    14    6  133 1    
    15    7    8 1    
    16    8    9 1    
    17    8  134 1    
    18    8  135 1    
    19    9   10 ar   
    20    9   14 ar   
    21   10   11 ar   
    22   10  136 1    
    23   11   12 ar   
    24   11  126 1    
    25   12   13 ar   
    26   12  137 1    
    27   13   14 ar   
    28   13   15 1    
    29   14  138 1    
    30   15   16 1    
    31   15  139 1    
    32   15  140 1    
    33   16   17 1    
    34   17   18 1    
    35   17  141 1    
    36   17  142 1    
    37   18   19 1    
    38   18   67 1    
    39   18  143 1    
    40   19   20 am   BACKBONE|DICT|INTERRES
    41   19  144 1    
    42   20   21 2    
    43   20   22 1    
    44   22   23 1    
    45   22   24 1    
    46   22  145 1    
    47   23  146 1    
    48   23  147 1    
    49   23  148 1    
    50   24   25 am   BACKBONE|DICT|INTERRES
    51   24  149 1    
    52   25   26 2    
    53   25   27 1    
    54   27   28 1    
    55   27   29 1    
    56   27  150 1    
    57   28  151 1    
    58   28  152 1    
    59   28  153 1    
    60   29   30 am   BACKBONE|DICT|INTERRES
    61   29  154 1    
    62   30   31 2    
    63   30   32 1    
    64   32   33 1    
    65   32   34 1    
    66   32  155 1    
    67   33  156 1    
    68   33  157 1    
    69   33  158 1    
    70   34   35 am   BACKBONE|DICT|INTERRES
    71   34  159 1    
    72   35   36 2    
    73   35   37 1    
    74   37   38 1    
    75   37   39 1    
    76   37  160 1    
    77   38  161 1    
    78   38  162 1    
    79   38  163 1    
    80   39   40 am   BACKBONE|DICT|INTERRES
    81   39  164 1    
    82   40   41 2    
    83   40   42 1    
    84   42   43 1    
    85   42   44 1    
    86   42  165 1    
    87   43  166 1    
    88   43  167 1    
    89   43  168 1    
    90   44   45 am   BACKBONE|DICT|INTERRES
    91   44  169 1    
    92   45   46 2    
    93   45   47 1    
    94   47   48 1    
    95   47   49 1    
    96   47  170 1    
    97   48  171 1    
    98   48  172 1    
    99   48  173 1    
   100   49   50 am   BACKBONE|DICT|INTERRES
   101   49  174 1    
   102   50   51 2    
   103   50   52 1    
   104   52   53 1    
   105   52   54 1    
   106   52  175 1    
   107   53  176 1    
   108   53  177 1    
   109   53  178 1    
   110   54   55 am   BACKBONE|DICT|INTERRES
   111   54  179 1    
   112   55   56 2    
   113   55   57 1    
   114   57   58 1    
   115   57   59 1    
   116   57  180 1    
   117   58  181 1    
   118   58  182 1    
   119   58  183 1    
   120   59   60 am   BACKBONE|DICT|INTERRES
   121   59  184 1    
   122   60   61 2    
   123   60   62 1    
   124   62   63 1    
   125   62   64 1    
   126   62  185 1    
   127   63  186 1    
   128   63  187 1    
   129   63  188 1    
   130   64   65 am   BACKBONE|DICT|INTERRES
   131   64  189 1    
   132   65   66 2    
   133   67   68 2    
   134   67   69 am   BACKBONE|DICT|INTERRES
   135   69   70 1    
   136   69  190 1    
   137   70   71 1    
   138   70   72 1    
   139   70  191 1    
   140   71  192 1    
   141   71  193 1    
   142   71  194 1    
   143   72   73 2    
   144   72   74 am   BACKBONE|DICT|INTERRES
   145   74   75 1    
   146   74  195 1    
   147   75   76 1    
   148   75   77 1    
   149   75  196 1    
   150   76  197 1    
   151   76  198 1    
   152   76  199 1    
   153   77   78 2    
   154   77   79 am   BACKBONE|DICT|INTERRES
   155   79   80 1    
   156   79  200 1    
   157   80   81 1    
   158   80   82 1    
   159   80  201 1    
   160   81  202 1    
   161   81  203 1    
   162   81  204 1    
   163   82   83 2    
   164   82   84 am   BACKBONE|DICT|INTERRES
   165   84   85 1    
   166   84  205 1    
   167   85   86 1    
   168   85   87 1    
   169   85  206 1    
   170   86  207 1    
   171   86  208 1    
   172   86  209 1    
   173   87   88 2    
   174   87   89 am   BACKBONE|DICT|INTERRES
   175   89   90 1    
   176   89  210 1    
   177   90   91 1    
   178   90   92 1    
   179   90  211 1    
   180   91  212 1    
   181   91  213 1    
   182   91  214 1    
   183   92   93 2    
   184   92   94 am   BACKBONE|DICT|INTERRES
   185   94   95 1    
   186   94  215 1    
   187   95   96 1    
   188   95   97 1    
   189   95  216 1    
   190   96  217 1    
   191   96  218 1    
   192   96  219 1    
   193   97   98 2    
   194   97   99 am   BACKBONE|DICT|INTERRES
   195   99  100 1    
   196   99  220 1    
   197  100  101 1    
   198  100  102 1    
   199  100  221 1    
   200  101  222 1    
   201  101  223 1    
   202  101  224 1    
   203  102  103 2    
   204  102  104 am   BACKBONE|DICT|INTERRES
   205  104  105 1    
   206  104  225 1    
   207  105  106 1    
   208  105  107 1    
   209  105  226 1    
   210  106  227 1    
   211  106  228 1    
   212  106  229 1    
   213  107  108 2    
   214  107  109 am   BACKBONE|DICT|INTERRES
   215  109  110 1    
   216  109  230 1    
   217  110  111 1    
   218  110  112 1    
   219  110  231 1    
   220  111  232 1    
   221  111  233 1    
   222  111  234 1    
   223  112  113 2    
   224  112  114 am   BACKBONE|DICT|INTERRES
   225  114  115 1    
   226  114  235 1    
   227  115  116 1    
   228  115  117 1    
   229  115  236 1    
   230  116  237 1    
   231  116  238 1    
   232  116  239 1    
   233  117  118 2    
   234  117  119 am   BACKBONE|DICT|INTERRES
   235  119  120 1    
   236  119  240 1    
   237  120  121 1    
   238  120  124 1    
   239  120  241 1    
   240  121  122 am   BACKBONE|DICT|INTERRES
   241  121  123 2    
   242  122  242 1    
   243  122  243 1    
   244  124  125 1    
   245  124  244 1    
   246  124  245 1    
   247  125  126 1    
   248  126  246 1    
   249  126  247 1    
@<TRIPOS>SUBSTRUCTURE
     1 UNK         1 GROUP             0       ****    0 ROOT    
