@<TRIPOS>MOLECULE
3R540
247   249    1
SMALL
USER_CHARGES


@<TRIPOS>ATOM
      1 CA          4.1640   -9.3767  -49.0795 C.3       0 UNK        -0.1800 
      2 C           4.2216  -10.8978  -49.0629 C.2       0 UNK         0.5000 
      3 O           4.7173  -11.4800  -48.0982 O.2       0 UNK        -0.5000 
      4 N           3.7253  -11.5387  -50.1297 N.am      1 UNK        -0.5000 
      5 CA          3.6439  -12.9964  -50.2786 C.3       1 UNK         0.1400 
      6 C6          3.2857  -13.3821  -51.7389 C.3       23 UNK        -0.0398 
      7 S7          3.3695  -15.1725  -52.0945 S.3       23 UNK        -0.2404 
      8 C8          1.6075  -15.6181  -51.9618 C.3       23 UNK        -0.0205 
      9 C9          1.3798  -17.1112  -52.1250 C.ar      23 UNK        -0.0193 
     10 C10         0.7002  -17.6008  -53.2427 C.ar      23 UNK        -0.1150 
     11 C11         0.4510  -18.9689  -53.3758 C.ar      23 UNK        -0.0193 
     12 C12         0.8918  -19.8508  -52.3837 C.ar      23 UNK        -0.1150 
     13 C13         1.5931  -19.3776  -51.2711 C.ar      23 UNK        -0.0193 
     14 C14         1.8279  -18.0039  -51.1462 C.ar      23 UNK        -0.1150 
     15 C15         2.1586  -20.3561  -50.2479 C.3       23 UNK        -0.0205 
     16 S16         1.6404  -19.9942  -48.5403 S.3       23 UNK        -0.2404 
     17 C17         0.0517  -20.8821  -48.4124 C.3       23 UNK        -0.0398 
     18 CA          0.1935  -22.2027  -47.6215 C.3       11 UNK         0.1400 
     19 N           0.6277  -21.9717  -46.2415 N.am      11 UNK        -0.5000 
     20 C           1.0771  -22.9312  -45.4236 C.2       10 UNK         0.5000 
     21 O           1.1969  -24.1104  -45.7557 O.2       10 UNK        -0.5000 
     22 CA          1.4058  -22.5092  -43.9817 C.3       10 UNK         0.1400 
     23 CB          2.7955  -21.8595  -43.9110 C.3       10 UNK        -0.1800 
     24 N           0.4021  -21.6029  -43.4189 N.am      10 UNK        -0.5000 
     25 C          -0.8738  -21.9448  -43.1877 C.2       9 UNK         0.5000 
     26 O          -1.3255  -23.0686  -43.4030 O.2       9 UNK        -0.5000 
     27 CA         -1.8194  -20.8469  -42.6681 C.3       9 UNK         0.1400 
     28 CB         -1.6323  -20.6367  -41.1592 C.3       9 UNK        -0.1800 
     29 N          -1.6676  -19.5729  -43.3717 N.am      9 UNK        -0.5000 
     30 C          -1.8920  -19.3989  -44.6828 C.2       8 UNK         0.5000 
     31 O          -2.2542  -20.2938  -45.4452 O.2       8 UNK        -0.5000 
     32 CA         -1.6215  -18.0001  -45.2592 C.3       8 UNK         0.1400 
     33 CB         -2.8341  -17.0823  -45.0491 C.3       8 UNK        -0.1800 
     34 N          -0.4158  -17.3818  -44.7078 N.am      8 UNK        -0.5000 
     35 C           0.8154  -17.8975  -44.8447 C.2       7 UNK         0.5000 
     36 O           1.0582  -18.9360  -45.4597 O.2       7 UNK        -0.5000 
     37 CA          1.9550  -17.1626  -44.1197 C.3       7 UNK         0.1400 
     38 CB          2.1772  -15.7585  -44.7038 C.3       7 UNK        -0.1800 
     39 N           1.7207  -17.0731  -42.6770 N.am      7 UNK        -0.5000 
     40 C           1.6332  -18.1300  -41.8551 C.2       6 UNK         0.5000 
     41 O           1.7542  -19.2971  -42.2234 O.2       6 UNK        -0.5000 
     42 CA          1.3376  -17.8472  -40.3705 C.3       6 UNK         0.1400 
     43 CB          2.6472  -17.6369  -39.5958 C.3       6 UNK        -0.1800 
     44 N           0.4494  -16.7082  -40.1287 N.am      6 UNK        -0.5000 
     45 C          -0.7880  -16.5564  -40.6199 C.2       5 UNK         0.5000 
     46 O          -1.3072  -17.3400  -41.4193 O.2       5 UNK        -0.5000 
     47 CA         -1.5766  -15.3184  -40.1595 C.3       5 UNK         0.1400 
     48 CB         -0.7308  -14.2540  -39.4254 C.3       5 UNK        -0.1800 
     49 N          -2.1985  -14.7365  -41.3370 N.am      5 UNK        -0.5000 
     50 C          -3.2841  -13.9649  -41.3793 C.2       4 UNK         0.5000 
     51 O          -3.9152  -13.6159  -40.3797 O.2       4 UNK        -0.5000 
     52 CA         -3.7116  -13.4974  -42.7878 C.3       4 UNK         0.1400 
     53 CB         -4.9669  -12.6067  -42.7628 C.3       4 UNK        -0.1800 
     54 N          -2.6435  -12.7835  -43.4963 N.am      4 UNK        -0.5000 
     55 C          -1.5620  -13.3392  -44.0557 C.2       3 UNK         0.5000 
     56 O          -1.2917  -14.5435  -43.9960 O.2       3 UNK        -0.5000 
     57 CA         -0.6152  -12.4032  -44.8103 C.3       3 UNK         0.1400 
     58 CB          0.6156  -12.0458  -43.9589 C.3       3 UNK        -0.1800 
     59 N          -0.2233  -13.1064  -46.0232 N.am      3 UNK        -0.5000 
     60 C           0.2168  -12.5423  -47.1484 C.2       2 UNK         0.5000 
     61 O           0.4544  -11.3380  -47.2731 O.2       2 UNK        -0.5000 
     62 CA          0.3516  -13.4822  -48.3540 C.3       2 UNK         0.1400 
     63 CB         -0.9495  -13.4787  -49.1751 C.3       2 UNK        -0.1800 
     64 N           1.4436  -13.0373  -49.2115 N.am      2 UNK        -0.5000 
     65 C           2.6532  -13.6070  -49.2636 C.2       1 UNK         0.5000 
     66 O           2.9931  -14.5681  -48.5722 O.2       1 UNK        -0.5000 
     67 C          -1.0968  -23.0509  -47.6732 C.2       11 UNK         0.5000 
     68 O          -1.2022  -23.9496  -48.5085 O.2       11 UNK        -0.5000 
     69 N          -2.0419  -22.7936  -46.7568 N.am      12 UNK        -0.5000 
     70 CA         -3.2705  -23.5731  -46.5947 C.3       12 UNK         0.1400 
     71 CB         -4.2310  -22.8476  -45.6424 C.3       12 UNK        -0.1800 
     72 C          -3.0036  -25.0127  -46.1207 C.2       12 UNK         0.5000 
     73 O          -3.6313  -25.9378  -46.6343 O.2       12 UNK        -0.5000 
     74 N          -2.0424  -25.1926  -45.2030 N.am      13 UNK        -0.5000 
     75 CA         -1.5622  -26.5008  -44.7445 C.3       13 UNK         0.1400 
     76 CB         -0.6209  -26.3149  -43.5452 C.3       13 UNK        -0.1800 
     77 C          -0.8749  -27.3154  -45.8593 C.2       13 UNK         0.5000 
     78 O          -0.9746  -28.5425  -45.8650 O.2       13 UNK        -0.5000 
     79 N          -0.2382  -26.6171  -46.8095 N.am      14 UNK        -0.5000 
     80 CA          0.3209  -27.1751  -48.0431 C.3       14 UNK         0.1400 
     81 CB          1.4293  -26.2389  -48.5537 C.3       14 UNK        -0.1800 
     82 C          -0.7406  -27.4334  -49.1383 C.2       14 UNK         0.5000 
     83 O          -0.3794  -27.9074  -50.2161 O.2       14 UNK        -0.5000 
     84 N          -2.0165  -27.1273  -48.8522 N.am      15 UNK        -0.5000 
     85 CA         -3.1984  -27.2881  -49.7054 C.3       15 UNK         0.1400 
     86 CB         -3.4452  -28.7747  -50.0396 C.3       15 UNK        -0.1800 
     87 C          -3.1877  -26.3772  -50.9501 C.2       15 UNK         0.5000 
     88 O          -3.7308  -26.7520  -51.9910 O.2       15 UNK        -0.5000 
     89 N          -2.5887  -25.1878  -50.8210 N.am      16 UNK        -0.5000 
     90 CA         -2.4678  -24.1948  -51.8822 C.3       16 UNK         0.1400 
     91 CB         -1.1972  -24.4775  -52.7085 C.3       16 UNK        -0.1800 
     92 C          -2.4818  -22.7979  -51.2482 C.2       16 UNK         0.5000 
     93 O          -1.4977  -22.0697  -51.3647 O.2       16 UNK        -0.5000 
     94 N          -3.5832  -22.4795  -50.5466 N.am      17 UNK        -0.5000 
     95 CA         -3.7875  -21.2630  -49.7489 C.3       17 UNK         0.1400 
     96 CB         -5.2318  -21.2279  -49.2277 C.3       17 UNK        -0.1800 
     97 C          -3.4535  -19.9649  -50.5054 C.2       17 UNK         0.5000 
     98 O          -3.9187  -19.7922  -51.6348 O.2       17 UNK        -0.5000 
     99 N          -2.6459  -19.1112  -49.8598 N.am      18 UNK        -0.5000 
    100 CA        -2.0085  -17.9165  -50.4135 C.3       18 UNK         0.1400 
    101 CB        -1.1572  -17.2514  -49.3184 C.3       18 UNK        -0.1800 
    102 C         -3.0223  -16.9216  -50.9957 C.2       18 UNK         0.5000 
    103 O         -3.7660  -16.3005  -50.2351 O.2       18 UNK        -0.5000 
    104 N         -3.0740  -16.8460  -52.3319 N.am      19 UNK        -0.5000 
    105 CA        -3.9905  -16.0739  -53.1840 C.3       19 UNK         0.1400 
    106 CB        -3.8623  -14.5627  -52.9133 C.3       19 UNK        -0.1800 
    107 C         -5.4659  -16.5291  -53.1303 C.2       19 UNK         0.5000 
    108 O         -6.1791  -16.3753  -54.1223 O.2       19 UNK        -0.5000 
    109 N         -5.8976  -17.0837  -51.9922 N.am      20 UNK        -0.5000 
    110 CA        -7.2418  -17.5863  -51.7258 C.3       20 UNK         0.1400 
    111 CB        -7.3734  -17.8601  -50.2199 C.3       20 UNK        -0.1800 
    112 C         -7.6077  -18.8446  -52.5333 C.2       20 UNK         0.5000 
    113 O         -8.7908  -19.0433  -52.8149 O.2       20 UNK        -0.5000 
    114 N         -6.6111  -19.6671  -52.8874 N.am      21 UNK        -0.5000 
    115 CA        -6.8044  -20.8857  -53.6691 C.3       21 UNK         0.1400 
    116 CB        -6.9950  -22.0947  -52.7349 C.3       21 UNK        -0.1800 
    117 C         -5.6442  -21.1071  -54.6450 C.2       21 UNK         0.5000 
    118 O         -5.8774  -21.1749  -55.8519 O.2       21 UNK        -0.5000 
    119 N         -4.4235  -21.2367  -54.1072 N.am      22 UNK        -0.5000 
    120 CA        -3.1807  -21.5467  -54.8410 C.3       22 UNK         0.1400 
    121 C         -3.1670  -22.9022  -55.6182 C.2       22 UNK         0.5000 
    122 N         -4.0791  -23.8302  -55.3559 N.am      22 UNK        -0.7600 
    123 O         -2.2875  -23.1425  -56.4404 O.2       22 UNK        -0.5000 
    124 C124       -2.6818  -20.3462  -55.6922 C.3       23 UNK        -0.0398 
    125 S125       -2.0273  -19.0329  -54.6131 S.3       23 UNK        -0.2404 
    126 C126       -0.2681  -19.4970  -54.6050 C.3       23 UNK        -0.0205 
    127 H127        3.7242   -8.9967  -50.0019 H         1 UNK         0.0600 
    128 H128        5.1674   -8.9615  -48.9852 H         1 UNK         0.0600 
    129 H129        3.5643   -9.0161  -48.2436 H         1 UNK         0.0600 
    130 H130        3.3473  -10.9948  -50.8924 H         1 UNK         0.3000 
    131 H131        4.6331  -13.4035  -50.0575 H         1 UNK         0.0600 
    132 H132        2.3009  -12.9999  -52.0133 H         1 UNK         0.0800 
    133 H133        3.9866  -12.8958  -52.4188 H         1 UNK         0.0800 
    134 H134        1.2186  -15.3179  -50.9900 H         1 UNK         0.0800 
    135 H135        1.0393  -15.0586  -52.7067 H         1 UNK         0.0800 
    136 H136        0.3568  -16.9196  -54.0088 H         1 UNK         0.1150 
    137 H137        0.7073  -20.9110  -52.4889 H         1 UNK         0.1150 
    138 H138        2.3685  -17.6279  -50.2885 H         1 UNK         0.1150 
    139 H139        1.8946  -21.3853  -50.4971 H         1 UNK         0.0800 
    140 H140        3.2469  -20.3027  -50.2938 H         1 UNK         0.0800 
    141 H141       -0.3288  -21.0604  -49.4163 H         1 UNK         0.0800 
    142 H142       -0.6651  -20.2246  -47.9197 H         1 UNK         0.0800 
    143 H143        0.9700  -22.7939  -48.1122 H         1 UNK         0.0600 
    144 H144        0.5994  -21.0142  -45.9070 H         1 UNK         0.3000 
    145 H145        1.4231  -23.4124  -43.3684 H         1 UNK         0.0600 
    146 H146        3.0822  -21.6564  -42.8792 H         1 UNK         0.0600 
    147 H147        3.5567  -22.5145  -44.3369 H         1 UNK         0.0600 
    148 H148        2.8272  -20.9167  -44.4586 H         1 UNK         0.0600 
    149 H149        0.7176  -20.6644  -43.1903 H         1 UNK         0.3000 
    150 H150       -2.8427  -21.1894  -42.8337 H         1 UNK         0.0600 
    151 H151       -1.7906  -21.5674  -40.6131 H         1 UNK         0.0600 
    152 H152       -2.3419  -19.9061  -40.7706 H         1 UNK         0.0600 
    153 H153       -0.6276  -20.2866  -40.9259 H         1 UNK         0.0600 
    154 H154       -1.3904  -18.7722  -42.8112 H         1 UNK         0.3000 
    155 H155       -1.4693  -18.1171  -46.3337 H         1 UNK         0.0600 
    156 H156       -2.9812  -16.8462  -43.9943 H         1 UNK         0.0600 
    157 H157       -2.7167  -16.1452  -45.5930 H         1 UNK         0.0600 
    158 H158       -3.7491  -17.5515  -45.4131 H         1 UNK         0.0600 
    159 H159       -0.5467  -16.5257  -44.1821 H         1 UNK         0.3000 
    160 H160        2.8696  -17.7392  -44.2741 H         1 UNK         0.0600 
    161 H161        3.0448  -15.2763  -44.2535 H         1 UNK         0.0600 
    162 H162        1.3151  -15.1138  -44.5416 H         1 UNK         0.0600 
    163 H163        2.3536  -15.8052  -45.7795 H         1 UNK         0.0600 
    164 H164        1.5903  -16.1510  -42.2891 H         1 UNK         0.3000 
    165 H165        0.8459  -18.7314  -39.9619 H         1 UNK         0.0600 
    166 H166        2.4631  -17.5455  -38.5252 H         1 UNK         0.0600 
    167 H167        3.3241  -18.4810  -39.7360 H         1 UNK         0.0600 
    168 H168        3.1702  -16.7384  -39.9257 H         1 UNK         0.0600 
    169 H169        0.7954  -16.0036  -39.4938 H         1 UNK         0.3000 
    170 H170       -2.3583  -15.6751  -39.4862 H         1 UNK         0.0600 
    171 H171       -1.3413  -13.3983  -39.1366 H         1 UNK         0.0600 
    172 H172        0.0807  -13.8806  -40.0515 H         1 UNK         0.0600 
    173 H173       -0.2969  -14.6518  -38.5073 H         1 UNK         0.0600 
    174 H174       -1.7639  -14.9779  -42.2242 H         1 UNK         0.3000 
    175 H175       -3.9582  -14.3962  -43.3574 H         1 UNK         0.0600 
    176 H176       -5.2848  -12.3449  -43.7723 H         1 UNK         0.0600 
    177 H177       -4.7927  -11.6801  -42.2145 H         1 UNK         0.0600 
    178 H178       -5.8026  -13.1201  -42.2855 H         1 UNK         0.0600 
    179 H179       -2.7599  -11.7827  -43.5637 H         1 UNK         0.3000 
    180 H180       -1.1513  -11.4908  -45.0804 H         1 UNK         0.0600 
    181 H181        1.1699  -12.9329  -43.6524 H         1 UNK         0.0600 
    182 H182        0.3196  -11.5165  -43.0525 H         1 UNK         0.0600 
    183 H183        1.3003  -11.3966  -44.5045 H         1 UNK         0.0600 
    184 H184       -0.4258  -14.0976  -45.9967 H         1 UNK         0.3000 
    185 H185        0.5338  -14.4997  -48.0002 H         1 UNK         0.0600 
    186 H186       -1.2341  -12.4696  -49.4764 H         1 UNK         0.0600 
    187 H187       -0.8529  -14.0763  -50.0812 H         1 UNK         0.0600 
    188 H188       -1.7768  -13.8947  -48.5987 H         1 UNK         0.0600 
    189 H189        1.2777  -12.1906  -49.7358 H         1 UNK         0.3000 
    190 H190       -1.9223  -22.0061  -46.1238 H         1 UNK         0.3000 
    191 H191       -3.7533  -23.6377  -47.5717 H         1 UNK         0.0600 
    192 H192       -4.4943  -21.8615  -46.0253 H         1 UNK         0.0600 
    193 H193       -5.1592  -23.4075  -45.5215 H         1 UNK         0.0600 
    194 H194       -3.7941  -22.7167  -44.6523 H         1 UNK         0.0600 
    195 H195       -1.6185  -24.3763  -44.7696 H         1 UNK         0.3000 
    196 H196       -2.4291  -27.0730  -44.4079 H         1 UNK         0.0600 
    197 H197       -0.2722  -27.2774  -43.1692 H         1 UNK         0.0600 
    198 H198       -1.1261  -25.8085  -42.7227 H         1 UNK         0.0600 
    199 H199        0.2585  -25.7278  -43.8097 H         1 UNK         0.0600 
    200 H200       -0.1584  -25.6138  -46.6948 H         1 UNK         0.3000 
    201 H201        0.7795  -28.1381  -47.8099 H         1 UNK         0.0600 
    202 H202        2.1836  -26.0646  -47.7861 H         1 UNK         0.0600 
    203 H203        1.0339  -25.2708  -48.8590 H         1 UNK         0.0600 
    204 H204        1.9389  -26.6691  -49.4166 H         1 UNK         0.0600 
    205 H205       -2.2110  -26.7262  -47.9426 H         1 UNK         0.3000 
    206 H206       -4.0452  -26.9516  -49.1066 H         1 UNK         0.0600 
    207 H207       -3.4530  -29.3853  -49.1367 H         1 UNK         0.0600 
    208 H208       -4.4103  -28.9101  -50.5289 H         1 UNK         0.0600 
    209 H209       -2.6827  -29.1735  -50.7090 H         1 UNK         0.0600 
    210 H210       -2.1568  -24.9340  -49.9351 H         1 UNK         0.3000 
    211 H211       -3.3333  -24.2478  -52.5453 H         1 UNK         0.0600 
    212 H212       -0.3047  -24.4734  -52.0814 H         1 UNK         0.0600 
    213 H213       -1.0558  -23.7286  -53.4880 H         1 UNK         0.0600 
    214 H214       -1.2555  -25.4487  -53.1998 H         1 UNK         0.0600 
    215 H215       -4.3281  -23.1590  -50.5101 H         1 UNK         0.3000 
    216 H216       -3.1249  -21.3367  -48.8871 H         1 UNK         0.0600 
    217 H217       -5.3791  -20.3848  -48.5516 H         1 UNK         0.0600 
    218 H218       -5.4781  -22.1321  -48.6713 H         1 UNK         0.0600 
    219 H219       -5.9532  -21.1247  -50.0383 H         1 UNK         0.0600 
    220 H220       -2.3927  -19.3265  -48.9092 H         1 UNK         0.3000 
    221 H221       -1.3407  -18.2472  -51.2096 H         1 UNK         0.0600 
    222 H222       -1.7672  -16.8930  -48.4884 H         1 UNK         0.0600 
    223 H223       -0.4139  -17.9373  -48.9168 H         1 UNK         0.0600 
    224 H224       -0.6129  -16.3978  -49.7194 H         1 UNK         0.0600 
    225 H225       -2.4776  -17.4806  -52.8490 H         1 UNK         0.3000 
    226 H226       -3.6545  -16.2522  -54.2066 H         1 UNK         0.0600 
    227 H227       -2.8272  -14.2326  -53.0017 H         1 UNK         0.0600 
    228 H228       -4.4492  -13.9893  -53.6317 H         1 UNK         0.0600 
    229 H229       -4.2170  -14.2940  -51.9180 H         1 UNK         0.0600 
    230 H230       -5.2416  -17.1055  -51.2191 H         1 UNK         0.3000 
    231 H231       -7.9526  -16.8028  -51.9961 H         1 UNK         0.0600 
    232 H232       -6.6542  -18.6080  -49.8851 H         1 UNK         0.0600 
    233 H233       -8.3704  -18.2272  -49.9728 H         1 UNK         0.0600 
    234 H234       -7.2076  -16.9530  -49.6384 H         1 UNK         0.0600 
    235 H235       -5.6589  -19.4407  -52.6157 H         1 UNK         0.3000 
    236 H236       -7.7052  -20.7890  -54.2794 H         1 UNK         0.0600 
    237 H237       -7.8541  -21.9537  -52.0788 H         1 UNK         0.0600 
    238 H238       -7.1714  -23.0055  -53.3081 H         1 UNK         0.0600 
    239 H239       -6.1208  -22.2664  -52.1077 H         1 UNK         0.0600 
    240 H240       -4.3050  -21.0544  -53.1162 H         1 UNK         0.3000 
    241 H241       -2.4360  -21.7132  -54.0630 H         1 UNK         0.0600 
    242 H242       -4.8228  -23.6556  -54.7015 H         1 UNK         0.3800 
    243 H243       -4.0479  -24.7047  -55.8561 H         1 UNK         0.3800 
    244 H244       -1.8958  -20.6346  -56.3918 H         1 UNK         0.0800 
    245 H245       -3.4864  -19.9391  -56.3051 H         1 UNK         0.0800 
    246 H246        0.2113  -19.1109  -55.5057 H         1 UNK         0.0800 
    247 H247       -0.1751  -20.5835  -54.6484 H         1 UNK         0.0800 
@<TRIPOS>BOND
     1    1    2 1    
     2    1  127 1    
     3    1  128 1    
     4    1  129 1    
     5    2    3 2    
     6    2    4 am   BACKBONE|DICT|INTERRES
     7    4    5 1    
     8    4  130 1    
     9    5    6 1    
    10    5   65 1    
    11    5  131 1    
    12    6    7 1    
    13    6  132 1    
    14    6  133 1    
    15    7    8 1    
    16    8    9 1    
    17    8  134 1    
    18    8  135 1    
    19    9   10 ar   
    20    9   14 ar   
    21   10   11 ar   
    22   10  136 1    
    23   11   12 ar   
    24   11  126 1    
    25   12   13 ar   
    26   12  137 1    
    27   13   14 ar   
    28   13   15 1    
    29   14  138 1    
    30   15   16 1    
    31   15  139 1    
    32   15  140 1    
    33   16   17 1    
    34   17   18 1    
    35   17  141 1    
    36   17  142 1    
    37   18   19 1    
    38   18   67 1    
    39   18  143 1    
    40   19   20 am   BACKBONE|DICT|INTERRES
    41   19  144 1    
    42   20   21 2    
    43   20   22 1    
    44   22   23 1    
    45   22   24 1    
    46   22  145 1    
    47   23  146 1    
    48   23  147 1    
    49   23  148 1    
    50   24   25 am   BACKBONE|DICT|INTERRES
    51   24  149 1    
    52   25   26 2    
    53   25   27 1    
    54   27   28 1    
    55   27   29 1    
    56   27  150 1    
    57   28  151 1    
    58   28  152 1    
    59   28  153 1    
    60   29   30 am   BACKBONE|DICT|INTERRES
    61   29  154 1    
    62   30   31 2    
    63   30   32 1    
    64   32   33 1    
    65   32   34 1    
    66   32  155 1    
    67   33  156 1    
    68   33  157 1    
    69   33  158 1    
    70   34   35 am   BACKBONE|DICT|INTERRES
    71   34  159 1    
    72   35   36 2    
    73   35   37 1    
    74   37   38 1    
    75   37   39 1    
    76   37  160 1    
    77   38  161 1    
    78   38  162 1    
    79   38  163 1    
    80   39   40 am   BACKBONE|DICT|INTERRES
    81   39  164 1    
    82   40   41 2    
    83   40   42 1    
    84   42   43 1    
    85   42   44 1    
    86   42  165 1    
    87   43  166 1    
    88   43  167 1    
    89   43  168 1    
    90   44   45 am   BACKBONE|DICT|INTERRES
    91   44  169 1    
    92   45   46 2    
    93   45   47 1    
    94   47   48 1    
    95   47   49 1    
    96   47  170 1    
    97   48  171 1    
    98   48  172 1    
    99   48  173 1    
   100   49   50 am   BACKBONE|DICT|INTERRES
   101   49  174 1    
   102   50   51 2    
   103   50   52 1    
   104   52   53 1    
   105   52   54 1    
   106   52  175 1    
   107   53  176 1    
   108   53  177 1    
   109   53  178 1    
   110   54   55 am   BACKBONE|DICT|INTERRES
   111   54  179 1    
   112   55   56 2    
   113   55   57 1    
   114   57   58 1    
   115   57   59 1    
   116   57  180 1    
   117   58  181 1    
   118   58  182 1    
   119   58  183 1    
   120   59   60 am   BACKBONE|DICT|INTERRES
   121   59  184 1    
   122   60   61 2    
   123   60   62 1    
   124   62   63 1    
   125   62   64 1    
   126   62  185 1    
   127   63  186 1    
   128   63  187 1    
   129   63  188 1    
   130   64   65 am   BACKBONE|DICT|INTERRES
   131   64  189 1    
   132   65   66 2    
   133   67   68 2    
   134   67   69 am   BACKBONE|DICT|INTERRES
   135   69   70 1    
   136   69  190 1    
   137   70   71 1    
   138   70   72 1    
   139   70  191 1    
   140   71  192 1    
   141   71  193 1    
   142   71  194 1    
   143   72   73 2    
   144   72   74 am   BACKBONE|DICT|INTERRES
   145   74   75 1    
   146   74  195 1    
   147   75   76 1    
   148   75   77 1    
   149   75  196 1    
   150   76  197 1    
   151   76  198 1    
   152   76  199 1    
   153   77   78 2    
   154   77   79 am   BACKBONE|DICT|INTERRES
   155   79   80 1    
   156   79  200 1    
   157   80   81 1    
   158   80   82 1    
   159   80  201 1    
   160   81  202 1    
   161   81  203 1    
   162   81  204 1    
   163   82   83 2    
   164   82   84 am   BACKBONE|DICT|INTERRES
   165   84   85 1    
   166   84  205 1    
   167   85   86 1    
   168   85   87 1    
   169   85  206 1    
   170   86  207 1    
   171   86  208 1    
   172   86  209 1    
   173   87   88 2    
   174   87   89 am   BACKBONE|DICT|INTERRES
   175   89   90 1    
   176   89  210 1    
   177   90   91 1    
   178   90   92 1    
   179   90  211 1    
   180   91  212 1    
   181   91  213 1    
   182   91  214 1    
   183   92   93 2    
   184   92   94 am   BACKBONE|DICT|INTERRES
   185   94   95 1    
   186   94  215 1    
   187   95   96 1    
   188   95   97 1    
   189   95  216 1    
   190   96  217 1    
   191   96  218 1    
   192   96  219 1    
   193   97   98 2    
   194   97   99 am   BACKBONE|DICT|INTERRES
   195   99  100 1    
   196   99  220 1    
   197  100  101 1    
   198  100  102 1    
   199  100  221 1    
   200  101  222 1    
   201  101  223 1    
   202  101  224 1    
   203  102  103 2    
   204  102  104 am   BACKBONE|DICT|INTERRES
   205  104  105 1    
   206  104  225 1    
   207  105  106 1    
   208  105  107 1    
   209  105  226 1    
   210  106  227 1    
   211  106  228 1    
   212  106  229 1    
   213  107  108 2    
   214  107  109 am   BACKBONE|DICT|INTERRES
   215  109  110 1    
   216  109  230 1    
   217  110  111 1    
   218  110  112 1    
   219  110  231 1    
   220  111  232 1    
   221  111  233 1    
   222  111  234 1    
   223  112  113 2    
   224  112  114 am   BACKBONE|DICT|INTERRES
   225  114  115 1    
   226  114  235 1    
   227  115  116 1    
   228  115  117 1    
   229  115  236 1    
   230  116  237 1    
   231  116  238 1    
   232  116  239 1    
   233  117  118 2    
   234  117  119 am   BACKBONE|DICT|INTERRES
   235  119  120 1    
   236  119  240 1    
   237  120  121 1    
   238  120  124 1    
   239  120  241 1    
   240  121  122 am   BACKBONE|DICT|INTERRES
   241  121  123 2    
   242  122  242 1    
   243  122  243 1    
   244  124  125 1    
   245  124  244 1    
   246  124  245 1    
   247  125  126 1    
   248  126  246 1    
   249  126  247 1    
@<TRIPOS>SUBSTRUCTURE
     1 UNK         1 GROUP             0       ****    0 ROOT    
