@<TRIPOS>MOLECULE
3R540
247   249    1
SMALL
USER_CHARGES


@<TRIPOS>ATOM
      1 CA         -1.9079  -17.5305  -49.7656 C.3       0 UNK        -0.1800 
      2 C          -1.9870  -16.1236  -49.1930 C.2       0 UNK         0.5000 
      3 O          -3.0430  -15.4932  -49.2494 O.2       0 UNK        -0.5000 
      4 N          -0.8683  -15.6365  -48.6448 N.am      1 UNK        -0.5000 
      5 CA         -0.7436  -14.3552  -47.9422 C.3       1 UNK         0.1400 
      6 C6          0.7412  -14.0171  -47.6640 C.3       23 UNK        -0.0398 
      7 S7          1.7088  -13.7168  -49.1791 S.3       23 UNK        -0.2404 
      8 C8          2.8278  -15.1614  -49.2526 C.3       23 UNK        -0.0205 
      9 C9          2.2938  -16.3435  -50.0601 C.ar      23 UNK        -0.0193 
     10 C10         1.5718  -16.1450  -51.2427 C.ar      23 UNK        -0.1150 
     11 C11         1.1740  -17.2283  -52.0293 C.ar      23 UNK        -0.0193 
     12 C12         1.4977  -18.5250  -51.6225 C.ar      23 UNK        -0.1150 
     13 C13         2.2160  -18.7485  -50.4454 C.ar      23 UNK        -0.0193 
     14 C14         2.6139  -17.6497  -49.6715 C.ar      23 UNK        -0.1150 
     15 C15         2.5991  -20.1819  -50.0766 C.3       23 UNK        -0.0205 
     16 S16         2.5460  -20.5495  -48.2919 S.3       23 UNK        -0.2404 
     17 C17         0.8099  -20.1629  -47.8934 C.3       23 UNK        -0.0398 
     18 CA          0.0750  -21.2771  -47.1105 C.3       11 UNK         0.1400 
     19 N           0.8365  -21.7563  -45.9483 N.am      11 UNK        -0.5000 
     20 C           0.5329  -22.8472  -45.2314 C.2       10 UNK         0.5000 
     21 O          -0.5620  -23.4077  -45.2977 O.2       10 UNK        -0.5000 
     22 CA          1.6348  -23.4489  -44.3295 C.3       10 UNK         0.1400 
     23 CB          3.0544  -22.9246  -44.6091 C.3       10 UNK        -0.1800 
     24 N           1.3178  -23.2435  -42.9221 N.am      10 UNK        -0.5000 
     25 C           0.4875  -24.0121  -42.2069 C.2       9 UNK         0.5000 
     26 O           0.0565  -25.0985  -42.5953 O.2       9 UNK        -0.5000 
     27 CA          0.0550  -23.4904  -40.8204 C.3       9 UNK         0.1400 
     28 CB          0.7741  -24.2690  -39.7077 C.3       9 UNK        -0.1800 
     29 N           0.2717  -22.0585  -40.5988 N.am      9 UNK        -0.5000 
     30 C          -0.2138  -21.0373  -41.3196 C.2       8 UNK         0.5000 
     31 O          -0.9349  -21.1711  -42.3097 O.2       8 UNK        -0.5000 
     32 CA          0.2012  -19.6236  -40.8620 C.3       8 UNK         0.1400 
     33 CB          0.3379  -19.5022  -39.3303 C.3       8 UNK        -0.1800 
     34 N           1.4178  -19.1171  -41.5060 N.am      8 UNK        -0.5000 
     35 C           2.6107  -19.7160  -41.6565 C.2       7 UNK         0.5000 
     36 O           2.8505  -20.8802  -41.3327 O.2       7 UNK        -0.5000 
     37 CA          3.7274  -18.8413  -42.2671 C.3       7 UNK         0.1400 
     38 CB          4.9708  -19.6429  -42.7052 C.3       7 UNK        -0.1800 
     39 N           3.2499  -17.9838  -43.3538 N.am      7 UNK        -0.5000 
     40 C           2.6833  -18.3755  -44.5051 C.2       6 UNK         0.5000 
     41 O           2.5196  -19.5505  -44.8296 O.2       6 UNK        -0.5000 
     42 CA          2.1664  -17.2756  -45.4485 C.3       6 UNK         0.1400 
     43 CB          0.6304  -17.2642  -45.4557 C.3       6 UNK        -0.1800 
     44 N           2.6384  -15.9366  -45.1029 N.am      6 UNK        -0.5000 
     45 C           3.8586  -15.4493  -45.3601 C.2       5 UNK         0.5000 
     46 O           4.7166  -16.0535  -46.0025 O.2       5 UNK        -0.5000 
     47 CA          4.1684  -14.0498  -44.7918 C.3       5 UNK         0.1400 
     48 CB          4.0892  -12.9847  -45.8958 C.3       5 UNK        -0.1800 
     49 N           3.2777  -13.6670  -43.6891 N.am      5 UNK        -0.5000 
     50 C           3.3193  -14.2090  -42.4639 C.2       4 UNK         0.5000 
     51 O           4.1124  -15.0917  -42.1346 O.2       4 UNK        -0.5000 
     52 CA          2.2567  -13.7224  -41.4636 C.3       4 UNK         0.1400 
     53 CB          2.3579  -12.2081  -41.2165 C.3       4 UNK        -0.1800 
     54 N           0.8920  -14.0606  -41.8740 N.am      4 UNK        -0.5000 
     55 C           0.4058  -15.2992  -42.0166 C.2       3 UNK         0.5000 
     56 O           1.0917  -16.3168  -41.9290 O.2       3 UNK        -0.5000 
     57 CA         -1.0994  -15.4475  -42.3024 C.3       3 UNK         0.1400 
     58 CB         -1.9301  -15.2197  -41.0264 C.3       3 UNK        -0.1800 
     59 N          -1.6110  -14.6531  -43.4260 N.am      3 UNK        -0.5000 
     60 C          -1.7298  -13.3259  -43.5541 C.2       2 UNK         0.5000 
     61 O          -1.2975  -12.5165  -42.7309 O.2       2 UNK        -0.5000 
     62 CA         -2.4585  -12.8340  -44.8264 C.3       2 UNK         0.1400 
     63 CB         -2.7664  -11.3264  -44.7792 C.3       2 UNK        -0.1800 
     64 N          -1.7276  -13.1196  -46.0645 N.am      2 UNK        -0.5000 
     65 C          -1.5572  -14.3252  -46.6244 C.2       1 UNK         0.5000 
     66 O          -1.9849  -15.3684  -46.1222 O.2       1 UNK        -0.5000 
     67 C          -1.3540  -20.8004  -46.7852 C.2       11 UNK         0.5000 
     68 O          -2.2318  -20.9212  -47.6419 O.2       11 UNK        -0.5000 
     69 N          -1.5605  -20.2472  -45.5823 N.am      12 UNK        -0.5000 
     70 CA         -2.8456  -19.6902  -45.1605 C.3       12 UNK         0.1400 
     71 CB         -2.6378  -18.6356  -44.0638 C.3       12 UNK        -0.1800 
     72 C          -3.8214  -20.7889  -44.7166 C.2       12 UNK         0.5000 
     73 O          -4.9877  -20.7493  -45.1068 O.2       12 UNK        -0.5000 
     74 N          -3.3238  -21.7746  -43.9568 N.am      13 UNK        -0.5000 
     75 CA         -4.0876  -22.9552  -43.5470 C.3       13 UNK         0.1400 
     76 CB         -3.3443  -23.6873  -42.4258 C.3       13 UNK        -0.1800 
     77 C          -4.3767  -23.9066  -44.7226 C.2       13 UNK         0.5000 
     78 O          -5.4640  -24.4821  -44.7799 O.2       13 UNK        -0.5000 
     79 N          -3.4230  -24.0234  -45.6595 N.am      14 UNK        -0.5000 
     80 CA         -3.5976  -24.7287  -46.9331 C.3       14 UNK         0.1400 
     81 CB         -2.2242  -24.9330  -47.5908 C.3       14 UNK        -0.1800 
     82 C          -4.5440  -23.9927  -47.9035 C.2       14 UNK         0.5000 
     83 O          -5.0929  -24.6276  -48.8044 O.2       14 UNK        -0.5000 
     84 N          -4.7059  -22.6771  -47.6953 N.am      15 UNK        -0.5000 
     85 CA         -5.5026  -21.7263  -48.4698 C.3       15 UNK         0.1400 
     86 CB         -7.0072  -22.0304  -48.3257 C.3       15 UNK        -0.1800 
     87 C          -5.0299  -21.6514  -49.9325 C.2       15 UNK         0.5000 
     88 O          -5.8276  -21.8323  -50.8531 O.2       15 UNK        -0.5000 
     89 N          -3.7258  -21.3957  -50.1149 N.am      16 UNK        -0.5000 
     90 CA         -3.0230  -21.4112  -51.4036 C.3       16 UNK         0.1400 
     91 CB         -1.5425  -21.0671  -51.1773 C.3       16 UNK        -0.1800 
     92 C          -3.6357  -20.5022  -52.4886 C.2       16 UNK         0.5000 
     93 O          -3.6074  -20.8619  -53.6663 O.2       16 UNK        -0.5000 
     94 N          -4.2104  -19.3648  -52.0753 N.am      17 UNK        -0.5000 
     95 CA         -4.9092  -18.4307  -52.9576 C.3       17 UNK         0.1400 
     96 CB         -5.1052  -17.0912  -52.2322 C.3       17 UNK        -0.1800 
     97 C          -6.2565  -18.9808  -53.4628 C.2       17 UNK         0.5000 
     98 O          -6.5903  -18.7826  -54.6308 O.2       17 UNK        -0.5000 
     99 N          -6.9938  -19.6800  -52.5882 N.am      18 UNK        -0.5000 
    100 CA        -8.2784  -20.3118  -52.9026 C.3       18 UNK         0.1400 
    101 CB        -9.0510  -20.5787  -51.6023 C.3       18 UNK        -0.1800 
    102 C         -8.0955  -21.6136  -53.7016 C.2       18 UNK         0.5000 
    103 O         -8.8970  -21.9047  -54.5896 O.2       18 UNK        -0.5000 
    104 N         -7.0183  -22.3497  -53.3962 N.am      19 UNK        -0.5000 
    105 CA        -6.5734  -23.5484  -54.1098 C.3       19 UNK         0.1400 
    106 CB        -5.5286  -24.2701  -53.2441 C.3       19 UNK        -0.1800 
    107 C         -5.9941  -23.2511  -55.5095 C.2       19 UNK         0.5000 
    108 O         -5.7948  -24.1851  -56.2867 O.2       19 UNK        -0.5000 
    109 N         -5.7211  -21.9680  -55.7920 N.am      20 UNK        -0.5000 
    110 CA        -5.1335  -21.4140  -57.0153 C.3       20 UNK         0.1400 
    111 CB        -6.0133  -21.7059  -58.2484 C.3       20 UNK        -0.1800 
    112 C         -3.6568  -21.8084  -57.2235 C.2       20 UNK         0.5000 
    113 O         -3.1420  -21.6924  -58.3370 O.2       20 UNK        -0.5000 
    114 N         -2.9738  -22.2011  -56.1390 N.am      21 UNK        -0.5000 
    115 CA        -1.5335  -22.4640  -56.1011 C.3       21 UNK         0.1400 
    116 CB        -1.1818  -23.1653  -54.7808 C.3       21 UNK        -0.1800 
    117 C         -0.7057  -21.1765  -56.2829 C.2       21 UNK         0.5000 
    118 O          0.4141  -21.2383  -56.7911 O.2       21 UNK        -0.5000 
    119 N         -1.2981  -20.0339  -55.9120 N.am      22 UNK        -0.5000 
    120 CA        -0.8030  -18.6825  -56.2131 C.3       22 UNK         0.1400 
    121 C         -0.9434  -18.2585  -57.7080 C.2       22 UNK         0.5000 
    122 N         -1.5906  -19.0267  -58.5782 N.am      22 UNK        -0.7600 
    123 O         -0.4435  -17.2049  -58.0921 O.2       22 UNK        -0.5000 
    124 C124       -1.4407  -17.6194  -55.2808 C.3       23 UNK        -0.0398 
    125 S125       -1.0811  -17.9224  -53.5194 S.3       23 UNK        -0.2404 
    126 C126        0.4728  -16.9897  -53.3587 C.3       23 UNK        -0.0205 
    127 H127       -2.2460  -17.5345  -50.8002 H         1 UNK         0.0600 
    128 H128       -2.5405  -18.2082  -49.1920 H         1 UNK         0.0600 
    129 H129       -0.8880  -17.9143  -49.7446 H         1 UNK         0.0600 
    130 H130       -0.0291  -16.1949  -48.6753 H         1 UNK         0.3000 
    131 H131       -1.1594  -13.5827  -48.5927 H         1 UNK         0.0600 
    132 H132        0.8238  -13.1078  -47.0671 H         1 UNK         0.0800 
    133 H133        1.2104  -14.8028  -47.0762 H         1 UNK         0.0800 
    134 H134        3.7587  -14.8390  -49.7203 H         1 UNK         0.0800 
    135 H135        3.0950  -15.4729  -48.2432 H         1 UNK         0.0800 
    136 H136        1.3508  -15.1406  -51.5746 H         1 UNK         0.1150 
    137 H137        1.2085  -19.3618  -52.2430 H         1 UNK         0.1150 
    138 H138        3.2051  -17.8103  -48.7812 H         1 UNK         0.1150 
    139 H139        3.6093  -20.3727  -50.4404 H         1 UNK         0.0800 
    140 H140        1.9482  -20.8928  -50.5886 H         1 UNK         0.0800 
    141 H141        0.2713  -19.9531  -48.8188 H         1 UNK         0.0800 
    142 H142        0.8132  -19.2294  -47.3361 H         1 UNK         0.0800 
    143 H143       -0.0288  -22.1305  -47.7838 H         1 UNK         0.0600 
    144 H144        1.7169  -21.2822  -45.7755 H         1 UNK         0.3000 
    145 H145        1.6480  -24.5199  -44.5420 H         1 UNK         0.0600 
    146 H146        3.2991  -22.9698  -45.6713 H         1 UNK         0.0600 
    147 H147        3.7968  -23.5251  -44.0835 H         1 UNK         0.0600 
    148 H148        3.1782  -21.8976  -44.2754 H         1 UNK         0.0600 
    149 H149        1.6381  -22.3779  -42.5050 H         1 UNK         0.3000 
    150 H150       -1.0148  -23.6760  -40.7231 H         1 UNK         0.0600 
    151 H151        1.8511  -24.0974  -39.7315 H         1 UNK         0.0600 
    152 H152        0.6099  -25.3425  -39.8104 H         1 UNK         0.0600 
    153 H153        0.4083  -23.9798  -38.7223 H         1 UNK         0.0600 
    154 H154        0.9100  -21.8265  -39.8517 H         1 UNK         0.3000 
    155 H155       -0.6055  -18.9562  -41.1686 H         1 UNK         0.0600 
    156 H156        1.2069  -20.0393  -38.9490 H         1 UNK         0.0600 
    157 H157       -0.5454  -19.8923  -38.8228 H         1 UNK         0.0600 
    158 H158        0.4435  -18.4583  -39.0343 H         1 UNK         0.0600 
    159 H159        1.3575  -18.1466  -41.8077 H         1 UNK         0.3000 
    160 H160        4.0416  -18.1658  -41.4702 H         1 UNK         0.0600 
    161 H161        4.7406  -20.3558  -43.4957 H         1 UNK         0.0600 
    162 H162        5.3900  -20.2046  -41.8696 H         1 UNK         0.0600 
    163 H163        5.7536  -18.9797  -43.0733 H         1 UNK         0.0600 
    164 H164        3.2999  -16.9907  -43.1644 H         1 UNK         0.3000 
    165 H165        2.5155  -17.5322  -46.4504 H         1 UNK         0.0600 
    166 H166        0.2482  -16.8591  -46.3893 H         1 UNK         0.0600 
    167 H167        0.2173  -18.2653  -45.3543 H         1 UNK         0.0600 
    168 H168        0.2208  -16.6739  -44.6392 H         1 UNK         0.0600 
    169 H169        2.0198  -15.3713  -44.5418 H         1 UNK         0.3000 
    170 H170        5.1933  -14.0728  -44.4151 H         1 UNK         0.0600 
    171 H171        4.4141  -12.0116  -45.5270 H         1 UNK         0.0600 
    172 H172        3.0763  -12.8748  -46.2805 H         1 UNK         0.0600 
    173 H173        4.7330  -13.2428  -46.7379 H         1 UNK         0.0600 
    174 H174        2.5950  -12.9484  -43.8812 H         1 UNK         0.3000 
    175 H175        2.4499  -14.2277  -40.5150 H         1 UNK         0.0600 
    176 H176        3.3733  -11.9229  -40.9381 H         1 UNK         0.0600 
    177 H177        2.0821  -11.6300  -42.0991 H         1 UNK         0.0600 
    178 H178        1.7012  -11.9011  -40.4022 H         1 UNK         0.0600 
    179 H179        0.2404  -13.2909  -42.0081 H         1 UNK         0.3000 
    180 H180       -1.2500  -16.4877  -42.5916 H         1 UNK         0.0600 
    181 H181       -1.8473  -14.1959  -40.6606 H         1 UNK         0.0600 
    182 H182       -1.5988  -15.8798  -40.2236 H         1 UNK         0.0600 
    183 H183       -2.9854  -15.4281  -41.2025 H         1 UNK         0.0600 
    184 H184       -1.9183  -15.1943  -44.2310 H         1 UNK         0.3000 
    185 H185       -3.4143  -13.3608  -44.8678 H         1 UNK         0.0600 
    186 H186       -3.3390  -11.0713  -43.8865 H         1 UNK         0.0600 
    187 H187       -1.8544  -10.7281  -44.7670 H         1 UNK         0.0600 
    188 H188       -3.3591  -11.0174  -45.6405 H         1 UNK         0.0600 
    189 H189       -1.3337  -12.3126  -46.5263 H         1 UNK         0.3000 
    190 H190       -0.8077  -20.2436  -44.9083 H         1 UNK         0.3000 
    191 H191       -3.2990  -19.1791  -46.0133 H         1 UNK         0.0600 
    192 H192       -2.0799  -17.7840  -44.4506 H         1 UNK         0.0600 
    193 H193       -3.5935  -18.2539  -43.7025 H         1 UNK         0.0600 
    194 H194       -2.0984  -19.0335  -43.2062 H         1 UNK         0.0600 
    195 H195       -2.3631  -21.7124  -43.6339 H         1 UNK         0.3000 
    196 H196       -5.0466  -22.6167  -43.1488 H         1 UNK         0.0600 
    197 H197       -3.9218  -24.5384  -42.0629 H         1 UNK         0.0600 
    198 H198       -3.1639  -23.0272  -41.5774 H         1 UNK         0.0600 
    199 H199       -2.3859  -24.0662  -42.7766 H         1 UNK         0.0600 
    200 H200       -2.5186  -23.5866  -45.5026 H         1 UNK         0.3000 
    201 H201       -4.0292  -25.7103  -46.7270 H         1 UNK         0.0600 
    202 H202       -2.3155  -25.4937  -48.5219 H         1 UNK         0.0600 
    203 H203       -1.5532  -25.4925  -46.9388 H         1 UNK         0.0600 
    204 H204       -1.7479  -23.9810  -47.8268 H         1 UNK         0.0600 
    205 H205       -4.1759  -22.2663  -46.9397 H         1 UNK         0.3000 
    206 H206       -5.3202  -20.7438  -48.0320 H         1 UNK         0.0600 
    207 H207       -7.2947  -22.0975  -47.2763 H         1 UNK         0.0600 
    208 H208       -7.6067  -21.2386  -48.7747 H         1 UNK         0.0600 
    209 H209       -7.2827  -22.9679  -48.8099 H         1 UNK         0.0600 
    210 H210       -3.1517  -21.2567  -49.2866 H         1 UNK         0.3000 
    211 H211       -3.0732  -22.4338  -51.7805 H         1 UNK         0.0600 
    212 H212       -1.0629  -21.7954  -50.5231 H         1 UNK         0.0600 
    213 H213       -0.9882  -21.0570  -52.1163 H         1 UNK         0.0600 
    214 H214       -1.4244  -20.0843  -50.7250 H         1 UNK         0.0600 
    215 H215       -4.1943  -19.1470  -51.0908 H         1 UNK         0.3000 
    216 H216       -4.2802  -18.2509  -53.8314 H         1 UNK         0.0600 
    217 H217       -5.6740  -17.2096  -51.3093 H         1 UNK         0.0600 
    218 H218       -5.6432  -16.3811  -52.8615 H         1 UNK         0.0600 
    219 H219       -4.1476  -16.6354  -51.9808 H         1 UNK         0.0600 
    220 H220       -6.6082  -19.8780  -51.6754 H         1 UNK         0.3000 
    221 H221       -8.8667  -19.6215  -53.5112 H         1 UNK         0.0600 
    222 H222       -8.5394  -21.3064  -50.9725 H         1 UNK         0.0600 
    223 H223       -9.1828  -19.6642  -51.0239 H         1 UNK         0.0600 
    224 H224      -10.0444  -20.9750  -51.8161 H         1 UNK         0.0600 
    225 H225       -6.4624  -22.0714  -52.5905 H         1 UNK         0.3000 
    226 H226       -7.4325  -24.2093  -54.2402 H         1 UNK         0.0600 
    227 H227       -5.9247  -24.5028  -52.2551 H         1 UNK         0.0600 
    228 H228       -5.2217  -25.2112  -53.7020 H         1 UNK         0.0600 
    229 H229       -4.6333  -23.6630  -53.1110 H         1 UNK         0.0600 
    230 H230       -5.9022  -21.2934  -55.0616 H         1 UNK         0.3000 
    231 H231       -5.1294  -20.3327  -56.8707 H         1 UNK         0.0600 
    232 H232       -5.9963  -22.7613  -58.5205 H         1 UNK         0.0600 
    233 H233       -5.6687  -21.1421  -59.1160 H         1 UNK         0.0600 
    234 H234       -7.0500  -21.4207  -58.0691 H         1 UNK         0.0600 
    235 H235       -3.4449  -22.1550  -55.2425 H         1 UNK         0.3000 
    236 H236       -1.2870  -23.1375  -56.9245 H         1 UNK         0.0600 
    237 H237       -1.4186  -22.5423  -53.9196 H         1 UNK         0.0600 
    238 H238       -1.7273  -24.1033  -54.6754 H         1 UNK         0.0600 
    239 H239       -0.1176  -23.3996  -54.7344 H         1 UNK         0.0600 
    240 H240       -2.1967  -20.0918  -55.4525 H         1 UNK         0.3000 
    241 H241        0.2707  -18.6851  -56.0177 H         1 UNK         0.0600 
    242 H242       -1.6580  -18.7253  -59.5375 H         1 UNK         0.3800 
    243 H243       -1.9942  -19.9151  -58.3107 H         1 UNK         0.3800 
    244 H244       -2.5232  -17.6037  -55.4134 H         1 UNK         0.0800 
    245 H245       -1.0945  -16.6159  -55.5352 H         1 UNK         0.0800 
    246 H246        1.1540  -17.2784  -54.1600 H         1 UNK         0.0800 
    247 H247        0.2594  -15.9288  -53.4982 H         1 UNK         0.0800 
@<TRIPOS>BOND
     1    1    2 1    
     2    1  127 1    
     3    1  128 1    
     4    1  129 1    
     5    2    3 2    
     6    2    4 am   BACKBONE|DICT|INTERRES
     7    4    5 1    
     8    4  130 1    
     9    5    6 1    
    10    5   65 1    
    11    5  131 1    
    12    6    7 1    
    13    6  132 1    
    14    6  133 1    
    15    7    8 1    
    16    8    9 1    
    17    8  134 1    
    18    8  135 1    
    19    9   10 ar   
    20    9   14 ar   
    21   10   11 ar   
    22   10  136 1    
    23   11   12 ar   
    24   11  126 1    
    25   12   13 ar   
    26   12  137 1    
    27   13   14 ar   
    28   13   15 1    
    29   14  138 1    
    30   15   16 1    
    31   15  139 1    
    32   15  140 1    
    33   16   17 1    
    34   17   18 1    
    35   17  141 1    
    36   17  142 1    
    37   18   19 1    
    38   18   67 1    
    39   18  143 1    
    40   19   20 am   BACKBONE|DICT|INTERRES
    41   19  144 1    
    42   20   21 2    
    43   20   22 1    
    44   22   23 1    
    45   22   24 1    
    46   22  145 1    
    47   23  146 1    
    48   23  147 1    
    49   23  148 1    
    50   24   25 am   BACKBONE|DICT|INTERRES
    51   24  149 1    
    52   25   26 2    
    53   25   27 1    
    54   27   28 1    
    55   27   29 1    
    56   27  150 1    
    57   28  151 1    
    58   28  152 1    
    59   28  153 1    
    60   29   30 am   BACKBONE|DICT|INTERRES
    61   29  154 1    
    62   30   31 2    
    63   30   32 1    
    64   32   33 1    
    65   32   34 1    
    66   32  155 1    
    67   33  156 1    
    68   33  157 1    
    69   33  158 1    
    70   34   35 am   BACKBONE|DICT|INTERRES
    71   34  159 1    
    72   35   36 2    
    73   35   37 1    
    74   37   38 1    
    75   37   39 1    
    76   37  160 1    
    77   38  161 1    
    78   38  162 1    
    79   38  163 1    
    80   39   40 am   BACKBONE|DICT|INTERRES
    81   39  164 1    
    82   40   41 2    
    83   40   42 1    
    84   42   43 1    
    85   42   44 1    
    86   42  165 1    
    87   43  166 1    
    88   43  167 1    
    89   43  168 1    
    90   44   45 am   BACKBONE|DICT|INTERRES
    91   44  169 1    
    92   45   46 2    
    93   45   47 1    
    94   47   48 1    
    95   47   49 1    
    96   47  170 1    
    97   48  171 1    
    98   48  172 1    
    99   48  173 1    
   100   49   50 am   BACKBONE|DICT|INTERRES
   101   49  174 1    
   102   50   51 2    
   103   50   52 1    
   104   52   53 1    
   105   52   54 1    
   106   52  175 1    
   107   53  176 1    
   108   53  177 1    
   109   53  178 1    
   110   54   55 am   BACKBONE|DICT|INTERRES
   111   54  179 1    
   112   55   56 2    
   113   55   57 1    
   114   57   58 1    
   115   57   59 1    
   116   57  180 1    
   117   58  181 1    
   118   58  182 1    
   119   58  183 1    
   120   59   60 am   BACKBONE|DICT|INTERRES
   121   59  184 1    
   122   60   61 2    
   123   60   62 1    
   124   62   63 1    
   125   62   64 1    
   126   62  185 1    
   127   63  186 1    
   128   63  187 1    
   129   63  188 1    
   130   64   65 am   BACKBONE|DICT|INTERRES
   131   64  189 1    
   132   65   66 2    
   133   67   68 2    
   134   67   69 am   BACKBONE|DICT|INTERRES
   135   69   70 1    
   136   69  190 1    
   137   70   71 1    
   138   70   72 1    
   139   70  191 1    
   140   71  192 1    
   141   71  193 1    
   142   71  194 1    
   143   72   73 2    
   144   72   74 am   BACKBONE|DICT|INTERRES
   145   74   75 1    
   146   74  195 1    
   147   75   76 1    
   148   75   77 1    
   149   75  196 1    
   150   76  197 1    
   151   76  198 1    
   152   76  199 1    
   153   77   78 2    
   154   77   79 am   BACKBONE|DICT|INTERRES
   155   79   80 1    
   156   79  200 1    
   157   80   81 1    
   158   80   82 1    
   159   80  201 1    
   160   81  202 1    
   161   81  203 1    
   162   81  204 1    
   163   82   83 2    
   164   82   84 am   BACKBONE|DICT|INTERRES
   165   84   85 1    
   166   84  205 1    
   167   85   86 1    
   168   85   87 1    
   169   85  206 1    
   170   86  207 1    
   171   86  208 1    
   172   86  209 1    
   173   87   88 2    
   174   87   89 am   BACKBONE|DICT|INTERRES
   175   89   90 1    
   176   89  210 1    
   177   90   91 1    
   178   90   92 1    
   179   90  211 1    
   180   91  212 1    
   181   91  213 1    
   182   91  214 1    
   183   92   93 2    
   184   92   94 am   BACKBONE|DICT|INTERRES
   185   94   95 1    
   186   94  215 1    
   187   95   96 1    
   188   95   97 1    
   189   95  216 1    
   190   96  217 1    
   191   96  218 1    
   192   96  219 1    
   193   97   98 2    
   194   97   99 am   BACKBONE|DICT|INTERRES
   195   99  100 1    
   196   99  220 1    
   197  100  101 1    
   198  100  102 1    
   199  100  221 1    
   200  101  222 1    
   201  101  223 1    
   202  101  224 1    
   203  102  103 2    
   204  102  104 am   BACKBONE|DICT|INTERRES
   205  104  105 1    
   206  104  225 1    
   207  105  106 1    
   208  105  107 1    
   209  105  226 1    
   210  106  227 1    
   211  106  228 1    
   212  106  229 1    
   213  107  108 2    
   214  107  109 am   BACKBONE|DICT|INTERRES
   215  109  110 1    
   216  109  230 1    
   217  110  111 1    
   218  110  112 1    
   219  110  231 1    
   220  111  232 1    
   221  111  233 1    
   222  111  234 1    
   223  112  113 2    
   224  112  114 am   BACKBONE|DICT|INTERRES
   225  114  115 1    
   226  114  235 1    
   227  115  116 1    
   228  115  117 1    
   229  115  236 1    
   230  116  237 1    
   231  116  238 1    
   232  116  239 1    
   233  117  118 2    
   234  117  119 am   BACKBONE|DICT|INTERRES
   235  119  120 1    
   236  119  240 1    
   237  120  121 1    
   238  120  124 1    
   239  120  241 1    
   240  121  122 am   BACKBONE|DICT|INTERRES
   241  121  123 2    
   242  122  242 1    
   243  122  243 1    
   244  124  125 1    
   245  124  244 1    
   246  124  245 1    
   247  125  126 1    
   248  126  246 1    
   249  126  247 1    
@<TRIPOS>SUBSTRUCTURE
     1 UNK         1 GROUP             0       ****    0 ROOT    
