@<TRIPOS>MOLECULE
3R540
247   249    1
SMALL
USER_CHARGES


@<TRIPOS>ATOM
      1 CA         -2.7620  -11.0112  -47.0506 C.3       0 UNK        -0.1800 
      2 C          -1.4321  -11.5535  -46.5488 C.2       0 UNK         0.5000 
      3 O          -0.9381  -11.1004  -45.5183 O.2       0 UNK        -0.5000 
      4 N          -0.8600  -12.5333  -47.2602 N.am      1 UNK        -0.5000 
      5 CA          0.4237  -13.1801  -46.9527 C.3       1 UNK         0.1400 
      6 C6          0.8110  -14.1722  -48.0762 C.3       23 UNK        -0.0398 
      7 S7          2.5775  -14.6186  -48.0908 S.3       23 UNK        -0.2404 
      8 C8          2.8171  -15.1273  -49.8229 C.3       23 UNK        -0.0205 
      9 C9          1.9134  -16.2876  -50.2171 C.ar      23 UNK        -0.0193 
     10 C10         0.7289  -16.0455  -50.9197 C.ar      23 UNK        -0.1150 
     11 C11        -0.1017  -17.1035  -51.2950 C.ar      23 UNK        -0.0193 
     12 C12         0.2679  -18.4120  -50.9783 C.ar      23 UNK        -0.1150 
     13 C13         1.4337  -18.6698  -50.2502 C.ar      23 UNK        -0.0193 
     14 C14         2.2584  -17.6016  -49.8830 C.ar      23 UNK        -0.1150 
     15 C15         1.8063  -20.0982  -49.8675 C.3       23 UNK        -0.0205 
     16 S16         1.2397  -20.5475  -48.1899 S.3       23 UNK        -0.2404 
     17 C17        -0.5758  -20.6030  -48.3765 C.3       23 UNK        -0.0398 
     18 CA         -1.1655  -22.0150  -48.1455 C.3       11 UNK         0.1400 
     19 N          -1.1127  -22.4031  -46.7307 N.am      11 UNK        -0.5000 
     20 C          -1.6580  -23.5044  -46.1896 C.2       10 UNK         0.5000 
     21 O          -2.1967  -24.3973  -46.8450 O.2       10 UNK        -0.5000 
     22 CA         -1.6726  -23.6050  -44.6532 C.3       10 UNK         0.1400 
     23 CB         -0.4785  -24.4397  -44.1691 C.3       10 UNK        -0.1800 
     24 N          -1.6691  -22.3170  -43.9541 N.am      10 UNK        -0.5000 
     25 C          -2.5069  -21.2840  -44.1415 C.2       9 UNK         0.5000 
     26 O          -3.4366  -21.2889  -44.9500 O.2       9 UNK        -0.5000 
     27 CA         -2.2243  -20.0095  -43.3219 C.3       9 UNK         0.1400 
     28 CB         -3.1552  -19.9381  -42.1033 C.3       9 UNK        -0.1800 
     29 N          -0.8297  -19.9011  -42.8756 N.am      9 UNK        -0.5000 
     30 C           0.2201  -19.7751  -43.6989 C.2       8 UNK         0.5000 
     31 O           0.1162  -19.6909  -44.9246 O.2       8 UNK        -0.5000 
     32 CA          1.6112  -19.8471  -43.0437 C.3       8 UNK         0.1400 
     33 CB          2.0209  -21.3140  -42.8337 C.3       8 UNK        -0.1800 
     34 N           2.6228  -19.1953  -43.8720 N.am      8 UNK        -0.5000 
     35 C           2.7751  -17.8712  -43.9639 C.2       7 UNK         0.5000 
     36 O           2.1526  -17.0610  -43.2705 O.2       7 UNK        -0.5000 
     37 CA          3.7960  -17.3756  -44.9989 C.3       7 UNK         0.1400 
     38 CB          3.3411  -17.6846  -46.4341 C.3       7 UNK        -0.1800 
     39 N           3.9507  -15.9383  -44.8278 N.am      7 UNK        -0.5000 
     40 C           5.0710  -15.2298  -44.9981 C.2       6 UNK         0.5000 
     41 O           6.1106  -15.6917  -45.4702 O.2       6 UNK        -0.5000 
     42 CA          5.0365  -13.7655  -44.5164 C.3       6 UNK         0.1400 
     43 CB          4.8343  -12.7916  -45.6867 C.3       6 UNK        -0.1800 
     44 N           3.9795  -13.5427  -43.5304 N.am      6 UNK        -0.5000 
     45 C           4.0609  -13.8599  -42.2313 C.2       5 UNK         0.5000 
     46 O           5.0841  -14.2950  -41.6998 O.2       5 UNK        -0.5000 
     47 CA          2.7719  -13.6710  -41.4038 C.3       5 UNK         0.1400 
     48 CB          3.0317  -13.5484  -39.8882 C.3       5 UNK        -0.1800 
     49 N           1.9446  -12.5634  -41.8915 N.am      5 UNK        -0.5000 
     50 C           2.2521  -11.2577  -41.9282 C.2       4 UNK         0.5000 
     51 O           3.2934  -10.7807  -41.4757 O.2       4 UNK        -0.5000 
     52 CA          1.2335  -10.3231  -42.6128 C.3       4 UNK         0.1400 
     53 CB          1.7643   -9.8819  -43.9863 C.3       4 UNK        -0.1800 
     54 N          -0.0809  -10.9399  -42.7993 N.am      4 UNK        -0.5000 
     55 C          -0.9704  -11.1772  -41.8261 C.2       3 UNK         0.5000 
     56 O          -0.8218  -10.8186  -40.6577 O.2       3 UNK        -0.5000 
     57 CA         -2.2106  -11.9983  -42.2229 C.3       3 UNK         0.1400 
     58 CB         -3.2921  -11.0989  -42.8414 C.3       3 UNK        -0.1800 
     59 N          -1.8783  -13.0811  -43.1534 N.am      3 UNK        -0.5000 
     60 C          -1.2072  -14.1925  -42.8168 C.2       2 UNK         0.5000 
     61 O          -0.8179  -14.4326  -41.6746 O.2       2 UNK        -0.5000 
     62 CA         -0.8941  -15.1926  -43.9447 C.3       2 UNK         0.1400 
     63 CB         -2.0154  -16.2322  -44.0808 C.3       2 UNK        -0.1800 
     64 N          -0.6797  -14.5420  -45.2369 N.am      2 UNK        -0.5000 
     65 C           0.4255  -13.8565  -45.5625 C.2       1 UNK         0.5000 
     66 O           1.3865  -13.7074  -44.8048 O.2       1 UNK        -0.5000 
     67 C          -2.5959  -22.0887  -48.7224 C.2       11 UNK         0.5000 
     68 O          -2.7760  -22.6327  -49.8128 O.2       11 UNK        -0.5000 
     69 N          -3.5736  -21.5886  -47.9556 N.am      12 UNK        -0.5000 
     70 CA         -4.9915  -21.6282  -48.2956 C.3       12 UNK         0.1400 
     71 CB         -5.6132  -20.2504  -48.0223 C.3       12 UNK        -0.1800 
     72 C          -5.7270  -22.7176  -47.4995 C.2       12 UNK         0.5000 
     73 O          -6.5164  -23.4580  -48.0841 O.2       12 UNK        -0.5000 
     74 N          -5.4607  -22.8038  -46.1873 N.am      13 UNK        -0.5000 
     75 CA         -6.2031  -23.6389  -45.2375 C.3       13 UNK         0.1400 
     76 CB         -5.8323  -23.2316  -43.8030 C.3       13 UNK        -0.1800 
     77 C          -6.0056  -25.1520  -45.4351 C.2       13 UNK         0.5000 
     78 O          -6.9469  -25.9149  -45.2155 O.2       13 UNK        -0.5000 
     79 N          -4.8005  -25.5538  -45.8563 N.am      14 UNK        -0.5000 
     80 CA         -4.4523  -26.9341  -46.2046 C.3       14 UNK         0.1400 
     81 CB         -3.1957  -27.3426  -45.4158 C.3       14 UNK        -0.1800 
     82 C          -4.2279  -27.0869  -47.7219 C.2       14 UNK         0.5000 
     83 O          -3.8664  -28.1750  -48.1712 O.2       14 UNK        -0.5000 
     84 N          -4.4282  -25.9934  -48.4754 N.am      15 UNK        -0.5000 
     85 CA         -4.1898  -25.8317  -49.9106 C.3       15 UNK         0.1400 
     86 CB         -5.2035  -26.6564  -50.7295 C.3       15 UNK        -0.1800 
     87 C          -2.7257  -26.1014  -50.3174 C.2       15 UNK         0.5000 
     88 O          -2.4773  -26.5908  -51.4203 O.2       15 UNK        -0.5000 
     89 N          -1.7693  -25.7638  -49.4369 N.am      16 UNK        -0.5000 
     90 CA         -0.3337  -25.9893  -49.6441 C.3       16 UNK         0.1400 
     91 CB          0.4243  -25.7459  -48.3298 C.3       16 UNK        -0.1800 
     92 C           0.2726  -25.1632  -50.7984 C.2       16 UNK         0.5000 
     93 O           1.3451  -25.5128  -51.2913 O.2       16 UNK        -0.5000 
     94 N          -0.4349  -24.1125  -51.2381 N.am      17 UNK        -0.5000 
     95 CA         -0.1206  -23.3332  -52.4362 C.3       17 UNK         0.1400 
     96 CB         -0.8576  -21.9890  -52.3410 C.3       17 UNK        -0.1800 
     97 C          -0.5122  -24.0445  -53.7492 C.2       17 UNK         0.5000 
     98 O          -0.1841  -23.5335  -54.8209 O.2       17 UNK        -0.5000 
     99 N          -1.2526  -25.1620  -53.6568 N.am      18 UNK        -0.5000 
    100 CA        -1.9419  -25.9082  -54.7174 C.3       18 UNK         0.1400 
    101 CB        -0.9856  -26.3836  -55.8289 C.3       18 UNK        -0.1800 
    102 C         -3.1433  -25.1220  -55.2702 C.2       18 UNK         0.5000 
    103 O         -4.2803  -25.5825  -55.1615 O.2       18 UNK        -0.5000 
    104 N         -2.8775  -23.9174  -55.7850 N.am      19 UNK        -0.5000 
    105 CA        -3.8685  -22.8894  -56.0711 C.3       19 UNK         0.1400 
    106 CB        -3.3423  -21.9876  -57.2014 C.3       19 UNK        -0.1800 
    107 C         -4.1223  -22.1050  -54.7733 C.2       19 UNK         0.5000 
    108 O         -3.4657  -21.0925  -54.5301 O.2       19 UNK        -0.5000 
    109 N         -5.0443  -22.6056  -53.9399 N.am      20 UNK        -0.5000 
    110 CA        -5.3813  -22.0611  -52.6168 C.3       20 UNK         0.1400 
    111 CB        -6.4239  -22.9768  -51.9575 C.3       20 UNK        -0.1800 
    112 C         -5.8817  -20.6006  -52.6345 C.2       20 UNK         0.5000 
    113 O         -5.7073  -19.8857  -51.6483 O.2       20 UNK        -0.5000 
    114 N         -6.4683  -20.1818  -53.7641 N.am      21 UNK        -0.5000 
    115 CA        -6.9050  -18.8110  -54.0386 C.3       21 UNK         0.1400 
    116 CB        -8.0235  -18.8637  -55.0927 C.3       21 UNK        -0.1800 
    117 C         -5.7624  -17.8790  -54.5033 C.2       21 UNK         0.5000 
    118 O         -6.0097  -16.6909  -54.7124 O.2       21 UNK        -0.5000 
    119 N         -4.5471  -18.4189  -54.6748 N.am      22 UNK        -0.5000 
    120 CA        -3.3367  -17.7425  -55.1732 C.3       22 UNK         0.1400 
    121 C         -3.3205  -17.4730  -56.7096 C.2       22 UNK         0.5000 
    122 N         -4.2531  -18.0091  -57.4880 N.am      22 UNK        -0.7600 
    123 O         -2.4338  -16.7901  -57.2150 O.2       22 UNK        -0.5000 
    124 C124       -2.9303  -16.4965  -54.3262 C.3       23 UNK        -0.0398 
    125 S125       -1.1868  -16.5583  -53.7878 S.3       23 UNK        -0.2404 
    126 C126       -1.4175  -16.8351  -52.0064 C.3       23 UNK        -0.0205 
    127 H127       -2.6834   -9.9395  -47.2328 H         1 UNK         0.0600 
    128 H128       -3.5390  -11.1746  -46.3039 H         1 UNK         0.0600 
    129 H129       -3.0732  -11.4925  -47.9779 H         1 UNK         0.0600 
    130 H130       -1.3250  -12.8585  -48.0957 H         1 UNK         0.3000 
    131 H131        1.1725  -12.3854  -46.9253 H         1 UNK         0.0600 
    132 H132        0.2134  -15.0844  -48.0256 H         1 UNK         0.0800 
    133 H133        0.5889  -13.7196  -49.0434 H         1 UNK         0.0800 
    134 H134        2.6486  -14.2708  -50.4774 H         1 UNK         0.0800 
    135 H135        3.8600  -15.4150  -49.9630 H         1 UNK         0.0800 
    136 H136        0.4484  -15.0328  -51.1731 H         1 UNK         0.1150 
    137 H137       -0.3693  -19.2256  -51.2886 H         1 UNK         0.1150 
    138 H138        3.1679  -17.7927  -49.3323 H         1 UNK         0.1150 
    139 H139        1.4107  -20.8088  -50.5929 H         1 UNK         0.0800 
    140 H140        2.8909  -20.2090  -49.9055 H         1 UNK         0.0800 
    141 H141       -0.8405  -20.2422  -49.3672 H         1 UNK         0.0800 
    142 H142       -1.0110  -19.8859  -47.6780 H         1 UNK         0.0800 
    143 H143       -0.5638  -22.7310  -48.7053 H         1 UNK         0.0600 
    144 H144       -0.6879  -21.7265  -46.1100 H         1 UNK         0.3000 
    145 H145       -2.5887  -24.1259  -44.3714 H         1 UNK         0.0600 
    146 H146       -0.5290  -24.6162  -43.0946 H         1 UNK         0.0600 
    147 H147       -0.4582  -25.4158  -44.6557 H         1 UNK         0.0600 
    148 H148        0.4703  -23.9468  -44.3853 H         1 UNK         0.0600 
    149 H149       -0.9446  -22.1973  -43.2628 H         1 UNK         0.3000 
    150 H150       -2.4421  -19.1594  -43.9701 H         1 UNK         0.0600 
    151 H151       -2.9705  -20.7562  -41.4061 H         1 UNK         0.0600 
    152 H152       -4.2015  -19.9959  -42.4071 H         1 UNK         0.0600 
    153 H153       -3.0269  -18.9995  -41.5636 H         1 UNK         0.0600 
    154 H154       -0.6698  -19.9713  -41.8806 H         1 UNK         0.3000 
    155 H155        1.5707  -19.3501  -42.0719 H         1 UNK         0.0600 
    156 H156        2.0602  -21.8606  -43.7771 H         1 UNK         0.0600 
    157 H157        1.3157  -21.8321  -42.1828 H         1 UNK         0.0600 
    158 H158        3.0026  -21.3852  -42.3648 H         1 UNK         0.0600 
    159 H159        3.1348  -19.7926  -44.5043 H         1 UNK         0.3000 
    160 H160        4.7477  -17.8724  -44.7999 H         1 UNK         0.0600 
    161 H161        2.3501  -17.2770  -46.6382 H         1 UNK         0.0600 
    162 H162        3.2948  -18.7590  -46.6127 H         1 UNK         0.0600 
    163 H163        4.0347  -17.2656  -47.1628 H         1 UNK         0.0600 
    164 H164        3.1526  -15.4873  -44.3964 H         1 UNK         0.3000 
    165 H165        6.0039  -13.5482  -44.0588 H         1 UNK         0.0600 
    166 H166        4.9584  -11.7587  -45.3609 H         1 UNK         0.0600 
    167 H167        5.5588  -12.9730  -46.4816 H         1 UNK         0.0600 
    168 H168        3.8383  -12.8837  -46.1182 H         1 UNK         0.0600 
    169 H169        3.0739  -13.2672  -43.8990 H         1 UNK         0.3000 
    170 H170        2.1821  -14.5754  -41.5621 H         1 UNK         0.0600 
    171 H171        3.5094  -14.4488  -39.5005 H         1 UNK         0.0600 
    172 H172        3.6838  -12.7069  -39.6535 H         1 UNK         0.0600 
    173 H173        2.0994  -13.4152  -39.3392 H         1 UNK         0.0600 
    174 H174        1.0668  -12.8368  -42.3102 H         1 UNK         0.3000 
    175 H175        1.1179   -9.4382  -41.9839 H         1 UNK         0.0600 
    176 H176        2.7306   -9.3844  -43.8938 H         1 UNK         0.0600 
    177 H177        1.8948  -10.7324  -44.6572 H         1 UNK         0.0600 
    178 H178        1.0817   -9.1802  -44.4660 H         1 UNK         0.0600 
    179 H179       -0.3239  -11.1984  -43.7532 H         1 UNK         0.3000 
    180 H180       -2.6215  -12.4429  -41.3138 H         1 UNK         0.0600 
    181 H181       -2.9437  -10.6107  -43.7517 H         1 UNK         0.0600 
    182 H182       -3.5893  -10.3145  -42.1443 H         1 UNK         0.0600 
    183 H183       -4.1872  -11.6701  -43.0879 H         1 UNK         0.0600 
    184 H184       -2.1237  -12.9382  -44.1214 H         1 UNK         0.3000 
    185 H185        0.0195  -15.7198  -43.6699 H         1 UNK         0.0600 
    186 H186       -2.1748  -16.7573  -43.1380 H         1 UNK         0.0600 
    187 H187       -2.9621  -15.7725  -44.3666 H         1 UNK         0.0600 
    188 H188       -1.7631  -16.9812  -44.8318 H         1 UNK         0.0600 
    189 H189       -1.4304  -14.6013  -45.9089 H         1 UNK         0.3000 
    190 H190       -3.3400  -21.2328  -47.0356 H         1 UNK         0.3000 
    191 H191       -5.1191  -21.8442  -49.3576 H         1 UNK         0.0600 
    192 H192       -5.1439  -19.4821  -48.6372 H         1 UNK         0.0600 
    193 H193       -6.6778  -20.2484  -48.2601 H         1 UNK         0.0600 
    194 H194       -5.5063  -19.9557  -46.9775 H         1 UNK         0.0600 
    195 H195       -4.7754  -22.1719  -45.7785 H         1 UNK         0.3000 
    196 H196       -7.2656  -23.4297  -45.3794 H         1 UNK         0.0600 
    197 H197       -6.4221  -23.7890  -43.0742 H         1 UNK         0.0600 
    198 H198       -6.0217  -22.1718  -43.6314 H         1 UNK         0.0600 
    199 H199       -4.7813  -23.4227  -43.5870 H         1 UNK         0.0600 
    200 H200       -4.0815  -24.8638  -46.0364 H         1 UNK         0.3000 
    201 H201       -5.2588  -27.6174  -45.9321 H         1 UNK         0.0600 
    202 H202       -2.9640  -28.3970  -45.5709 H         1 UNK         0.0600 
    203 H203       -3.3364  -27.1964  -44.3448 H         1 UNK         0.0600 
    204 H204       -2.3200  -26.7705  -45.7209 H         1 UNK         0.0600 
    205 H205       -4.7623  -25.1673  -48.0008 H         1 UNK         0.3000 
    206 H206       -4.3731  -24.7794  -50.1296 H         1 UNK         0.0600 
    207 H207       -6.2272  -26.4233  -50.4366 H         1 UNK         0.0600 
    208 H208       -5.1155  -26.4404  -51.7951 H         1 UNK         0.0600 
    209 H209       -5.0521  -27.7283  -50.6000 H         1 UNK         0.0600 
    210 H210       -2.0413  -25.3511  -48.5490 H         1 UNK         0.3000 
    211 H211       -0.2080  -27.0415  -49.9076 H         1 UNK         0.0600 
    212 H212        0.4074  -24.6979  -48.0361 H         1 UNK         0.0600 
    213 H213        1.4710  -26.0365  -48.4270 H         1 UNK         0.0600 
    214 H214       -0.0001  -26.3306  -47.5133 H         1 UNK         0.0600 
    215 H215       -1.3058  -23.8843  -50.7725 H         1 UNK         0.3000 
    216 H216        0.9539  -23.1407  -52.4626 H         1 UNK         0.0600 
    217 H217       -0.5555  -21.3131  -53.1421 H         1 UNK         0.0600 
    218 H218       -0.6505  -21.4941  -51.3957 H         1 UNK         0.0600 
    219 H219       -1.9380  -22.1185  -52.4123 H         1 UNK         0.0600 
    220 H220       -1.4850  -25.4909  -52.7247 H         1 UNK         0.3000 
    221 H221       -2.3434  -26.8007  -54.2347 H         1 UNK         0.0600 
    222 H222       -0.5755  -25.5572  -56.4091 H         1 UNK         0.0600 
    223 H223       -0.1508  -26.9478  -55.4132 H         1 UNK         0.0600 
    224 H224       -1.5056  -27.0397  -56.5277 H         1 UNK         0.0600 
    225 H225       -1.9098  -23.6097  -55.7513 H         1 UNK         0.3000 
    226 H226       -4.8046  -23.3434  -56.4030 H         1 UNK         0.0600 
    227 H227       -4.0457  -21.1828  -57.4183 H         1 UNK         0.0600 
    228 H228       -2.3865  -21.5283  -56.9450 H         1 UNK         0.0600 
    229 H229       -3.2021  -22.5545  -58.1218 H         1 UNK         0.0600 
    230 H230       -5.5093  -23.4641  -54.2022 H         1 UNK         0.3000 
    231 H231       -4.4735  -22.0837  -52.0104 H         1 UNK         0.0600 
    232 H232       -7.3398  -23.0309  -52.5472 H         1 UNK         0.0600 
    233 H233       -6.6973  -22.6175  -50.9649 H         1 UNK         0.0600 
    234 H234       -6.0414  -23.9901  -51.8406 H         1 UNK         0.0600 
    235 H235       -6.5756  -20.8468  -54.5158 H         1 UNK         0.3000 
    236 H236       -7.3198  -18.3823  -53.1240 H         1 UNK         0.0600 
    237 H237       -8.8579  -19.4768  -54.7516 H         1 UNK         0.0600 
    238 H238       -8.4191  -17.8679  -55.2972 H         1 UNK         0.0600 
    239 H239       -7.6678  -19.2758  -56.0378 H         1 UNK         0.0600 
    240 H240       -4.4178  -19.4080  -54.4852 H         1 UNK         0.3000 
    241 H241       -2.5655  -18.5025  -55.0435 H         1 UNK         0.0600 
    242 H242       -4.9876  -18.5728  -57.0940 H         1 UNK         0.3800 
    243 H243       -4.2286  -17.8364  -58.4808 H         1 UNK         0.3800 
    244 H244       -3.0952  -15.5663  -54.8727 H         1 UNK         0.0800 
    245 H245       -3.5579  -16.4082  -53.4389 H         1 UNK         0.0800 
    246 H246       -1.9008  -15.9623  -51.5645 H         1 UNK         0.0800 
    247 H247       -2.1010  -17.6733  -51.8580 H         1 UNK         0.0800 
@<TRIPOS>BOND
     1    1    2 1    
     2    1  127 1    
     3    1  128 1    
     4    1  129 1    
     5    2    3 2    
     6    2    4 am   BACKBONE|DICT|INTERRES
     7    4    5 1    
     8    4  130 1    
     9    5    6 1    
    10    5   65 1    
    11    5  131 1    
    12    6    7 1    
    13    6  132 1    
    14    6  133 1    
    15    7    8 1    
    16    8    9 1    
    17    8  134 1    
    18    8  135 1    
    19    9   10 ar   
    20    9   14 ar   
    21   10   11 ar   
    22   10  136 1    
    23   11   12 ar   
    24   11  126 1    
    25   12   13 ar   
    26   12  137 1    
    27   13   14 ar   
    28   13   15 1    
    29   14  138 1    
    30   15   16 1    
    31   15  139 1    
    32   15  140 1    
    33   16   17 1    
    34   17   18 1    
    35   17  141 1    
    36   17  142 1    
    37   18   19 1    
    38   18   67 1    
    39   18  143 1    
    40   19   20 am   BACKBONE|DICT|INTERRES
    41   19  144 1    
    42   20   21 2    
    43   20   22 1    
    44   22   23 1    
    45   22   24 1    
    46   22  145 1    
    47   23  146 1    
    48   23  147 1    
    49   23  148 1    
    50   24   25 am   BACKBONE|DICT|INTERRES
    51   24  149 1    
    52   25   26 2    
    53   25   27 1    
    54   27   28 1    
    55   27   29 1    
    56   27  150 1    
    57   28  151 1    
    58   28  152 1    
    59   28  153 1    
    60   29   30 am   BACKBONE|DICT|INTERRES
    61   29  154 1    
    62   30   31 2    
    63   30   32 1    
    64   32   33 1    
    65   32   34 1    
    66   32  155 1    
    67   33  156 1    
    68   33  157 1    
    69   33  158 1    
    70   34   35 am   BACKBONE|DICT|INTERRES
    71   34  159 1    
    72   35   36 2    
    73   35   37 1    
    74   37   38 1    
    75   37   39 1    
    76   37  160 1    
    77   38  161 1    
    78   38  162 1    
    79   38  163 1    
    80   39   40 am   BACKBONE|DICT|INTERRES
    81   39  164 1    
    82   40   41 2    
    83   40   42 1    
    84   42   43 1    
    85   42   44 1    
    86   42  165 1    
    87   43  166 1    
    88   43  167 1    
    89   43  168 1    
    90   44   45 am   BACKBONE|DICT|INTERRES
    91   44  169 1    
    92   45   46 2    
    93   45   47 1    
    94   47   48 1    
    95   47   49 1    
    96   47  170 1    
    97   48  171 1    
    98   48  172 1    
    99   48  173 1    
   100   49   50 am   BACKBONE|DICT|INTERRES
   101   49  174 1    
   102   50   51 2    
   103   50   52 1    
   104   52   53 1    
   105   52   54 1    
   106   52  175 1    
   107   53  176 1    
   108   53  177 1    
   109   53  178 1    
   110   54   55 am   BACKBONE|DICT|INTERRES
   111   54  179 1    
   112   55   56 2    
   113   55   57 1    
   114   57   58 1    
   115   57   59 1    
   116   57  180 1    
   117   58  181 1    
   118   58  182 1    
   119   58  183 1    
   120   59   60 am   BACKBONE|DICT|INTERRES
   121   59  184 1    
   122   60   61 2    
   123   60   62 1    
   124   62   63 1    
   125   62   64 1    
   126   62  185 1    
   127   63  186 1    
   128   63  187 1    
   129   63  188 1    
   130   64   65 am   BACKBONE|DICT|INTERRES
   131   64  189 1    
   132   65   66 2    
   133   67   68 2    
   134   67   69 am   BACKBONE|DICT|INTERRES
   135   69   70 1    
   136   69  190 1    
   137   70   71 1    
   138   70   72 1    
   139   70  191 1    
   140   71  192 1    
   141   71  193 1    
   142   71  194 1    
   143   72   73 2    
   144   72   74 am   BACKBONE|DICT|INTERRES
   145   74   75 1    
   146   74  195 1    
   147   75   76 1    
   148   75   77 1    
   149   75  196 1    
   150   76  197 1    
   151   76  198 1    
   152   76  199 1    
   153   77   78 2    
   154   77   79 am   BACKBONE|DICT|INTERRES
   155   79   80 1    
   156   79  200 1    
   157   80   81 1    
   158   80   82 1    
   159   80  201 1    
   160   81  202 1    
   161   81  203 1    
   162   81  204 1    
   163   82   83 2    
   164   82   84 am   BACKBONE|DICT|INTERRES
   165   84   85 1    
   166   84  205 1    
   167   85   86 1    
   168   85   87 1    
   169   85  206 1    
   170   86  207 1    
   171   86  208 1    
   172   86  209 1    
   173   87   88 2    
   174   87   89 am   BACKBONE|DICT|INTERRES
   175   89   90 1    
   176   89  210 1    
   177   90   91 1    
   178   90   92 1    
   179   90  211 1    
   180   91  212 1    
   181   91  213 1    
   182   91  214 1    
   183   92   93 2    
   184   92   94 am   BACKBONE|DICT|INTERRES
   185   94   95 1    
   186   94  215 1    
   187   95   96 1    
   188   95   97 1    
   189   95  216 1    
   190   96  217 1    
   191   96  218 1    
   192   96  219 1    
   193   97   98 2    
   194   97   99 am   BACKBONE|DICT|INTERRES
   195   99  100 1    
   196   99  220 1    
   197  100  101 1    
   198  100  102 1    
   199  100  221 1    
   200  101  222 1    
   201  101  223 1    
   202  101  224 1    
   203  102  103 2    
   204  102  104 am   BACKBONE|DICT|INTERRES
   205  104  105 1    
   206  104  225 1    
   207  105  106 1    
   208  105  107 1    
   209  105  226 1    
   210  106  227 1    
   211  106  228 1    
   212  106  229 1    
   213  107  108 2    
   214  107  109 am   BACKBONE|DICT|INTERRES
   215  109  110 1    
   216  109  230 1    
   217  110  111 1    
   218  110  112 1    
   219  110  231 1    
   220  111  232 1    
   221  111  233 1    
   222  111  234 1    
   223  112  113 2    
   224  112  114 am   BACKBONE|DICT|INTERRES
   225  114  115 1    
   226  114  235 1    
   227  115  116 1    
   228  115  117 1    
   229  115  236 1    
   230  116  237 1    
   231  116  238 1    
   232  116  239 1    
   233  117  118 2    
   234  117  119 am   BACKBONE|DICT|INTERRES
   235  119  120 1    
   236  119  240 1    
   237  120  121 1    
   238  120  124 1    
   239  120  241 1    
   240  121  122 am   BACKBONE|DICT|INTERRES
   241  121  123 2    
   242  122  242 1    
   243  122  243 1    
   244  124  125 1    
   245  124  244 1    
   246  124  245 1    
   247  125  126 1    
   248  126  246 1    
   249  126  247 1    
@<TRIPOS>SUBSTRUCTURE
     1 UNK         1 GROUP             0       ****    0 ROOT    
