@<TRIPOS>MOLECULE
3R540
247   249    1
SMALL
USER_CHARGES


@<TRIPOS>ATOM
      1 CA         -1.2833  -11.0589  -47.7663 C.3       0 UNK        -0.1800 
      2 C           0.2000  -11.0833  -48.1050 C.2       0 UNK         0.5000 
      3 O           0.8837  -10.0710  -47.9491 O.2       0 UNK        -0.5000 
      4 N           0.7055  -12.2376  -48.5545 N.am      1 UNK        -0.5000 
      5 CA          2.1037  -12.4962  -48.9178 C.3       1 UNK         0.1400 
      6 C6          2.2271  -13.6812  -49.9140 C.3       23 UNK        -0.0398 
      7 S7          1.2739  -15.1829  -49.4705 S.3       23 UNK        -0.2404 
      8 C8          2.5658  -16.4697  -49.5213 C.3       23 UNK        -0.0205 
      9 C9          2.0163  -17.8524  -49.8589 C.ar      23 UNK        -0.0193 
     10 C10         1.1917  -18.0311  -50.9744 C.ar      23 UNK        -0.1150 
     11 C11         0.7539  -19.3040  -51.3456 C.ar      23 UNK        -0.0193 
     12 C12         1.1366  -20.4095  -50.5811 C.ar      23 UNK        -0.1150 
     13 C13         1.9758  -20.2557  -49.4709 C.ar      23 UNK        -0.0193 
     14 C14         2.4079  -18.9704  -49.1147 C.ar      23 UNK        -0.1150 
     15 C15         2.4719  -21.5078  -48.7463 C.3       23 UNK        -0.0205 
     16 S16         2.8209  -21.3231  -46.9604 S.3       23 UNK        -0.2404 
     17 C17         1.2192  -20.7858  -46.2777 C.3       23 UNK        -0.0398 
     18 CA          0.2585  -21.9558  -45.9414 C.3       11 UNK         0.1400 
     19 N          -0.6607  -21.6083  -44.8559 N.am      11 UNK        -0.5000 
     20 C          -1.5894  -22.4124  -44.3189 C.2       10 UNK         0.5000 
     21 O          -1.7434  -23.5930  -44.6279 O.2       10 UNK        -0.5000 
     22 CA         -2.5455  -21.7676  -43.3022 C.3       10 UNK         0.1400 
     23 CB         -1.9246  -21.7488  -41.8973 C.3       10 UNK        -0.1800 
     24 N          -2.9176  -20.4090  -43.6980 N.am      10 UNK        -0.5000 
     25 C          -3.7208  -20.1163  -44.7304 C.2       9 UNK         0.5000 
     26 O          -4.2675  -20.9652  -45.4347 O.2       9 UNK        -0.5000 
     27 CA         -3.9070  -18.6223  -45.0543 C.3       9 UNK         0.1400 
     28 CB         -4.9213  -17.9783  -44.0972 C.3       9 UNK        -0.1800 
     29 N          -2.6495  -17.8727  -45.0101 N.am      9 UNK        -0.5000 
     30 C          -1.6327  -18.0663  -45.8611 C.2       8 UNK         0.5000 
     31 O          -1.6563  -18.8871  -46.7760 O.2       8 UNK        -0.5000 
     32 CA         -0.3566  -17.2368  -45.6334 C.3       8 UNK         0.1400 
     33 CB         -0.4847  -15.8667  -46.3142 C.3       8 UNK        -0.1800 
     34 N           0.0338  -17.0507  -44.2311 N.am      8 UNK        -0.5000 
     35 C           0.1798  -18.0141  -43.3087 C.2       7 UNK         0.5000 
     36 O          -0.1737  -19.1815  -43.4714 O.2       7 UNK        -0.5000 
     37 CA          0.9031  -17.5914  -42.0140 C.3       7 UNK         0.1400 
     38 CB          1.1213  -18.7587  -41.0289 C.3       7 UNK        -0.1800 
     39 N           2.1693  -16.9121  -42.3196 N.am      7 UNK        -0.5000 
     40 C           3.2021  -17.4152  -43.0177 C.2       6 UNK         0.5000 
     41 O           3.2731  -18.5830  -43.4014 O.2       6 UNK        -0.5000 
     42 CA          4.3379  -16.4481  -43.3940 C.3       6 UNK         0.1400 
     43 CB          4.1540  -15.9678  -44.8428 C.3       6 UNK        -0.1800 
     44 N           4.4401  -15.2801  -42.5198 N.am      6 UNK        -0.5000 
     45 C           4.9542  -15.2937  -41.2827 C.2       5 UNK         0.5000 
     46 O           5.3320  -16.3167  -40.7107 O.2       5 UNK        -0.5000 
     47 CA          5.0763  -13.9376  -40.5691 C.3       5 UNK         0.1400 
     48 CB          6.3186  -13.1816  -41.0674 C.3       5 UNK        -0.1800 
     49 N           3.8930  -13.1102  -40.7988 N.am      5 UNK        -0.5000 
     50 C           2.9494  -12.8512  -39.8839 C.2       4 UNK         0.5000 
     51 O           2.9922  -13.2553  -38.7211 O.2       4 UNK        -0.5000 
     52 CA          1.7470  -11.9960  -40.3359 C.3       4 UNK         0.1400 
     53 CB          1.9735  -10.5200  -39.9746 C.3       4 UNK        -0.1800 
     54 N           1.4554  -12.0945  -41.7677 N.am      4 UNK        -0.5000 
     55 C           1.0405  -13.2072  -42.3861 C.2       3 UNK         0.5000 
     56 O           0.8304  -14.2749  -41.8122 O.2       3 UNK        -0.5000 
     57 CA          0.8713  -13.1414  -43.9131 C.3       3 UNK         0.1400 
     58 CB         -0.5779  -12.7898  -44.2786 C.3       3 UNK        -0.1800 
     59 N           1.7752  -12.2304  -44.6187 N.am      3 UNK        -0.5000 
     60 C           3.1151  -12.2185  -44.5522 C.2       2 UNK         0.5000 
     61 O           3.7663  -12.8432  -43.7134 O.2       2 UNK        -0.5000 
     62 CA          3.8297  -11.3869  -45.6364 C.3       2 UNK         0.1400 
     63 CB          5.3372  -11.6999  -45.7382 C.3       2 UNK        -0.1800 
     64 N           3.1684  -11.5183  -46.9421 N.am      2 UNK        -0.5000 
     65 C           2.9949  -12.6383  -47.6626 C.2       1 UNK         0.5000 
     66 O           3.4652  -13.7333  -47.3538 O.2       1 UNK        -0.5000 
     67 C          -0.5120  -22.4204  -47.1917 C.2       11 UNK         0.5000 
     68 O          -0.2821  -23.5287  -47.6760 O.2       11 UNK        -0.5000 
     69 N          -1.4432  -21.5786  -47.6607 N.am      12 UNK        -0.5000 
     70 CA         -2.2973  -21.8436  -48.8130 C.3       12 UNK         0.1400 
     71 CB         -3.1159  -20.5884  -49.1432 C.3       12 UNK        -0.1800 
     72 C          -3.2118  -23.0614  -48.6071 C.2       12 UNK         0.5000 
     73 O          -3.3912  -23.8369  -49.5449 O.2       12 UNK        -0.5000 
     74 N          -3.7538  -23.2308  -47.3929 N.am      13 UNK        -0.5000 
     75 CA         -4.5651  -24.3887  -47.0158 C.3       13 UNK         0.1400 
     76 CB         -5.2084  -24.1532  -45.6417 C.3       13 UNK        -0.1800 
     77 C          -3.7636  -25.7033  -47.0339 C.2       13 UNK         0.5000 
     78 O          -4.2417  -26.6923  -47.5895 O.2       13 UNK        -0.5000 
     79 N          -2.5495  -25.6821  -46.4653 N.am      14 UNK        -0.5000 
     80 CA         -1.6225  -26.8159  -46.4357 C.3       14 UNK         0.1400 
     81 CB         -0.4529  -26.4974  -45.4921 C.3       14 UNK        -0.1800 
     82 C          -1.1031  -27.2036  -47.8325 C.2       14 UNK         0.5000 
     83 O          -0.9923  -28.3928  -48.1325 O.2       14 UNK        -0.5000 
     84 N          -0.8189  -26.1955  -48.6674 N.am      15 UNK        -0.5000 
     85 CA         -0.3812  -26.3567  -50.0554 C.3       15 UNK         0.1400 
     86 CB          0.2446  -25.0328  -50.5264 C.3       15 UNK        -0.1800 
     87 C          -1.5114  -26.7771  -51.0175 C.2       15 UNK         0.5000 
     88 O          -1.2166  -27.1870  -52.1403 O.2       15 UNK        -0.5000 
     89 N          -2.7722  -26.6190  -50.5838 N.am      16 UNK        -0.5000 
     90 CA         -4.0175  -26.7369  -51.3568 C.3       16 UNK         0.1400 
     91 CB         -4.2050  -28.1586  -51.9235 C.3       16 UNK        -0.1800 
     92 C          -4.1708  -25.6383  -52.4342 C.2       16 UNK         0.5000 
     93 O          -5.0129  -25.7526  -53.3250 O.2       16 UNK        -0.5000 
     94 N          -3.3801  -24.5668  -52.3047 N.am      17 UNK        -0.5000 
     95 CA         -3.3805  -23.3783  -53.1514 C.3       17 UNK         0.1400 
     96 CB         -1.9952  -22.7269  -53.0594 C.3       17 UNK        -0.1800 
     97 C          -4.4973  -22.3875  -52.7673 C.2       17 UNK         0.5000 
     98 O          -4.8071  -21.4889  -53.5498 O.2       17 UNK        -0.5000 
     99 N          -5.1227  -22.5875  -51.5972 N.am      18 UNK        -0.5000 
    100 CA        -6.3249  -21.8781  -51.1533 C.3       18 UNK         0.1400 
    101 CB        -6.6449  -22.2610  -49.7005 C.3       18 UNK        -0.1800 
    102 C         -7.5423  -22.1456  -52.0585 C.2       18 UNK         0.5000 
    103 O         -8.3644  -21.2492  -52.2422 O.2       18 UNK        -0.5000 
    104 N         -7.6085  -23.3476  -52.6516 N.am      19 UNK        -0.5000 
    105 CA        -8.6225  -23.7356  -53.6363 C.3       19 UNK         0.1400 
    106 CB        -8.5667  -25.2562  -53.8453 C.3       19 UNK        -0.1800 
    107 C         -8.4615  -22.9970  -54.9803 C.2       19 UNK         0.5000 
    108 O         -9.4559  -22.7580  -55.6657 O.2       19 UNK        -0.5000 
    109 N         -7.2182  -22.6249  -55.3148 N.am      20 UNK        -0.5000 
    110 CA        -6.8709  -21.7897  -56.4661 C.3       20 UNK         0.1400 
    111 CB        -5.4520  -22.1577  -56.9313 C.3       20 UNK        -0.1800 
    112 C         -6.9670  -20.2816  -56.1515 C.2       20 UNK         0.5000 
    113 O         -6.8660  -19.4726  -57.0745 O.2       20 UNK        -0.5000 
    114 N         -7.1525  -19.9372  -54.8667 N.am      21 UNK        -0.5000 
    115 CA        -7.2121  -18.5936  -54.2875 C.3       21 UNK         0.1400 
    116 CB        -8.4815  -17.8533  -54.7577 C.3       21 UNK        -0.1800 
    117 C         -5.9127  -17.8014  -54.5340 C.2       21 UNK         0.5000 
    118 O         -5.9524  -16.7045  -55.0951 O.2       21 UNK        -0.5000 
    119 N         -4.7775  -18.3947  -54.1362 N.am      22 UNK        -0.5000 
    120 CA        -3.4258  -17.8561  -54.3726 C.3       22 UNK         0.1400 
    121 C         -3.0809  -16.4965  -53.6879 C.2       22 UNK         0.5000 
    122 N         -3.8422  -16.0335  -52.7038 N.am      22 UNK        -0.7600 
    123 O         -2.1114  -15.8466  -54.0699 O.2       22 UNK        -0.5000 
    124 C124       -2.3345  -18.9376  -54.1505 C.3       23 UNK        -0.0398 
    125 S125       -1.8303  -19.2145  -52.4074 S.3       23 UNK        -0.2404 
    126 C126       -0.0421  -19.4815  -52.6308 C.3       23 UNK        -0.0205 
    127 H127       -1.4289  -10.7256  -46.7388 H         1 UNK         0.0600 
    128 H128       -1.7393  -12.0436  -47.8718 H         1 UNK         0.0600 
    129 H129       -1.8067  -10.3678  -48.4269 H         1 UNK         0.0600 
    130 H130        0.1001  -13.0421  -48.6430 H         1 UNK         0.3000 
    131 H131        2.4753  -11.6158  -49.4471 H         1 UNK         0.0600 
    132 H132        3.2769  -13.9291  -50.0778 H         1 UNK         0.0800 
    133 H133        1.8588  -13.3567  -50.8880 H         1 UNK         0.0800 
    134 H134        3.3093  -16.2192  -50.2785 H         1 UNK         0.0800 
    135 H135        3.0862  -16.4760  -48.5620 H         1 UNK         0.0800 
    136 H136        0.9149  -17.1778  -51.5779 H         1 UNK         0.1150 
    137 H137        0.8192  -21.3984  -50.8817 H         1 UNK         0.1150 
    138 H138        3.0807  -18.8412  -48.2790 H         1 UNK         0.1150 
    139 H139        1.7701  -22.3293  -48.8870 H         1 UNK         0.0800 
    140 H140        3.3947  -21.8256  -49.2328 H         1 UNK         0.0800 
    141 H141        1.4624  -20.2393  -45.3654 H         1 UNK         0.0800 
    142 H142        0.7596  -20.0506  -46.9388 H         1 UNK         0.0800 
    143 H143        0.8487  -22.8012  -45.5816 H         1 UNK         0.0600 
    144 H144       -0.5842  -20.6647  -44.4826 H         1 UNK         0.3000 
    145 H145       -3.4532  -22.3732  -43.2625 H         1 UNK         0.0600 
    146 H146       -2.6123  -21.3215  -41.1674 H         1 UNK         0.0600 
    147 H147       -1.6856  -22.7601  -41.5659 H         1 UNK         0.0600 
    148 H148       -1.0015  -21.1696  -41.8683 H         1 UNK         0.0600 
    149 H149       -2.4339  -19.6553  -43.2303 H         1 UNK         0.3000 
    150 H150       -4.3057  -18.5519  -46.0688 H         1 UNK         0.0600 
    151 H151       -5.8727  -18.5113  -44.1215 H         1 UNK         0.0600 
    152 H152       -5.1227  -16.9435  -44.3748 H         1 UNK         0.0600 
    153 H153       -4.5664  -17.9866  -43.0659 H         1 UNK         0.0600 
    154 H154       -2.5443  -17.1888  -44.2756 H         1 UNK         0.3000 
    155 H155        0.4624  -17.7709  -46.1185 H         1 UNK         0.0600 
    156 H156        0.4652  -15.3317  -46.3149 H         1 UNK         0.0600 
    157 H157       -1.2312  -15.2428  -45.8229 H         1 UNK         0.0600 
    158 H158       -0.7892  -15.9778  -47.3558 H         1 UNK         0.0600 
    159 H159        0.3497  -16.1275  -43.9799 H         1 UNK         0.3000 
    160 H160        0.2598  -16.8625  -41.5201 H         1 UNK         0.0600 
    161 H161        1.7049  -19.5659  -41.4722 H         1 UNK         0.0600 
    162 H162        0.1674  -19.1827  -40.7134 H         1 UNK         0.0600 
    163 H163        1.6406  -18.4236  -40.1312 H         1 UNK         0.0600 
    164 H164        2.2030  -15.9353  -42.0543 H         1 UNK         0.3000 
    165 H165        5.2766  -17.0032  -43.3369 H         1 UNK         0.0600 
    166 H166        3.2218  -15.4163  -44.9703 H         1 UNK         0.0600 
    167 H167        4.9703  -15.3144  -45.1515 H         1 UNK         0.0600 
    168 H168        4.1317  -16.8090  -45.5369 H         1 UNK         0.0600 
    169 H169        4.1843  -14.3866  -42.9355 H         1 UNK         0.3000 
    170 H170        5.2086  -14.1341  -39.5031 H         1 UNK         0.0600 
    171 H171        7.2227  -13.7730  -40.9174 H         1 UNK         0.0600 
    172 H172        6.2505  -12.9472  -42.1307 H         1 UNK         0.0600 
    173 H173        6.4497  -12.2441  -40.5269 H         1 UNK         0.0600 
    174 H174        3.7608  -12.7704  -41.7458 H         1 UNK         0.3000 
    175 H175        0.8701  -12.3510  -39.7902 H         1 UNK         0.0600 
    176 H176        2.8271  -10.1017  -40.5096 H         1 UNK         0.0600 
    177 H177        1.0978   -9.9160  -40.2127 H         1 UNK         0.0600 
    178 H178        2.1661  -10.4038  -38.9072 H         1 UNK         0.0600 
    179 H179        1.6168  -11.2682  -42.3245 H         1 UNK         0.3000 
    180 H180        1.0845  -14.1410  -44.2931 H         1 UNK         0.0600 
    181 H181       -1.2814  -13.4711  -43.7979 H         1 UNK         0.0600 
    182 H182       -0.7426  -12.8611  -45.3534 H         1 UNK         0.0600 
    183 H183       -0.8359  -11.7771  -43.9666 H         1 UNK         0.0600 
    184 H184        1.3490  -11.6585  -45.3321 H         1 UNK         0.3000 
    185 H185        3.7274  -10.3424  -45.3394 H         1 UNK         0.0600 
    186 H186        5.8457  -11.4741  -44.8001 H         1 UNK         0.0600 
    187 H187        5.5212  -12.7512  -45.9612 H         1 UNK         0.0600 
    188 H188        5.8123  -11.1031  -46.5165 H         1 UNK         0.0600 
    189 H189        2.6759  -10.6922  -47.2689 H         1 UNK         0.3000 
    190 H190       -1.5609  -20.6689  -47.2185 H         1 UNK         0.3000 
    191 H191       -1.6449  -22.0562  -49.6615 H         1 UNK         0.0600 
    192 H192       -3.7163  -20.7342  -50.0405 H         1 UNK         0.0600 
    193 H193       -2.4639  -19.7349  -49.3311 H         1 UNK         0.0600 
    194 H194       -3.7905  -20.3205  -48.3291 H         1 UNK         0.0600 
    195 H195       -3.6062  -22.5234  -46.6817 H         1 UNK         0.3000 
    196 H196       -5.3689  -24.4838  -47.7485 H         1 UNK         0.0600 
    197 H197       -5.8310  -25.0004  -45.3515 H         1 UNK         0.0600 
    198 H198       -5.8469  -23.2697  -45.6529 H         1 UNK         0.0600 
    199 H199       -4.4588  -24.0146  -44.8629 H         1 UNK         0.0600 
    200 H200       -2.2382  -24.8331  -45.9995 H         1 UNK         0.3000 
    201 H201       -2.1594  -27.6765  -46.0315 H         1 UNK         0.0600 
    202 H202       -0.8059  -26.3094  -44.4780 H         1 UNK         0.0600 
    203 H203        0.1009  -25.6170  -45.8206 H         1 UNK         0.0600 
    204 H204        0.2498  -27.3302  -45.4433 H         1 UNK         0.0600 
    205 H205       -0.8653  -25.2428  -48.3137 H         1 UNK         0.3000 
    206 H206        0.3871  -27.1317  -50.0905 H         1 UNK         0.0600 
    207 H207        1.0936  -24.7543  -49.9018 H         1 UNK         0.0600 
    208 H208        0.6084  -25.1105  -51.5518 H         1 UNK         0.0600 
    209 H209       -0.4755  -24.2143  -50.4942 H         1 UNK         0.0600 
    210 H210       -2.8906  -26.2587  -49.6455 H         1 UNK         0.3000 
    211 H211       -4.8220  -26.5628  -50.6409 H         1 UNK         0.0600 
    212 H212       -3.4953  -28.3770  -52.7216 H         1 UNK         0.0600 
    213 H213       -5.2060  -28.2832  -52.3382 H         1 UNK         0.0600 
    214 H214       -4.0807  -28.9122  -51.1459 H         1 UNK         0.0600 
    215 H215       -2.8080  -24.5218  -51.4711 H         1 UNK         0.3000 
    216 H216       -3.5492  -23.6840  -54.1860 H         1 UNK         0.0600 
    217 H217       -1.8964  -21.9261  -53.7902 H         1 UNK         0.0600 
    218 H218       -1.2037  -23.4471  -53.2680 H         1 UNK         0.0600 
    219 H219       -1.8113  -22.3042  -52.0715 H         1 UNK         0.0600 
    220 H220       -4.7548  -23.3015  -50.9789 H         1 UNK         0.3000 
    221 H221       -6.1180  -20.8064  -51.1889 H         1 UNK         0.0600 
    222 H222       -6.7484  -23.3400  -49.5808 H         1 UNK         0.0600 
    223 H223       -5.8673  -21.9177  -49.0201 H         1 UNK         0.0600 
    224 H224       -7.5783  -21.8028  -49.3705 H         1 UNK         0.0600 
    225 H225       -6.8847  -24.0252  -52.4585 H         1 UNK         0.3000 
    226 H226       -9.6050  -23.4815  -53.2329 H         1 UNK         0.0600 
    227 H227       -8.7241  -25.7904  -52.9082 H         1 UNK         0.0600 
    228 H228       -9.3420  -25.5828  -54.5396 H         1 UNK         0.0600 
    229 H229       -7.6064  -25.5718  -54.2549 H         1 UNK         0.0600 
    230 H230       -6.4616  -22.8476  -54.6844 H         1 UNK         0.3000 
    231 H231       -7.5611  -21.9991  -57.2860 H         1 UNK         0.0600 
    232 H232       -5.1806  -21.6035  -57.8306 H         1 UNK         0.0600 
    233 H233       -5.3775  -23.2186  -57.1704 H         1 UNK         0.0600 
    234 H234       -4.7037  -21.9312  -56.1716 H         1 UNK         0.0600 
    235 H235       -7.2153  -20.6907  -54.1969 H         1 UNK         0.3000 
    236 H236       -7.2918  -18.7262  -53.2076 H         1 UNK         0.0600 
    237 H237       -9.3781  -18.4307  -54.5320 H         1 UNK         0.0600 
    238 H238       -8.5800  -16.8910  -54.2542 H         1 UNK         0.0600 
    239 H239       -8.4684  -17.6608  -55.8308 H         1 UNK         0.0600 
    240 H240       -4.8229  -19.3210  -53.7270 H         1 UNK         0.3000 
    241 H241       -3.4036  -17.6311  -55.4409 H         1 UNK         0.0600 
    242 H242       -4.6384  -16.5598  -52.3839 H         1 UNK         0.3800 
    243 H243       -3.6145  -15.1520  -52.2726 H         1 UNK         0.3800 
    244 H244       -2.6634  -19.8866  -54.5745 H         1 UNK         0.0800 
    245 H245       -1.4556  -18.6582  -54.7324 H         1 UNK         0.0800 
    246 H246        0.3451  -18.7813  -53.3723 H         1 UNK         0.0800 
    247 H247        0.1215  -20.4781  -53.0430 H         1 UNK         0.0800 
@<TRIPOS>BOND
     1    1    2 1    
     2    1  127 1    
     3    1  128 1    
     4    1  129 1    
     5    2    3 2    
     6    2    4 am   BACKBONE|DICT|INTERRES
     7    4    5 1    
     8    4  130 1    
     9    5    6 1    
    10    5   65 1    
    11    5  131 1    
    12    6    7 1    
    13    6  132 1    
    14    6  133 1    
    15    7    8 1    
    16    8    9 1    
    17    8  134 1    
    18    8  135 1    
    19    9   10 ar   
    20    9   14 ar   
    21   10   11 ar   
    22   10  136 1    
    23   11   12 ar   
    24   11  126 1    
    25   12   13 ar   
    26   12  137 1    
    27   13   14 ar   
    28   13   15 1    
    29   14  138 1    
    30   15   16 1    
    31   15  139 1    
    32   15  140 1    
    33   16   17 1    
    34   17   18 1    
    35   17  141 1    
    36   17  142 1    
    37   18   19 1    
    38   18   67 1    
    39   18  143 1    
    40   19   20 am   BACKBONE|DICT|INTERRES
    41   19  144 1    
    42   20   21 2    
    43   20   22 1    
    44   22   23 1    
    45   22   24 1    
    46   22  145 1    
    47   23  146 1    
    48   23  147 1    
    49   23  148 1    
    50   24   25 am   BACKBONE|DICT|INTERRES
    51   24  149 1    
    52   25   26 2    
    53   25   27 1    
    54   27   28 1    
    55   27   29 1    
    56   27  150 1    
    57   28  151 1    
    58   28  152 1    
    59   28  153 1    
    60   29   30 am   BACKBONE|DICT|INTERRES
    61   29  154 1    
    62   30   31 2    
    63   30   32 1    
    64   32   33 1    
    65   32   34 1    
    66   32  155 1    
    67   33  156 1    
    68   33  157 1    
    69   33  158 1    
    70   34   35 am   BACKBONE|DICT|INTERRES
    71   34  159 1    
    72   35   36 2    
    73   35   37 1    
    74   37   38 1    
    75   37   39 1    
    76   37  160 1    
    77   38  161 1    
    78   38  162 1    
    79   38  163 1    
    80   39   40 am   BACKBONE|DICT|INTERRES
    81   39  164 1    
    82   40   41 2    
    83   40   42 1    
    84   42   43 1    
    85   42   44 1    
    86   42  165 1    
    87   43  166 1    
    88   43  167 1    
    89   43  168 1    
    90   44   45 am   BACKBONE|DICT|INTERRES
    91   44  169 1    
    92   45   46 2    
    93   45   47 1    
    94   47   48 1    
    95   47   49 1    
    96   47  170 1    
    97   48  171 1    
    98   48  172 1    
    99   48  173 1    
   100   49   50 am   BACKBONE|DICT|INTERRES
   101   49  174 1    
   102   50   51 2    
   103   50   52 1    
   104   52   53 1    
   105   52   54 1    
   106   52  175 1    
   107   53  176 1    
   108   53  177 1    
   109   53  178 1    
   110   54   55 am   BACKBONE|DICT|INTERRES
   111   54  179 1    
   112   55   56 2    
   113   55   57 1    
   114   57   58 1    
   115   57   59 1    
   116   57  180 1    
   117   58  181 1    
   118   58  182 1    
   119   58  183 1    
   120   59   60 am   BACKBONE|DICT|INTERRES
   121   59  184 1    
   122   60   61 2    
   123   60   62 1    
   124   62   63 1    
   125   62   64 1    
   126   62  185 1    
   127   63  186 1    
   128   63  187 1    
   129   63  188 1    
   130   64   65 am   BACKBONE|DICT|INTERRES
   131   64  189 1    
   132   65   66 2    
   133   67   68 2    
   134   67   69 am   BACKBONE|DICT|INTERRES
   135   69   70 1    
   136   69  190 1    
   137   70   71 1    
   138   70   72 1    
   139   70  191 1    
   140   71  192 1    
   141   71  193 1    
   142   71  194 1    
   143   72   73 2    
   144   72   74 am   BACKBONE|DICT|INTERRES
   145   74   75 1    
   146   74  195 1    
   147   75   76 1    
   148   75   77 1    
   149   75  196 1    
   150   76  197 1    
   151   76  198 1    
   152   76  199 1    
   153   77   78 2    
   154   77   79 am   BACKBONE|DICT|INTERRES
   155   79   80 1    
   156   79  200 1    
   157   80   81 1    
   158   80   82 1    
   159   80  201 1    
   160   81  202 1    
   161   81  203 1    
   162   81  204 1    
   163   82   83 2    
   164   82   84 am   BACKBONE|DICT|INTERRES
   165   84   85 1    
   166   84  205 1    
   167   85   86 1    
   168   85   87 1    
   169   85  206 1    
   170   86  207 1    
   171   86  208 1    
   172   86  209 1    
   173   87   88 2    
   174   87   89 am   BACKBONE|DICT|INTERRES
   175   89   90 1    
   176   89  210 1    
   177   90   91 1    
   178   90   92 1    
   179   90  211 1    
   180   91  212 1    
   181   91  213 1    
   182   91  214 1    
   183   92   93 2    
   184   92   94 am   BACKBONE|DICT|INTERRES
   185   94   95 1    
   186   94  215 1    
   187   95   96 1    
   188   95   97 1    
   189   95  216 1    
   190   96  217 1    
   191   96  218 1    
   192   96  219 1    
   193   97   98 2    
   194   97   99 am   BACKBONE|DICT|INTERRES
   195   99  100 1    
   196   99  220 1    
   197  100  101 1    
   198  100  102 1    
   199  100  221 1    
   200  101  222 1    
   201  101  223 1    
   202  101  224 1    
   203  102  103 2    
   204  102  104 am   BACKBONE|DICT|INTERRES
   205  104  105 1    
   206  104  225 1    
   207  105  106 1    
   208  105  107 1    
   209  105  226 1    
   210  106  227 1    
   211  106  228 1    
   212  106  229 1    
   213  107  108 2    
   214  107  109 am   BACKBONE|DICT|INTERRES
   215  109  110 1    
   216  109  230 1    
   217  110  111 1    
   218  110  112 1    
   219  110  231 1    
   220  111  232 1    
   221  111  233 1    
   222  111  234 1    
   223  112  113 2    
   224  112  114 am   BACKBONE|DICT|INTERRES
   225  114  115 1    
   226  114  235 1    
   227  115  116 1    
   228  115  117 1    
   229  115  236 1    
   230  116  237 1    
   231  116  238 1    
   232  116  239 1    
   233  117  118 2    
   234  117  119 am   BACKBONE|DICT|INTERRES
   235  119  120 1    
   236  119  240 1    
   237  120  121 1    
   238  120  124 1    
   239  120  241 1    
   240  121  122 am   BACKBONE|DICT|INTERRES
   241  121  123 2    
   242  122  242 1    
   243  122  243 1    
   244  124  125 1    
   245  124  244 1    
   246  124  245 1    
   247  125  126 1    
   248  126  246 1    
   249  126  247 1    
@<TRIPOS>SUBSTRUCTURE
     1 UNK         1 GROUP             0       ****    0 ROOT    
