@<TRIPOS>MOLECULE
3R540
247   249    1
SMALL
USER_CHARGES


@<TRIPOS>ATOM
      1 CA         -0.1100  -12.4281  -46.3438 C.3       0 UNK        -0.1800 
      2 C           0.3954  -11.9374  -47.6928 C.2       0 UNK         0.5000 
      3 O           0.1578  -10.7873  -48.0632 O.2       0 UNK        -0.5000 
      4 N           1.1149  -12.7974  -48.4230 N.am      1 UNK        -0.5000 
      5 CA          1.6899  -12.5292  -49.7486 C.3       1 UNK         0.1400 
      6 C6          1.8577  -13.8316  -50.5759 C.3       23 UNK        -0.0398 
      7 S7          0.2903  -14.7113  -50.8964 S.3       23 UNK        -0.2404 
      8 C8          0.2013  -15.8126  -49.4503 C.3       23 UNK        -0.0205 
      9 C9         -0.5402  -17.0964  -49.7734 C.ar      23 UNK        -0.0193 
     10 C10        -1.9329  -17.1518  -49.6847 C.ar      23 UNK        -0.1150 
     11 C11        -2.6132  -18.3394  -49.9688 C.ar      23 UNK        -0.0193 
     12 C12        -1.8873  -19.4819  -50.3145 C.ar      23 UNK        -0.1150 
     13 C13        -0.4932  -19.4413  -50.3988 C.ar      23 UNK        -0.0193 
     14 C14         0.1729  -18.2392  -50.1421 C.ar      23 UNK        -0.1150 
     15 C15         0.2819  -20.7058  -50.7478 C.3       23 UNK        -0.0205 
     16 S16         1.6804  -21.0598  -49.6250 S.3       23 UNK        -0.2404 
     17 C17         0.9784  -20.7820  -47.9605 C.3       23 UNK        -0.0398 
     18 CA          0.4401  -22.0619  -47.2869 C.3       11 UNK         0.1400 
     19 N           0.4052  -21.9222  -45.8299 N.am      11 UNK        -0.5000 
     20 C           0.1274  -22.9098  -44.9695 C.2       10 UNK         0.5000 
     21 O          -0.0913  -24.0708  -45.3153 O.2       10 UNK        -0.5000 
     22 CA          0.0136  -22.5181  -43.4850 C.3       10 UNK         0.1400 
     23 CB          1.4015  -22.3868  -42.8406 C.3       10 UNK        -0.1800 
     24 N          -0.7379  -21.2746  -43.3025 N.am      10 UNK        -0.5000 
     25 C          -2.0420  -21.1380  -43.5839 C.2       9 UNK         0.5000 
     26 O          -2.7611  -22.0700  -43.9432 O.2       9 UNK        -0.5000 
     27 CA         -2.6372  -19.7209  -43.4862 C.3       9 UNK         0.1400 
     28 CB         -3.0284  -19.3948  -42.0375 C.3       9 UNK        -0.1800 
     29 N          -1.7422  -18.6834  -44.0039 N.am      9 UNK        -0.5000 
     30 C          -1.3427  -18.5896  -45.2805 C.2       8 UNK         0.5000 
     31 O          -1.7117  -19.3582  -46.1650 O.2       8 UNK        -0.5000 
     32 CA         -0.3154  -17.4938  -45.6203 C.3       8 UNK         0.1400 
     33 CB         -0.9971  -16.1313  -45.8011 C.3       8 UNK        -0.1800 
     34 N           0.7469  -17.3894  -44.6189 N.am      8 UNK        -0.5000 
     35 C           1.6159  -18.3720  -44.3398 C.2       7 UNK         0.5000 
     36 O           1.6498  -19.4467  -44.9383 O.2       7 UNK        -0.5000 
     37 CA          2.5600  -18.1415  -43.1490 C.3       7 UNK         0.1400 
     38 CB          3.7635  -17.2738  -43.5500 C.3       7 UNK        -0.1800 
     39 N           1.8564  -17.5357  -42.0185 N.am      7 UNK        -0.5000 
     40 C           0.9371  -18.1732  -41.2783 C.2       6 UNK         0.5000 
     41 O           0.6230  -19.3515  -41.4461 O.2       6 UNK        -0.5000 
     42 CA          0.2205  -17.3440  -40.1960 C.3       6 UNK         0.1400 
     43 CB          1.0427  -17.3240  -38.8990 C.3       6 UNK        -0.1800 
     44 N          -0.0450  -15.9690  -40.6214 N.am      6 UNK        -0.5000 
     45 C          -0.8821  -15.6261  -41.6114 C.2       5 UNK         0.5000 
     46 O          -1.5622  -16.4351  -42.2393 O.2       5 UNK        -0.5000 
     47 CA         -0.9239  -14.1365  -42.0015 C.3       5 UNK         0.1400 
     48 CB         -1.9893  -13.3923  -41.1837 C.3       5 UNK        -0.1800 
     49 N           0.3707  -13.4695  -41.8385 N.am      5 UNK        -0.5000 
     50 C           1.4726  -13.7839  -42.5312 C.2       4 UNK         0.5000 
     51 O           1.5081  -14.6652  -43.3945 O.2       4 UNK        -0.5000 
     52 CA          2.7613  -13.0427  -42.1291 C.3       4 UNK         0.1400 
     53 CB          3.4860  -13.8188  -41.0176 C.3       4 UNK        -0.1800 
     54 N           3.6795  -12.8669  -43.2535 N.am      4 UNK        -0.5000 
     55 C           3.4309  -12.1038  -44.3236 C.2       3 UNK         0.5000 
     56 O           2.4171  -11.4101  -44.4494 O.2       3 UNK        -0.5000 
     57 CA          4.4920  -12.1202  -45.4356 C.3       3 UNK         0.1400 
     58 CB          4.6692  -13.5328  -46.0271 C.3       3 UNK        -0.1800 
     59 N           4.0671  -11.2108  -46.4911 N.am      3 UNK        -0.5000 
     60 C           4.8476  -10.5676  -47.3651 C.2       2 UNK         0.5000 
     61 O           6.0794  -10.6046  -47.3438 O.2       2 UNK        -0.5000 
     62 CA          4.0932   -9.7900  -48.4678 C.3       2 UNK         0.1400 
     63 CB          5.0093   -9.2897  -49.6045 C.3       2 UNK        -0.1800 
     64 N           2.9659  -10.5742  -48.9939 N.am      2 UNK        -0.5000 
     65 C           3.0304  -11.7784  -49.5844 C.2       1 UNK         0.5000 
     66 O           4.0846  -12.3197  -49.9225 O.2       1 UNK        -0.5000 
     67 C          -0.9302  -22.4855  -47.8594 C.2       11 UNK         0.5000 
     68 O          -0.9768  -23.3755  -48.7039 O.2       11 UNK        -0.5000 
     69 N          -2.0206  -21.9006  -47.3450 N.am      12 UNK        -0.5000 
     70 CA         -3.4055  -22.2284  -47.6952 C.3       12 UNK         0.1400 
     71 CB         -4.3371  -21.1791  -47.0687 C.3       12 UNK        -0.1800 
     72 C          -3.8526  -23.6427  -47.2706 C.2       12 UNK         0.5000 
     73 O          -4.8461  -24.1417  -47.8034 O.2       12 UNK        -0.5000 
     74 N          -3.1371  -24.2512  -46.3151 N.am      13 UNK        -0.5000 
     75 CA         -3.3216  -25.6379  -45.8954 C.3       13 UNK         0.1400 
     76 CB         -2.9981  -25.7704  -44.3994 C.3       13 UNK        -0.1800 
     77 C          -2.4548  -26.5930  -46.7349 C.2       13 UNK         0.5000 
     78 O          -2.9166  -27.6844  -47.0670 O.2       13 UNK        -0.5000 
     79 N          -1.2269  -26.1701  -47.0734 N.am      14 UNK        -0.5000 
     80 CA         -0.2973  -26.9000  -47.9395 C.3       14 UNK         0.1400 
     81 CB          1.0914  -26.2450  -47.8731 C.3       14 UNK        -0.1800 
     82 C          -0.8087  -26.9813  -49.3896 C.2       14 UNK         0.5000 
     83 O          -0.9258  -28.0764  -49.9412 O.2       14 UNK        -0.5000 
     84 N          -1.1696  -25.8231  -49.9537 N.am      15 UNK        -0.5000 
     85 CA         -1.9438  -25.6781  -51.1812 C.3       15 UNK         0.1400 
     86 CB         -1.4918  -24.3998  -51.9092 C.3       15 UNK        -0.1800 
     87 C          -3.4248  -25.6470  -50.7687 C.2       15 UNK         0.5000 
     88 O          -4.0359  -24.5771  -50.7270 O.2       15 UNK        -0.5000 
     89 N          -3.9168  -26.8319  -50.3799 N.am      16 UNK        -0.5000 
     90 CA         -5.1626  -27.0900  -49.6581 C.3       16 UNK         0.1400 
     91 CB         -5.3893  -28.6082  -49.5953 C.3       16 UNK        -0.1800 
     92 C          -6.4094  -26.3869  -50.2201 C.2       16 UNK         0.5000 
     93 O          -6.5887  -26.3209  -51.4384 O.2       16 UNK        -0.5000 
     94 N          -7.2530  -25.9105  -49.2942 N.am      17 UNK        -0.5000 
     95 CA         -8.4791  -25.1407  -49.5211 C.3       17 UNK         0.1400 
     96 CB         -9.5303  -25.9724  -50.2871 C.3       17 UNK        -0.1800 
     97 C          -8.2100  -23.7595  -50.1548 C.2       17 UNK         0.5000 
     98 O          -9.0453  -23.2645  -50.9136 O.2       17 UNK        -0.5000 
     99 N          -7.0596  -23.1593  -49.8066 N.am      18 UNK        -0.5000 
    100 CA        -6.5789  -21.8495  -50.2557 C.3       18 UNK         0.1400 
    101 CB        -7.4690  -20.7199  -49.6945 C.3       18 UNK        -0.1800 
    102 C         -6.3922  -21.7846  -51.7846 C.2       18 UNK         0.5000 
    103 O         -6.9961  -20.9467  -52.4578 O.2       18 UNK        -0.5000 
    104 N         -5.5618  -22.6960  -52.2999 N.am      19 UNK        -0.5000 
    105 CA        -5.0790  -22.6973  -53.6774 C.3       19 UNK         0.1400 
    106 CB        -4.9528  -24.1600  -54.1425 C.3       19 UNK        -0.1800 
    107 C         -3.7408  -21.9332  -53.7763 C.2       19 UNK         0.5000 
    108 O         -3.2890  -21.3360  -52.7973 O.2       19 UNK        -0.5000 
    109 N         -3.1200  -21.9819  -54.9623 N.am      20 UNK        -0.5000 
    110 CA        -1.8404  -21.3579  -55.3099 C.3       20 UNK         0.1400 
    111 CB        -0.6783  -21.9377  -54.4693 C.3       20 UNK        -0.1800 
    112 C         -1.9247  -19.8165  -55.3265 C.2       20 UNK         0.5000 
    113 O         -2.7910  -19.2798  -56.0198 O.2       20 UNK        -0.5000 
    114 N         -1.0033  -19.1364  -54.6285 N.am      21 UNK        -0.5000 
    115 CA        -0.7099  -17.7025  -54.7436 C.3       21 UNK         0.1400 
    116 CB         0.4433  -17.3485  -53.7939 C.3       21 UNK        -0.1800 
    117 C         -1.8975  -16.7454  -54.5246 C.2       21 UNK         0.5000 
    118 O         -1.9349  -15.6894  -55.1584 O.2       21 UNK        -0.5000 
    119 N         -2.8458  -17.1252  -53.6608 N.am      22 UNK        -0.5000 
    120 CA        -4.1015  -16.3891  -53.4401 C.3       22 UNK         0.1400 
    121 C         -5.2006  -16.6284  -54.5204 C.2       22 UNK         0.5000 
    122 N         -5.0148  -17.5127  -55.4936 N.am      22 UNK        -0.7600 
    123 O         -6.2408  -15.9758  -54.4902 O.2       22 UNK        -0.5000 
    124 C124       -4.6406  -16.5706  -51.9986 C.3       23 UNK        -0.0398 
    125 S125       -4.9106  -18.3133  -51.5279 S.3       23 UNK        -0.2404 
    126 C126       -4.1301  -18.3993  -49.8876 C.3       23 UNK        -0.0205 
    127 H127       -0.1965  -11.5967  -45.6441 H         1 UNK         0.0600 
    128 H128        0.5723  -13.1576  -45.9068 H         1 UNK         0.0600 
    129 H129       -1.0922  -12.8881  -46.4517 H         1 UNK         0.0600 
    130 H130        1.3137  -13.7113  -48.0459 H         1 UNK         0.3000 
    131 H131        1.0167  -11.8714  -50.3028 H         1 UNK         0.0600 
    132 H132        2.2892  -13.5957  -51.5503 H         1 UNK         0.0800 
    133 H133        2.5653  -14.5117  -50.0987 H         1 UNK         0.0800 
    134 H134       -0.3029  -15.2905  -48.6368 H         1 UNK         0.0800 
    135 H135        1.2017  -16.0545  -49.0890 H         1 UNK         0.0800 
    136 H136       -2.4848  -16.2677  -49.3989 H         1 UNK         0.1150 
    137 H137       -2.4130  -20.4044  -50.5177 H         1 UNK         0.1150 
    138 H138        1.2508  -18.1994  -50.2107 H         1 UNK         0.1150 
    139 H139       -0.3825  -21.5705  -50.7548 H         1 UNK         0.0800 
    140 H140        0.6691  -20.6083  -51.7621 H         1 UNK         0.0800 
    141 H141        0.2289  -19.9916  -47.9585 H         1 UNK         0.0800 
    142 H142        1.8050  -20.3866  -47.3699 H         1 UNK         0.0800 
    143 H143        1.1428  -22.8709  -47.4962 H         1 UNK         0.0600 
    144 H144        0.6142  -20.9992  -45.4596 H         1 UNK         0.3000 
    145 H145       -0.5246  -23.3171  -42.9706 H         1 UNK         0.0600 
    146 H146        1.3210  -22.1748  -41.7743 H         1 UNK         0.0600 
    147 H147        1.9700  -23.3114  -42.9472 H         1 UNK         0.0600 
    148 H148        1.9860  -21.5871  -43.2956 H         1 UNK         0.0600 
    149 H149       -0.2232  -20.4739  -42.9516 H         1 UNK         0.3000 
    150 H150       -3.5454  -19.7033  -44.0919 H         1 UNK         0.0600 
    151 H151       -3.7150  -20.1434  -41.6403 H         1 UNK         0.0600 
    152 H152       -3.5285  -18.4283  -41.9722 H         1 UNK         0.0600 
    153 H153       -2.1580  -19.3667  -41.3820 H         1 UNK         0.0600 
    154 H154       -1.4477  -17.9680  -43.3445 H         1 UNK         0.3000 
    155 H155        0.1506  -17.7632  -46.5707 H         1 UNK         0.0600 
    156 H156       -1.4793  -15.7931  -44.8843 H         1 UNK         0.0600 
    157 H157       -1.7621  -16.1787  -46.5772 H         1 UNK         0.0600 
    158 H158       -0.2745  -15.3739  -46.0997 H         1 UNK         0.0600 
    159 H159        0.8091  -16.5224  -44.0965 H         1 UNK         0.3000 
    160 H160        2.9396  -19.1149  -42.8306 H         1 UNK         0.0600 
    161 H161        4.4427  -17.1288  -42.7099 H         1 UNK         0.0600 
    162 H162        3.4606  -16.2911  -43.9102 H         1 UNK         0.0600 
    163 H163        4.3330  -17.7499  -44.3491 H         1 UNK         0.0600 
    164 H164        2.0146  -16.5523  -41.8594 H         1 UNK         0.3000 
    165 H165       -0.7371  -17.8251  -39.9865 H         1 UNK         0.0600 
    166 H166        0.5097  -16.8047  -38.1023 H         1 UNK         0.0600 
    167 H167        1.2418  -18.3375  -38.5481 H         1 UNK         0.0600 
    168 H168        2.0050  -16.8294  -39.0379 H         1 UNK         0.0600 
    169 H169        0.4681  -15.2383  -40.1515 H         1 UNK         0.3000 
    170 H170       -1.2006  -14.0785  -43.0563 H         1 UNK         0.0600 
    171 H171       -2.9686  -13.8575  -41.3045 H         1 UNK         0.0600 
    172 H172       -1.7546  -13.3931  -40.1185 H         1 UNK         0.0600 
    173 H173       -2.0818  -12.3554  -41.5072 H         1 UNK         0.0600 
    174 H174        0.4176  -12.7406  -41.1409 H         1 UNK         0.3000 
    175 H175        2.4941  -12.0536  -41.7509 H         1 UNK         0.0600 
    176 H176        3.7918  -14.8112  -41.3517 H         1 UNK         0.0600 
    177 H177        4.3784  -13.2885  -40.6845 H         1 UNK         0.0600 
    178 H178        2.8450  -13.9489  -40.1447 H         1 UNK         0.0600 
    179 H179        4.5209  -13.4236  -43.2347 H         1 UNK         0.3000 
    180 H180        5.4359  -11.7731  -45.0103 H         1 UNK         0.0600 
    181 H181        3.7278  -13.9243  -46.4151 H         1 UNK         0.0600 
    182 H182        5.0349  -14.2368  -45.2791 H         1 UNK         0.0600 
    183 H183        5.3902  -13.5314  -46.8450 H         1 UNK         0.0600 
    184 H184        3.0673  -11.0589  -46.5172 H         1 UNK         0.3000 
    185 H185        3.6609   -8.9130  -47.9839 H         1 UNK         0.0600 
    186 H186        5.7644   -8.6031  -49.2202 H         1 UNK         0.0600 
    187 H187        5.5355  -10.1077  -50.0969 H         1 UNK         0.0600 
    188 H188        4.4390   -8.7530  -50.3625 H         1 UNK         0.0600 
    189 H189        2.0412  -10.2487  -48.7300 H         1 UNK         0.3000 
    190 H190       -1.8944  -21.1203  -46.7039 H         1 UNK         0.3000 
    191 H191       -3.4903  -22.1703  -48.7820 H         1 UNK         0.0600 
    192 H192       -4.3313  -21.2404  -45.9807 H         1 UNK         0.0600 
    193 H193       -5.3672  -21.3213  -47.3952 H         1 UNK         0.0600 
    194 H194       -4.0410  -20.1670  -47.3403 H         1 UNK         0.0600 
    195 H195       -2.3664  -23.7473  -45.8970 H         1 UNK         0.3000 
    196 H196       -4.3664  -25.9237  -46.0346 H         1 UNK         0.0600 
    197 H197       -3.1845  -26.7868  -44.0507 H         1 UNK         0.0600 
    198 H198       -3.6188  -25.1016  -43.8027 H         1 UNK         0.0600 
    199 H199       -1.9557  -25.5373  -44.1837 H         1 UNK         0.0600 
    200 H200       -0.9008  -25.2834  -46.7045 H         1 UNK         0.3000 
    201 H201       -0.2094  -27.9188  -47.5566 H         1 UNK         0.0600 
    202 H202        1.4704  -26.2285  -46.8510 H         1 UNK         0.0600 
    203 H203        1.0739  -25.2181  -48.2382 H         1 UNK         0.0600 
    204 H204        1.8111  -26.7962  -48.4795 H         1 UNK         0.0600 
    205 H205       -1.0698  -24.9651  -49.4096 H         1 UNK         0.3000 
    206 H206       -1.7752  -26.5288  -51.8447 H         1 UNK         0.0600 
    207 H207       -1.9915  -24.3054  -52.8720 H         1 UNK         0.0600 
    208 H208       -1.7158  -23.5002  -51.3350 H         1 UNK         0.0600 
    209 H209       -0.4190  -24.4123  -52.1010 H         1 UNK         0.0600 
    210 H210       -3.2941  -27.6247  -50.4481 H         1 UNK         0.3000 
    211 H211       -5.0030  -26.7313  -48.6403 H         1 UNK         0.0600 
    212 H212       -5.4934  -29.0387  -50.5921 H         1 UNK         0.0600 
    213 H213       -6.2954  -28.8477  -49.0372 H         1 UNK         0.0600 
    214 H214       -4.5605  -29.1107  -49.0956 H         1 UNK         0.0600 
    215 H215       -6.9905  -26.0129  -48.3235 H         1 UNK         0.3000 
    216 H216       -8.8897  -24.9357  -48.5314 H         1 UNK         0.0600 
    217 H217      -10.4941  -25.4623  -50.3037 H         1 UNK         0.0600 
    218 H218       -9.6867  -26.9425  -49.8153 H         1 UNK         0.0600 
    219 H219       -9.2373  -26.1453  -51.3228 H         1 UNK         0.0600 
    220 H220       -6.4188  -23.6722  -49.2095 H         1 UNK         0.3000 
    221 H221       -5.5847  -21.7231  -49.8282 H         1 UNK         0.0600 
    222 H222       -7.0570  -19.7410  -49.9389 H         1 UNK         0.0600 
    223 H223       -8.4797  -20.7560  -50.1015 H         1 UNK         0.0600 
    224 H224       -7.5431  -20.7780  -48.6089 H         1 UNK         0.0600 
    225 H225       -5.0867  -23.3397  -51.6697 H         1 UNK         0.3000 
    226 H226       -5.7976  -22.1932  -54.3265 H         1 UNK         0.0600 
    227 H227       -4.6909  -24.2258  -55.1986 H         1 UNK         0.0600 
    228 H228       -4.1936  -24.7007  -53.5792 H         1 UNK         0.0600 
    229 H229       -5.8958  -24.6923  -54.0141 H         1 UNK         0.0600 
    230 H230       -3.5811  -22.4611  -55.7223 H         1 UNK         0.3000 
    231 H231       -1.6482  -21.6428  -56.3452 H         1 UNK         0.0600 
    232 H232       -0.6352  -23.0223  -54.5672 H         1 UNK         0.0600 
    233 H233       -0.7778  -21.7077  -53.4091 H         1 UNK         0.0600 
    234 H234        0.2855  -21.5539  -54.8058 H         1 UNK         0.0600 
    235 H235       -0.3610  -19.6701  -54.0627 H         1 UNK         0.3000 
    236 H236       -0.3604  -17.5393  -55.7649 H         1 UNK         0.0600 
    237 H237        1.3293  -17.9500  -53.9971 H         1 UNK         0.0600 
    238 H238        0.7302  -16.3012  -53.8982 H         1 UNK         0.0600 
    239 H239        0.1593  -17.5039  -52.7546 H         1 UNK         0.0600 
    240 H240       -2.7599  -18.0140  -53.1874 H         1 UNK         0.3000 
    241 H241       -3.8684  -15.3263  -53.5294 H         1 UNK         0.0600 
    242 H242       -4.1622  -18.0628  -55.5573 H         1 UNK         0.3800 
    243 H243       -5.7366  -17.6409  -56.1842 H         1 UNK         0.3800 
    244 H244       -3.9408  -16.1099  -51.3031 H         1 UNK         0.0800 
    245 H245       -5.5769  -16.0273  -51.8616 H         1 UNK         0.0800 
    246 H246       -4.5199  -17.6047  -49.2496 H         1 UNK         0.0800 
    247 H247       -4.4286  -19.3389  -49.4248 H         1 UNK         0.0800 
@<TRIPOS>BOND
     1    1    2 1    
     2    1  127 1    
     3    1  128 1    
     4    1  129 1    
     5    2    3 2    
     6    2    4 am   BACKBONE|DICT|INTERRES
     7    4    5 1    
     8    4  130 1    
     9    5    6 1    
    10    5   65 1    
    11    5  131 1    
    12    6    7 1    
    13    6  132 1    
    14    6  133 1    
    15    7    8 1    
    16    8    9 1    
    17    8  134 1    
    18    8  135 1    
    19    9   10 ar   
    20    9   14 ar   
    21   10   11 ar   
    22   10  136 1    
    23   11   12 ar   
    24   11  126 1    
    25   12   13 ar   
    26   12  137 1    
    27   13   14 ar   
    28   13   15 1    
    29   14  138 1    
    30   15   16 1    
    31   15  139 1    
    32   15  140 1    
    33   16   17 1    
    34   17   18 1    
    35   17  141 1    
    36   17  142 1    
    37   18   19 1    
    38   18   67 1    
    39   18  143 1    
    40   19   20 am   BACKBONE|DICT|INTERRES
    41   19  144 1    
    42   20   21 2    
    43   20   22 1    
    44   22   23 1    
    45   22   24 1    
    46   22  145 1    
    47   23  146 1    
    48   23  147 1    
    49   23  148 1    
    50   24   25 am   BACKBONE|DICT|INTERRES
    51   24  149 1    
    52   25   26 2    
    53   25   27 1    
    54   27   28 1    
    55   27   29 1    
    56   27  150 1    
    57   28  151 1    
    58   28  152 1    
    59   28  153 1    
    60   29   30 am   BACKBONE|DICT|INTERRES
    61   29  154 1    
    62   30   31 2    
    63   30   32 1    
    64   32   33 1    
    65   32   34 1    
    66   32  155 1    
    67   33  156 1    
    68   33  157 1    
    69   33  158 1    
    70   34   35 am   BACKBONE|DICT|INTERRES
    71   34  159 1    
    72   35   36 2    
    73   35   37 1    
    74   37   38 1    
    75   37   39 1    
    76   37  160 1    
    77   38  161 1    
    78   38  162 1    
    79   38  163 1    
    80   39   40 am   BACKBONE|DICT|INTERRES
    81   39  164 1    
    82   40   41 2    
    83   40   42 1    
    84   42   43 1    
    85   42   44 1    
    86   42  165 1    
    87   43  166 1    
    88   43  167 1    
    89   43  168 1    
    90   44   45 am   BACKBONE|DICT|INTERRES
    91   44  169 1    
    92   45   46 2    
    93   45   47 1    
    94   47   48 1    
    95   47   49 1    
    96   47  170 1    
    97   48  171 1    
    98   48  172 1    
    99   48  173 1    
   100   49   50 am   BACKBONE|DICT|INTERRES
   101   49  174 1    
   102   50   51 2    
   103   50   52 1    
   104   52   53 1    
   105   52   54 1    
   106   52  175 1    
   107   53  176 1    
   108   53  177 1    
   109   53  178 1    
   110   54   55 am   BACKBONE|DICT|INTERRES
   111   54  179 1    
   112   55   56 2    
   113   55   57 1    
   114   57   58 1    
   115   57   59 1    
   116   57  180 1    
   117   58  181 1    
   118   58  182 1    
   119   58  183 1    
   120   59   60 am   BACKBONE|DICT|INTERRES
   121   59  184 1    
   122   60   61 2    
   123   60   62 1    
   124   62   63 1    
   125   62   64 1    
   126   62  185 1    
   127   63  186 1    
   128   63  187 1    
   129   63  188 1    
   130   64   65 am   BACKBONE|DICT|INTERRES
   131   64  189 1    
   132   65   66 2    
   133   67   68 2    
   134   67   69 am   BACKBONE|DICT|INTERRES
   135   69   70 1    
   136   69  190 1    
   137   70   71 1    
   138   70   72 1    
   139   70  191 1    
   140   71  192 1    
   141   71  193 1    
   142   71  194 1    
   143   72   73 2    
   144   72   74 am   BACKBONE|DICT|INTERRES
   145   74   75 1    
   146   74  195 1    
   147   75   76 1    
   148   75   77 1    
   149   75  196 1    
   150   76  197 1    
   151   76  198 1    
   152   76  199 1    
   153   77   78 2    
   154   77   79 am   BACKBONE|DICT|INTERRES
   155   79   80 1    
   156   79  200 1    
   157   80   81 1    
   158   80   82 1    
   159   80  201 1    
   160   81  202 1    
   161   81  203 1    
   162   81  204 1    
   163   82   83 2    
   164   82   84 am   BACKBONE|DICT|INTERRES
   165   84   85 1    
   166   84  205 1    
   167   85   86 1    
   168   85   87 1    
   169   85  206 1    
   170   86  207 1    
   171   86  208 1    
   172   86  209 1    
   173   87   88 2    
   174   87   89 am   BACKBONE|DICT|INTERRES
   175   89   90 1    
   176   89  210 1    
   177   90   91 1    
   178   90   92 1    
   179   90  211 1    
   180   91  212 1    
   181   91  213 1    
   182   91  214 1    
   183   92   93 2    
   184   92   94 am   BACKBONE|DICT|INTERRES
   185   94   95 1    
   186   94  215 1    
   187   95   96 1    
   188   95   97 1    
   189   95  216 1    
   190   96  217 1    
   191   96  218 1    
   192   96  219 1    
   193   97   98 2    
   194   97   99 am   BACKBONE|DICT|INTERRES
   195   99  100 1    
   196   99  220 1    
   197  100  101 1    
   198  100  102 1    
   199  100  221 1    
   200  101  222 1    
   201  101  223 1    
   202  101  224 1    
   203  102  103 2    
   204  102  104 am   BACKBONE|DICT|INTERRES
   205  104  105 1    
   206  104  225 1    
   207  105  106 1    
   208  105  107 1    
   209  105  226 1    
   210  106  227 1    
   211  106  228 1    
   212  106  229 1    
   213  107  108 2    
   214  107  109 am   BACKBONE|DICT|INTERRES
   215  109  110 1    
   216  109  230 1    
   217  110  111 1    
   218  110  112 1    
   219  110  231 1    
   220  111  232 1    
   221  111  233 1    
   222  111  234 1    
   223  112  113 2    
   224  112  114 am   BACKBONE|DICT|INTERRES
   225  114  115 1    
   226  114  235 1    
   227  115  116 1    
   228  115  117 1    
   229  115  236 1    
   230  116  237 1    
   231  116  238 1    
   232  116  239 1    
   233  117  118 2    
   234  117  119 am   BACKBONE|DICT|INTERRES
   235  119  120 1    
   236  119  240 1    
   237  120  121 1    
   238  120  124 1    
   239  120  241 1    
   240  121  122 am   BACKBONE|DICT|INTERRES
   241  121  123 2    
   242  122  242 1    
   243  122  243 1    
   244  124  125 1    
   245  124  244 1    
   246  124  245 1    
   247  125  126 1    
   248  126  246 1    
   249  126  247 1    
@<TRIPOS>SUBSTRUCTURE
     1 UNK         1 GROUP             0       ****    0 ROOT    
