@<TRIPOS>MOLECULE
3R540
247   249    1
SMALL
USER_CHARGES


@<TRIPOS>ATOM
      1 CA         -3.0525  -15.6064  -49.2494 C.3       0 UNK        -0.1800 
      2 C          -1.8212  -14.7182  -49.3542 C.2       0 UNK         0.5000 
      3 O          -1.7677  -13.8410  -50.2164 O.2       0 UNK        -0.5000 
      4 N          -0.8386  -14.9357  -48.4701 N.am      1 UNK        -0.5000 
      5 CA          0.3613  -14.0968  -48.3304 C.3       1 UNK         0.1400 
      6 C6          1.5195  -14.7871  -47.5570 C.3       23 UNK        -0.0398 
      7 S7          1.7919  -16.5363  -48.0023 S.3       23 UNK        -0.2404 
      8 C8          2.9462  -16.4133  -49.4040 C.3       23 UNK        -0.0205 
      9 C9          2.9183  -17.6557  -50.2909 C.ar      23 UNK        -0.0193 
     10 C10         2.8501  -17.5150  -51.6814 C.ar      23 UNK        -0.1150 
     11 C11         2.8310  -18.6387  -52.5131 C.ar      23 UNK        -0.0193 
     12 C12         2.8730  -19.9138  -51.9426 C.ar      23 UNK        -0.1150 
     13 C13         2.9491  -20.0731  -50.5563 C.ar      23 UNK        -0.0193 
     14 C14         2.9797  -18.9412  -49.7371 C.ar      23 UNK        -0.1150 
     15 C15         3.0312  -21.4715  -49.9612 C.3       23 UNK        -0.0205 
     16 S16         1.4195  -22.3107  -49.9664 S.3       23 UNK        -0.2404 
     17 C17         0.6241  -21.7537  -48.4186 C.3       23 UNK        -0.0398 
     18 CA          0.2272  -22.9669  -47.5471 C.3       11 UNK         0.1400 
     19 N           1.3811  -23.6366  -46.9444 N.am      11 UNK        -0.5000 
     20 C           1.4367  -24.9552  -46.7140 C.2       10 UNK         0.5000 
     21 O           0.5315  -25.7399  -46.9976 O.2       10 UNK        -0.5000 
     22 CA          2.7088  -25.4834  -46.0265 C.3       10 UNK         0.1400 
     23 CB          3.8224  -25.7138  -47.0594 C.3       10 UNK        -0.1800 
     24 N           3.2038  -24.5963  -44.9726 N.am      10 UNK        -0.5000 
     25 C           2.5391  -24.3081  -43.8450 C.2       9 UNK         0.5000 
     26 O           1.4259  -24.7555  -43.5730 O.2       9 UNK        -0.5000 
     27 CA          3.2146  -23.3209  -42.8758 C.3       9 UNK         0.1400 
     28 CB          4.1460  -24.0697  -41.9110 C.3       9 UNK        -0.1800 
     29 N           3.9641  -22.2507  -43.5397 N.am      9 UNK        -0.5000 
     30 C           3.4460  -21.3627  -44.3976 C.2       8 UNK         0.5000 
     31 O           2.2820  -21.3915  -44.8065 O.2       8 UNK        -0.5000 
     32 CA          4.4021  -20.2850  -44.9251 C.3       8 UNK         0.1400 
     33 CB          4.7265  -20.5397  -46.4017 C.3       8 UNK        -0.1800 
     34 N           3.7833  -18.9705  -44.8012 N.am      8 UNK        -0.5000 
     35 C           3.8171  -18.2134  -43.6978 C.2       7 UNK         0.5000 
     36 O           4.4194  -18.5253  -42.6698 O.2       7 UNK        -0.5000 
     37 CA          3.0537  -16.8791  -43.7570 C.3       7 UNK         0.1400 
     38 CB          3.9648  -15.7617  -44.2889 C.3       7 UNK        -0.1800 
     39 N           1.8656  -16.9605  -44.6061 N.am      7 UNK        -0.5000 
     40 C           0.6780  -17.4231  -44.2012 C.2       6 UNK         0.5000 
     41 O           0.4448  -17.8390  -43.0641 O.2       6 UNK        -0.5000 
     42 CA         -0.4366  -17.4151  -45.2534 C.3       6 UNK         0.1400 
     43 CB         -0.5348  -18.7744  -45.9598 C.3       6 UNK        -0.1800 
     44 N          -1.7066  -17.1004  -44.6093 N.am      6 UNK        -0.5000 
     45 C          -2.4959  -16.0761  -44.9454 C.2       5 UNK         0.5000 
     46 O          -2.2702  -15.3152  -45.8893 O.2       5 UNK        -0.5000 
     47 CA         -3.7335  -15.8587  -44.0675 C.3       5 UNK         0.1400 
     48 CB         -3.3718  -15.1009  -42.7781 C.3       5 UNK        -0.1800 
     49 N          -4.7393  -15.1086  -44.8133 N.am      5 UNK        -0.5000 
     50 C          -6.0581  -15.1734  -44.5934 C.2       4 UNK         0.5000 
     51 O          -6.5644  -15.8874  -43.7254 O.2       4 UNK        -0.5000 
     52 CA         -6.9588  -14.2997  -45.4950 C.3       4 UNK         0.1400 
     53 CB         -8.3837  -14.1165  -44.9305 C.3       4 UNK        -0.1800 
     54 N          -6.3656  -13.0006  -45.8308 N.am      4 UNK        -0.5000 
     55 C          -6.0027  -12.0223  -44.9884 C.2       3 UNK         0.5000 
     56 O          -6.1310  -12.0733  -43.7636 O.2       3 UNK        -0.5000 
     57 CA         -5.3543  -10.7830  -45.6410 C.3       3 UNK         0.1400 
     58 CB         -5.7944   -9.4799  -44.9519 C.3       3 UNK        -0.1800 
     59 N          -3.8915  -10.8532  -45.6311 N.am      3 UNK        -0.5000 
     60 C          -3.1555  -11.7860  -46.2483 C.2       2 UNK         0.5000 
     61 O          -3.6433  -12.6936  -46.9285 O.2       2 UNK        -0.5000 
     62 CA         -1.6277  -11.6776  -46.0872 C.3       2 UNK         0.1400 
     63 CB         -1.1983  -11.7270  -44.6102 C.3       2 UNK        -0.1800 
     64 N          -1.0126  -12.7984  -46.7825 N.am      2 UNK        -0.5000 
     65 C           0.0080  -12.7574  -47.6459 C.2       1 UNK         0.5000 
     66 O           0.6532  -11.7414  -47.9072 O.2       1 UNK        -0.5000 
     67 C          -0.8312  -22.6104  -46.4859 C.2       11 UNK         0.5000 
     68 O          -2.0201  -22.6264  -46.8055 O.2       11 UNK        -0.5000 
     69 N          -0.4173  -22.3592  -45.2349 N.am      12 UNK        -0.5000 
     70 CA         -1.3213  -22.1812  -44.0937 C.3       12 UNK         0.1400 
     71 CB         -0.5307  -21.6947  -42.8721 C.3       12 UNK        -0.1800 
     72 C          -2.1130  -23.4623  -43.7671 C.2       12 UNK         0.5000 
     73 O          -3.3054  -23.3797  -43.4729 O.2       12 UNK        -0.5000 
     74 N          -1.4629  -24.6280  -43.9012 N.am      13 UNK        -0.5000 
     75 CA         -2.0813  -25.9544  -43.8036 C.3       13 UNK         0.1400 
     76 CB         -0.9810  -27.0260  -43.7945 C.3       13 UNK        -0.1800 
     77 C          -3.1057  -26.2403  -44.9224 C.2       13 UNK         0.5000 
     78 O          -4.0103  -27.0505  -44.7214 O.2       13 UNK        -0.5000 
     79 N          -2.9742  -25.5419  -46.0584 N.am      14 UNK        -0.5000 
     80 CA         -3.9186  -25.5386  -47.1774 C.3       14 UNK         0.1400 
     81 CB         -3.1278  -25.4290  -48.4929 C.3       14 UNK        -0.1800 
     82 C          -4.9678  -24.4113  -47.0470 C.2       14 UNK         0.5000 
     83 O          -5.5824  -24.0360  -48.0463 O.2       14 UNK        -0.5000 
     84 N          -5.1389  -23.8663  -45.8315 N.am      15 UNK        -0.5000 
     85 CA         -6.0825  -22.8108  -45.4445 C.3       15 UNK         0.1400 
     86 CB         -7.5367  -23.3107  -45.5721 C.3       15 UNK        -0.1800 
     87 C          -5.8454  -21.4716  -46.1737 C.2       15 UNK         0.5000 
     88 O          -6.7893  -20.7051  -46.3685 O.2       15 UNK        -0.5000 
     89 N          -4.5901  -21.2288  -46.5812 N.am      16 UNK        -0.5000 
     90 CA         -4.0941  -20.0825  -47.3486 C.3       16 UNK         0.1400 
     91 CB         -4.3469  -18.7550  -46.6066 C.3       16 UNK        -0.1800 
     92 C          -4.5740  -20.0369  -48.8140 C.2       16 UNK         0.5000 
     93 O          -4.2097  -19.1036  -49.5290 O.2       16 UNK        -0.5000 
     94 N          -5.3245  -21.0513  -49.2710 N.am      17 UNK        -0.5000 
     95 CA         -5.8179  -21.1581  -50.6462 C.3       17 UNK         0.1400 
     96 CB         -6.8544  -22.2870  -50.7365 C.3       17 UNK        -0.1800 
     97 C          -4.6790  -21.3809  -51.6551 C.2       17 UNK         0.5000 
     98 O          -4.7051  -20.8120  -52.7458 O.2       17 UNK        -0.5000 
     99 N          -3.6644  -22.1546  -51.2470 N.am      18 UNK        -0.5000 
    100 CA        -2.4468  -22.3917  -52.0214 C.3       18 UNK         0.1400 
    101 CB        -1.6481  -23.5267  -51.3685 C.3       18 UNK        -0.1800 
    102 C         -1.5847  -21.1243  -52.1863 C.2       18 UNK         0.5000 
    103 O         -0.9720  -20.9531  -53.2386 O.2       18 UNK        -0.5000 
    104 N         -1.5967  -20.2441  -51.1742 N.am      19 UNK        -0.5000 
    105 CA        -0.9238  -18.9425  -51.1993 C.3       19 UNK         0.1400 
    106 CB        -0.7000  -18.4498  -49.7631 C.3       19 UNK        -0.1800 
    107 C         -1.6913  -17.8831  -52.0109 C.2       19 UNK         0.5000 
    108 O         -1.0872  -16.9094  -52.4574 O.2       19 UNK        -0.5000 
    109 N         -3.0057  -18.0717  -52.1829 N.am      20 UNK        -0.5000 
    110 CA        -3.8303  -17.2547  -53.0688 C.3       20 UNK         0.1400 
    111 CB        -5.3010  -17.3459  -52.6331 C.3       20 UNK        -0.1800 
    112 C         -3.6527  -17.6829  -54.5370 C.2       20 UNK         0.5000 
    113 O         -3.5737  -16.8232  -55.4151 O.2       20 UNK        -0.5000 
    114 N         -3.5967  -19.0012  -54.7732 N.am      21 UNK        -0.5000 
    115 CA        -3.4420  -19.6074  -56.0926 C.3       21 UNK         0.1400 
    116 CB        -3.8698  -21.0830  -56.0252 C.3       21 UNK        -0.1800 
    117 C         -2.0153  -19.4695  -56.6548 C.2       21 UNK         0.5000 
    118 O         -1.8468  -18.9246  -57.7465 O.2       21 UNK        -0.5000 
    119 N         -1.0252  -19.9901  -55.9156 N.am      22 UNK        -0.5000 
    120 CA         0.4002  -20.0769  -56.2917 C.3       22 UNK         0.1400 
    121 C          0.6967  -20.9153  -57.5756 C.2       22 UNK         0.5000 
    122 N         -0.1804  -21.8236  -57.9862 N.am      22 UNK        -0.7600 
    123 O          1.7480  -20.7724  -58.1947 O.2       22 UNK        -0.5000 
    124 C124        1.1148  -18.6964  -56.2833 C.3       23 UNK        -0.0398 
    125 S125        1.1420  -17.9763  -54.6089 S.3       23 UNK        -0.2404 
    126 C126        2.7900  -18.4814  -54.0265 C.3       23 UNK        -0.0205 
    127 H127       -3.8794  -15.0471  -48.8118 H         1 UNK         0.0600 
    128 H128       -2.8640  -16.4781  -48.6248 H         1 UNK         0.0600 
    129 H129       -3.3575  -15.9555  -50.2350 H         1 UNK         0.0600 
    130 H130       -0.9776  -15.6323  -47.7520 H         1 UNK         0.3000 
    131 H131        0.7252  -13.8688  -49.3345 H         1 UNK         0.0600 
    132 H132        1.3266  -14.7598  -46.4832 H         1 UNK         0.0800 
    133 H133        2.4500  -14.2352  -47.7019 H         1 UNK         0.0800 
    134 H134        3.9582  -16.2617  -49.0268 H         1 UNK         0.0800 
    135 H135        2.6924  -15.5294  -49.9910 H         1 UNK         0.0800 
    136 H136        2.8118  -16.5293  -52.1235 H         1 UNK         0.1150 
    137 H137        2.8530  -20.7884  -52.5777 H         1 UNK         0.1150 
    138 H138        3.0448  -19.0573  -48.6658 H         1 UNK         0.1150 
    139 H139        3.7274  -22.0649  -50.5556 H         1 UNK         0.0800 
    140 H140        3.4423  -21.4580  -48.9544 H         1 UNK         0.0800 
    141 H141       -0.2665  -21.1940  -48.7042 H         1 UNK         0.0800 
    142 H142        1.2691  -21.0636  -47.8726 H         1 UNK         0.0800 
    143 H143       -0.2695  -23.6778  -48.2112 H         1 UNK         0.0600 
    144 H144        2.1448  -23.0513  -46.6386 H         1 UNK         0.3000 
    145 H145        2.4625  -26.4436  -45.5680 H         1 UNK         0.0600 
    146 H146        4.7009  -26.1657  -46.5986 H         1 UNK         0.0600 
    147 H147        3.4882  -26.3879  -47.8493 H         1 UNK         0.0600 
    148 H148        4.1327  -24.7816  -47.5335 H         1 UNK         0.0600 
    149 H149        4.1121  -24.1798  -45.1139 H         1 UNK         0.3000 
    150 H150        2.4291  -22.8490  -42.2842 H         1 UNK         0.0600 
    151 H151        3.6092  -24.8606  -41.3849 H         1 UNK         0.0600 
    152 H152        4.5538  -23.3986  -41.1549 H         1 UNK         0.0600 
    153 H153        4.9822  -24.5335  -42.4358 H         1 UNK         0.0600 
    154 H154        4.9333  -22.1569  -43.2716 H         1 UNK         0.3000 
    155 H155        5.3346  -20.3084  -44.3568 H         1 UNK         0.0600 
    156 H156        3.8228  -20.4969  -47.0061 H         1 UNK         0.0600 
    157 H157        5.1782  -21.5221  -46.5450 H         1 UNK         0.0600 
    158 H158        5.4249  -19.7973  -46.7884 H         1 UNK         0.0600 
    159 H159        3.2190  -18.6653  -45.5787 H         1 UNK         0.3000 
    160 H160        2.7534  -16.6179  -42.7398 H         1 UNK         0.0600 
    161 H161        4.8582  -15.6593  -43.6714 H         1 UNK         0.0600 
    162 H162        3.4532  -14.7990  -44.2807 H         1 UNK         0.0600 
    163 H163        4.2923  -15.9585  -45.3107 H         1 UNK         0.0600 
    164 H164        1.9775  -16.6639  -45.5655 H         1 UNK         0.3000 
    165 H165       -0.1978  -16.6559  -45.9959 H         1 UNK         0.0600 
    166 H166       -1.2738  -18.7442  -46.7580 H         1 UNK         0.0600 
    167 H167        0.4182  -19.0581  -46.4081 H         1 UNK         0.0600 
    168 H168       -0.8198  -19.5619  -45.2649 H         1 UNK         0.0600 
    169 H169       -1.9049  -17.6313  -43.7722 H         1 UNK         0.3000 
    170 H170       -4.1328  -16.8419  -43.8096 H         1 UNK         0.0600 
    171 H171       -2.5849  -15.6137  -42.2236 H         1 UNK         0.0600 
    172 H172       -3.0220  -14.0911  -42.9921 H         1 UNK         0.0600 
    173 H173       -4.2333  -15.0186  -42.1153 H         1 UNK         0.0600 
    174 H174       -4.3748  -14.5317  -45.5641 H         1 UNK         0.3000 
    175 H175       -7.0494  -14.8423  -46.4370 H         1 UNK         0.0600 
    176 H176       -8.3734  -13.6306  -43.9544 H         1 UNK         0.0600 
    177 H177       -8.9983  -13.5135  -45.5989 H         1 UNK         0.0600 
    178 H178       -8.8847  -15.0779  -44.8115 H         1 UNK         0.0600 
    179 H179       -6.1303  -12.8776  -46.8066 H         1 UNK         0.3000 
    180 H180       -5.6821  -10.7318  -46.6816 H         1 UNK         0.0600 
    181 H181       -5.4123   -8.6059  -45.4798 H         1 UNK         0.0600 
    182 H182       -5.4435   -9.4282  -43.9204 H         1 UNK         0.0600 
    183 H183       -6.8819   -9.3971  -44.9332 H         1 UNK         0.0600 
    184 H184       -3.4206  -10.1516  -45.0789 H         1 UNK         0.3000 
    185 H185       -1.3106  -10.7321  -46.5314 H         1 UNK         0.0600 
    186 H186       -0.1134  -11.6736  -44.5172 H         1 UNK         0.0600 
    187 H187       -1.6100  -10.8920  -44.0428 H         1 UNK         0.0600 
    188 H188       -1.5262  -12.6490  -44.1301 H         1 UNK         0.0600 
    189 H189       -1.5261  -13.6718  -46.6862 H         1 UNK         0.3000 
    190 H190        0.5778  -22.2849  -45.0449 H         1 UNK         0.3000 
    191 H191       -2.0454  -21.4076  -44.3575 H         1 UNK         0.0600 
    192 H192       -1.2010  -21.4584  -42.0449 H         1 UNK         0.0600 
    193 H193        0.0373  -20.7920  -43.0993 H         1 UNK         0.0600 
    194 H194        0.1671  -22.4528  -42.5198 H         1 UNK         0.0600 
    195 H195       -0.4606  -24.6108  -44.0678 H         1 UNK         0.3000 
    196 H196       -2.6146  -26.0053  -42.8522 H         1 UNK         0.0600 
    197 H197       -0.3861  -26.9986  -44.7079 H         1 UNK         0.0600 
    198 H198       -0.3046  -26.8888  -42.9507 H         1 UNK         0.0600 
    199 H199       -1.4074  -28.0262  -43.7089 H         1 UNK         0.0600 
    200 H200       -2.2136  -24.8799  -46.1247 H         1 UNK         0.3000 
    201 H201       -4.4656  -26.4830  -47.1953 H         1 UNK         0.0600 
    202 H202       -2.6340  -24.4630  -48.5857 H         1 UNK         0.0600 
    203 H203       -3.7837  -25.5448  -49.3565 H         1 UNK         0.0600 
    204 H204       -2.3633  -26.2032  -48.5612 H         1 UNK         0.0600 
    205 H205       -4.5381  -24.1872  -45.0824 H         1 UNK         0.3000 
    206 H206       -5.8954  -22.6119  -44.3885 H         1 UNK         0.0600 
    207 H207       -7.6773  -24.2533  -45.0430 H         1 UNK         0.0600 
    208 H208       -8.2374  -22.5932  -45.1436 H         1 UNK         0.0600 
    209 H209       -7.8227  -23.4642  -46.6132 H         1 UNK         0.0600 
    210 H210       -3.8916  -21.9467  -46.4147 H         1 UNK         0.3000 
    211 H211       -3.0145  -20.2186  -47.4045 H         1 UNK         0.0600 
    212 H212       -3.8082  -17.9352  -47.0800 H         1 UNK         0.0600 
    213 H213       -4.0056  -18.8128  -45.5735 H         1 UNK         0.0600 
    214 H214       -5.4025  -18.4833  -46.5982 H         1 UNK         0.0600 
    215 H215       -5.5629  -21.8072  -48.6411 H         1 UNK         0.3000 
    216 H216       -6.3124  -20.2188  -50.9024 H         1 UNK         0.0600 
    217 H217       -6.4140  -23.2592  -50.5127 H         1 UNK         0.0600 
    218 H218       -7.2812  -22.3437  -51.7386 H         1 UNK         0.0600 
    219 H219       -7.6773  -22.1240  -50.0403 H         1 UNK         0.0600 
    220 H220       -3.7273  -22.5898  -50.3384 H         1 UNK         0.3000 
    221 H221       -2.7409  -22.7189  -53.0209 H         1 UNK         0.0600 
    222 H222       -2.2153  -24.4576  -51.3657 H         1 UNK         0.0600 
    223 H223       -1.3885  -23.2892  -50.3378 H         1 UNK         0.0600 
    224 H224       -0.7191  -23.7139  -51.9087 H         1 UNK         0.0600 
    225 H225       -2.1748  -20.4385  -50.3717 H         1 UNK         0.3000 
    226 H226        0.0534  -19.0616  -51.6708 H         1 UNK         0.0600 
    227 H227       -1.6145  -18.4786  -49.1728 H         1 UNK         0.0600 
    228 H228        0.0595  -19.0386  -49.2539 H         1 UNK         0.0600 
    229 H229       -0.3425  -17.4208  -49.7659 H         1 UNK         0.0600 
    230 H230       -3.4543  -18.8516  -51.7223 H         1 UNK         0.3000 
    231 H231       -3.5222  -16.2105  -52.9798 H         1 UNK         0.0600 
    232 H232       -5.6954  -18.3567  -52.7332 H         1 UNK         0.0600 
    233 H233       -5.9260  -16.6903  -53.2404 H         1 UNK         0.0600 
    234 H234       -5.4230  -17.0420  -51.5931 H         1 UNK         0.0600 
    235 H235       -3.7396  -19.6384  -53.9962 H         1 UNK         0.3000 
    236 H236       -4.1199  -19.0986  -56.7814 H         1 UNK         0.0600 
    237 H237       -4.9134  -21.1745  -55.7233 H         1 UNK         0.0600 
    238 H238       -3.7698  -21.5651  -56.9983 H         1 UNK         0.0600 
    239 H239       -3.2690  -21.6483  -55.3119 H         1 UNK         0.0600 
    240 H240       -1.2376  -20.3746  -54.9985 H         1 UNK         0.3000 
    241 H241        0.8588  -20.6695  -55.4993 H         1 UNK         0.0600 
    242 H242        0.0201  -22.3698  -58.8094 H         1 UNK         0.3800 
    243 H243       -1.0400  -21.9712  -57.4829 H         1 UNK         0.3800 
    244 H244        0.6157  -18.0011  -56.9590 H         1 UNK         0.0800 
    245 H245        2.1432  -18.7731  -56.6393 H         1 UNK         0.0800 
    246 H246        3.0764  -19.4203  -54.5029 H         1 UNK         0.0800 
    247 H247        3.5258  -17.7403  -54.3416 H         1 UNK         0.0800 
@<TRIPOS>BOND
     1    1    2 1    
     2    1  127 1    
     3    1  128 1    
     4    1  129 1    
     5    2    3 2    
     6    2    4 am   BACKBONE|DICT|INTERRES
     7    4    5 1    
     8    4  130 1    
     9    5    6 1    
    10    5   65 1    
    11    5  131 1    
    12    6    7 1    
    13    6  132 1    
    14    6  133 1    
    15    7    8 1    
    16    8    9 1    
    17    8  134 1    
    18    8  135 1    
    19    9   10 ar   
    20    9   14 ar   
    21   10   11 ar   
    22   10  136 1    
    23   11   12 ar   
    24   11  126 1    
    25   12   13 ar   
    26   12  137 1    
    27   13   14 ar   
    28   13   15 1    
    29   14  138 1    
    30   15   16 1    
    31   15  139 1    
    32   15  140 1    
    33   16   17 1    
    34   17   18 1    
    35   17  141 1    
    36   17  142 1    
    37   18   19 1    
    38   18   67 1    
    39   18  143 1    
    40   19   20 am   BACKBONE|DICT|INTERRES
    41   19  144 1    
    42   20   21 2    
    43   20   22 1    
    44   22   23 1    
    45   22   24 1    
    46   22  145 1    
    47   23  146 1    
    48   23  147 1    
    49   23  148 1    
    50   24   25 am   BACKBONE|DICT|INTERRES
    51   24  149 1    
    52   25   26 2    
    53   25   27 1    
    54   27   28 1    
    55   27   29 1    
    56   27  150 1    
    57   28  151 1    
    58   28  152 1    
    59   28  153 1    
    60   29   30 am   BACKBONE|DICT|INTERRES
    61   29  154 1    
    62   30   31 2    
    63   30   32 1    
    64   32   33 1    
    65   32   34 1    
    66   32  155 1    
    67   33  156 1    
    68   33  157 1    
    69   33  158 1    
    70   34   35 am   BACKBONE|DICT|INTERRES
    71   34  159 1    
    72   35   36 2    
    73   35   37 1    
    74   37   38 1    
    75   37   39 1    
    76   37  160 1    
    77   38  161 1    
    78   38  162 1    
    79   38  163 1    
    80   39   40 am   BACKBONE|DICT|INTERRES
    81   39  164 1    
    82   40   41 2    
    83   40   42 1    
    84   42   43 1    
    85   42   44 1    
    86   42  165 1    
    87   43  166 1    
    88   43  167 1    
    89   43  168 1    
    90   44   45 am   BACKBONE|DICT|INTERRES
    91   44  169 1    
    92   45   46 2    
    93   45   47 1    
    94   47   48 1    
    95   47   49 1    
    96   47  170 1    
    97   48  171 1    
    98   48  172 1    
    99   48  173 1    
   100   49   50 am   BACKBONE|DICT|INTERRES
   101   49  174 1    
   102   50   51 2    
   103   50   52 1    
   104   52   53 1    
   105   52   54 1    
   106   52  175 1    
   107   53  176 1    
   108   53  177 1    
   109   53  178 1    
   110   54   55 am   BACKBONE|DICT|INTERRES
   111   54  179 1    
   112   55   56 2    
   113   55   57 1    
   114   57   58 1    
   115   57   59 1    
   116   57  180 1    
   117   58  181 1    
   118   58  182 1    
   119   58  183 1    
   120   59   60 am   BACKBONE|DICT|INTERRES
   121   59  184 1    
   122   60   61 2    
   123   60   62 1    
   124   62   63 1    
   125   62   64 1    
   126   62  185 1    
   127   63  186 1    
   128   63  187 1    
   129   63  188 1    
   130   64   65 am   BACKBONE|DICT|INTERRES
   131   64  189 1    
   132   65   66 2    
   133   67   68 2    
   134   67   69 am   BACKBONE|DICT|INTERRES
   135   69   70 1    
   136   69  190 1    
   137   70   71 1    
   138   70   72 1    
   139   70  191 1    
   140   71  192 1    
   141   71  193 1    
   142   71  194 1    
   143   72   73 2    
   144   72   74 am   BACKBONE|DICT|INTERRES
   145   74   75 1    
   146   74  195 1    
   147   75   76 1    
   148   75   77 1    
   149   75  196 1    
   150   76  197 1    
   151   76  198 1    
   152   76  199 1    
   153   77   78 2    
   154   77   79 am   BACKBONE|DICT|INTERRES
   155   79   80 1    
   156   79  200 1    
   157   80   81 1    
   158   80   82 1    
   159   80  201 1    
   160   81  202 1    
   161   81  203 1    
   162   81  204 1    
   163   82   83 2    
   164   82   84 am   BACKBONE|DICT|INTERRES
   165   84   85 1    
   166   84  205 1    
   167   85   86 1    
   168   85   87 1    
   169   85  206 1    
   170   86  207 1    
   171   86  208 1    
   172   86  209 1    
   173   87   88 2    
   174   87   89 am   BACKBONE|DICT|INTERRES
   175   89   90 1    
   176   89  210 1    
   177   90   91 1    
   178   90   92 1    
   179   90  211 1    
   180   91  212 1    
   181   91  213 1    
   182   91  214 1    
   183   92   93 2    
   184   92   94 am   BACKBONE|DICT|INTERRES
   185   94   95 1    
   186   94  215 1    
   187   95   96 1    
   188   95   97 1    
   189   95  216 1    
   190   96  217 1    
   191   96  218 1    
   192   96  219 1    
   193   97   98 2    
   194   97   99 am   BACKBONE|DICT|INTERRES
   195   99  100 1    
   196   99  220 1    
   197  100  101 1    
   198  100  102 1    
   199  100  221 1    
   200  101  222 1    
   201  101  223 1    
   202  101  224 1    
   203  102  103 2    
   204  102  104 am   BACKBONE|DICT|INTERRES
   205  104  105 1    
   206  104  225 1    
   207  105  106 1    
   208  105  107 1    
   209  105  226 1    
   210  106  227 1    
   211  106  228 1    
   212  106  229 1    
   213  107  108 2    
   214  107  109 am   BACKBONE|DICT|INTERRES
   215  109  110 1    
   216  109  230 1    
   217  110  111 1    
   218  110  112 1    
   219  110  231 1    
   220  111  232 1    
   221  111  233 1    
   222  111  234 1    
   223  112  113 2    
   224  112  114 am   BACKBONE|DICT|INTERRES
   225  114  115 1    
   226  114  235 1    
   227  115  116 1    
   228  115  117 1    
   229  115  236 1    
   230  116  237 1    
   231  116  238 1    
   232  116  239 1    
   233  117  118 2    
   234  117  119 am   BACKBONE|DICT|INTERRES
   235  119  120 1    
   236  119  240 1    
   237  120  121 1    
   238  120  124 1    
   239  120  241 1    
   240  121  122 am   BACKBONE|DICT|INTERRES
   241  121  123 2    
   242  122  242 1    
   243  122  243 1    
   244  124  125 1    
   245  124  244 1    
   246  124  245 1    
   247  125  126 1    
   248  126  246 1    
   249  126  247 1    
@<TRIPOS>SUBSTRUCTURE
     1 UNK         1 GROUP             0       ****    0 ROOT    
