@<TRIPOS>MOLECULE
3R540
247   249    1
SMALL
USER_CHARGES


@<TRIPOS>ATOM
      1 CA          1.2150  -14.9478  -52.2894 C.3       0 UNK        -0.1800 
      2 C           1.4499  -13.8892  -51.2227 C.2       0 UNK         0.5000 
      3 O           1.2476  -12.7008  -51.4750 O.2       0 UNK        -0.5000 
      4 N           1.8749  -14.3155  -50.0288 N.am      1 UNK        -0.5000 
      5 CA          2.1238  -13.4799  -48.8501 C.3       1 UNK         0.1400 
      6 C6          3.1975  -14.0901  -47.9030 C.3       23 UNK        -0.0398 
      7 S7          3.0641  -15.8965  -47.6566 S.3       23 UNK        -0.2404 
      8 C8          4.3724  -16.4881  -48.7710 C.3       23 UNK        -0.0205 
      9 C9          4.1357  -17.9289  -49.1905 C.ar      23 UNK        -0.0193 
     10 C10         3.4506  -18.2083  -50.3782 C.ar      23 UNK        -0.1150 
     11 C11         3.2652  -19.5300  -50.7911 C.ar      23 UNK        -0.0193 
     12 C12         3.7754  -20.5709  -50.0145 C.ar      23 UNK        -0.1150 
     13 C13         4.4324  -20.3077  -48.8111 C.ar      23 UNK        -0.0193 
     14 C14         4.6149  -18.9824  -48.4044 C.ar      23 UNK        -0.1150 
     15 C15         4.9382  -21.4626  -47.9595 C.3       23 UNK        -0.0205 
     16 S16         3.7066  -21.9947  -46.7273 S.3       23 UNK        -0.2404 
     17 C17         2.3020  -22.4889  -47.7865 C.3       23 UNK        -0.0398 
     18 CA          1.2900  -23.3959  -47.0526 C.3       11 UNK         0.1400 
     19 N           0.7265  -22.7516  -45.8651 N.am      11 UNK        -0.5000 
     20 C           0.1358  -23.4067  -44.8587 C.2       10 UNK         0.5000 
     21 O           0.0269  -24.6326  -44.8090 O.2       10 UNK        -0.5000 
     22 CA         -0.4625  -22.5411  -43.7338 C.3       10 UNK         0.1400 
     23 CB          0.6299  -22.1019  -42.7474 C.3       10 UNK        -0.1800 
     24 N          -1.1686  -21.3610  -44.2361 N.am      10 UNK        -0.5000 
     25 C          -2.2483  -21.4090  -45.0296 C.2       9 UNK         0.5000 
     26 O          -2.7826  -22.4549  -45.3955 O.2       9 UNK        -0.5000 
     27 CA         -2.8094  -20.0704  -45.5337 C.3       9 UNK         0.1400 
     28 CB         -3.7554  -19.4531  -44.4947 C.3       9 UNK        -0.1800 
     29 N          -1.7808  -19.1007  -45.9039 N.am      9 UNK        -0.5000 
     30 C          -0.8376  -19.2848  -46.8401 C.2       8 UNK         0.5000 
     31 O          -0.6738  -20.3335  -47.4598 O.2       8 UNK        -0.5000 
     32 CA          0.1278  -18.1151  -47.0784 C.3       8 UNK         0.1400 
     33 CB         -0.5538  -16.9917  -47.8765 C.3       8 UNK        -0.1800 
     34 N           0.6499  -17.5932  -45.8171 N.am      8 UNK        -0.5000 
     35 C           1.4533  -18.2810  -44.9925 C.2       7 UNK         0.5000 
     36 O           1.8690  -19.4164  -45.2213 O.2       7 UNK        -0.5000 
     37 CA          1.8059  -17.6018  -43.6591 C.3       7 UNK         0.1400 
     38 CB          2.9110  -16.5520  -43.8529 C.3       7 UNK        -0.1800 
     39 N           0.6353  -16.9807  -43.0390 N.am      7 UNK        -0.5000 
     40 C          -0.4050  -17.6669  -42.5396 C.2       6 UNK         0.5000 
     41 O          -0.4637  -18.8966  -42.5123 O.2       6 UNK        -0.5000 
     42 CA         -1.6011  -16.8455  -42.0176 C.3       6 UNK         0.1400 
     43 CB         -1.4089  -16.4961  -40.5346 C.3       6 UNK        -0.1800 
     44 N          -1.8309  -15.6155  -42.7760 N.am      6 UNK        -0.5000 
     45 C          -2.1067  -15.5663  -44.0857 C.2       5 UNK         0.5000 
     46 O          -2.2871  -16.5636  -44.7815 O.2       5 UNK        -0.5000 
     47 CA         -2.1627  -14.1823  -44.7506 C.3       5 UNK         0.1400 
     48 CB         -3.6214  -13.7383  -44.9297 C.3       5 UNK        -0.1800 
     49 N          -1.4296  -13.1103  -44.0733 N.am      5 UNK        -0.5000 
     50 C          -0.1303  -13.0870  -43.7373 C.2       4 UNK         0.5000 
     51 O           0.5962  -14.0821  -43.7440 O.2       4 UNK        -0.5000 
     52 CA          0.4432  -11.7024  -43.3568 C.3       4 UNK         0.1400 
     53 CB          1.9790  -11.6636  -43.4460 C.3       4 UNK        -0.1800 
     54 N          -0.1038  -10.6728  -44.2437 N.am      4 UNK        -0.5000 
     55 C          -1.2316   -9.9796  -44.0497 C.2       3 UNK         0.5000 
     56 O          -1.8524   -9.9771  -42.9872 O.2       3 UNK        -0.5000 
     57 CA         -1.8355   -9.2771  -45.2826 C.3       3 UNK         0.1400 
     58 CB         -1.1538   -7.9246  -45.5672 C.3       3 UNK        -0.1800 
     59 N          -1.8832  -10.1518  -46.4691 N.am      3 UNK        -0.5000 
     60 C          -0.8637  -10.5879  -47.2237 C.2       2 UNK         0.5000 
     61 O           0.3023  -10.2132  -47.0716 O.2       2 UNK        -0.5000 
     62 CA         -1.2084  -11.6386  -48.3017 C.3       2 UNK         0.1400 
     63 CB         -1.9754  -11.0005  -49.4702 C.3       2 UNK        -0.1800 
     64 N          -0.0095  -12.2881  -48.8314 N.am      2 UNK        -0.5000 
     65 C           0.7994  -13.1073  -48.1474 C.2       1 UNK         0.5000 
     66 O           0.5344  -13.5464  -47.0287 O.2       1 UNK        -0.5000 
     67 C           0.1729  -23.8582  -48.0099 C.2       11 UNK         0.5000 
     68 O           0.2283  -24.9783  -48.5194 O.2       11 UNK        -0.5000 
     69 N          -0.8397  -23.0044  -48.2131 N.am      12 UNK        -0.5000 
     70 CA         -1.9983  -23.2548  -49.0683 C.3       12 UNK         0.1400 
     71 CB         -2.8647  -21.9955  -49.1374 C.3       12 UNK        -0.1800 
     72 C          -2.8466  -24.4506  -48.6097 C.2       12 UNK         0.5000 
     73 O          -3.3410  -25.1890  -49.4581 O.2       12 UNK        -0.5000 
     74 N          -2.9701  -24.6497  -47.2901 N.am      13 UNK        -0.5000 
     75 CA         -3.6516  -25.7948  -46.6846 C.3       13 UNK         0.1400 
     76 CB         -3.7403  -25.5937  -45.1645 C.3       13 UNK        -0.1800 
     77 C          -2.9782  -27.1407  -47.0131 C.2       13 UNK         0.5000 
     78 O          -3.6791  -28.1313  -47.2212 O.2       13 UNK        -0.5000 
     79 N          -1.6396  -27.1475  -47.0837 N.am      14 UNK        -0.5000 
     80 CA         -0.8446  -28.3080  -47.4866 C.3       14 UNK         0.1400 
     81 CB          0.6036  -28.1305  -47.0049 C.3       14 UNK        -0.1800 
     82 C          -0.8964  -28.5413  -49.0081 C.2       14 UNK         0.5000 
     83 O          -0.9531  -29.6910  -49.4455 O.2       14 UNK        -0.5000 
     84 N          -0.8939  -27.4484  -49.7839 N.am      15 UNK        -0.5000 
     85 CA         -0.9818  -27.4582  -51.2467 C.3       15 UNK         0.1400 
     86 CB         -0.5260  -26.0889  -51.7749 C.3       15 UNK        -0.1800 
     87 C          -2.3883  -27.7915  -51.7880 C.2       15 UNK         0.5000 
     88 O          -2.5052  -28.1556  -52.9587 O.2       15 UNK        -0.5000 
     89 N          -3.4176  -27.6349  -50.9423 N.am      16 UNK        -0.5000 
     90 CA         -4.8518  -27.6900  -51.2469 C.3       16 UNK         0.1400 
     91 CB         -5.2749  -29.0930  -51.7305 C.3       16 UNK        -0.1800 
     92 C          -5.2748  -26.5501  -52.1995 C.2       16 UNK         0.5000 
     93 O          -5.9934  -26.7801  -53.1745 O.2       16 UNK        -0.5000 
     94 N          -4.7932  -25.3400  -51.8961 N.am      17 UNK        -0.5000 
     95 CA         -5.0106  -24.1067  -52.6478 C.3       17 UNK         0.1400 
     96 CB         -3.6305  -23.5330  -53.0121 C.3       17 UNK        -0.1800 
     97 C          -5.8200  -23.0968  -51.8118 C.2       17 UNK         0.5000 
     98 O          -6.0717  -23.3303  -50.6265 O.2       17 UNK        -0.5000 
     99 N          -6.2087  -21.9798  -52.4444 N.am      18 UNK        -0.5000 
    100 CA        -6.8740  -20.8410  -51.8033 C.3       18 UNK         0.1400 
    101 CB        -7.3265  -19.8458  -52.8829 C.3       18 UNK        -0.1800 
    102 C         -5.9387  -20.1512  -50.7932 C.2       18 UNK         0.5000 
    103 O         -4.7986  -19.8560  -51.1530 O.2       18 UNK        -0.5000 
    104 N         -6.4411  -19.9322  -49.5706 N.am      19 UNK        -0.5000 
    105 CA        -5.7039  -19.5449  -48.3648 C.3       19 UNK         0.1400 
    106 CB        -6.7005  -19.3665  -47.2043 C.3       19 UNK        -0.1800 
    107 C         -4.7562  -18.3368  -48.5141 C.2       19 UNK         0.5000 
    108 O         -3.5612  -18.5255  -48.7348 O.2       19 UNK        -0.5000 
    109 N         -5.2974  -17.1202  -48.3633 N.am      20 UNK        -0.5000 
    110 CA        -4.5357  -15.8674  -48.2922 C.3       20 UNK         0.1400 
    111 CB        -5.4989  -14.7255  -47.9324 C.3       20 UNK        -0.1800 
    112 C         -3.7600  -15.5152  -49.5757 C.2       20 UNK         0.5000 
    113 O         -2.7585  -14.8035  -49.5046 O.2       20 UNK        -0.5000 
    114 N         -4.2479  -16.0065  -50.7202 N.am      21 UNK        -0.5000 
    115 CA        -3.6545  -15.7886  -52.0363 C.3       21 UNK         0.1400 
    116 CB        -4.7653  -15.9134  -53.0919 C.3       21 UNK        -0.1800 
    117 C         -2.5107  -16.7677  -52.3591 C.2       21 UNK         0.5000 
    118 O         -1.7428  -16.4921  -53.2810 O.2       21 UNK        -0.5000 
    119 N         -2.4378  -17.8990  -51.6420 N.am      22 UNK        -0.5000 
    120 CA        -1.6285  -19.0748  -51.9973 C.3       22 UNK         0.1400 
    121 C         -2.0492  -19.6737  -53.3760 C.2       22 UNK         0.5000 
    122 N         -3.3315  -19.9609  -53.5533 N.am      22 UNK        -0.7600 
    123 O         -1.2459  -19.8506  -54.2886 O.2       22 UNK        -0.5000 
    124 C124       -0.1039  -18.8349  -51.8297 C.3       23 UNK        -0.0398 
    125 S125        0.8190  -20.4039  -51.6983 S.3       23 UNK        -0.2404 
    126 C126        2.5133  -19.8559  -52.0691 C.3       23 UNK        -0.0205 
    127 H127        0.2960  -14.7332  -52.8343 H         1 UNK         0.0600 
    128 H128        1.1241  -15.9434  -51.8553 H         1 UNK         0.0600 
    129 H129        2.0402  -14.9551  -53.0012 H         1 UNK         0.0600 
    130 H130        1.9926  -15.3049  -49.8649 H         1 UNK         0.3000 
    131 H131        2.5419  -12.5322  -49.1973 H         1 UNK         0.0600 
    132 H132        4.1881  -13.8694  -48.3023 H         1 UNK         0.0800 
    133 H133        3.1793  -13.6055  -46.9250 H         1 UNK         0.0800 
    134 H134        5.3388  -16.3934  -48.2735 H         1 UNK         0.0800 
    135 H135        4.4220  -15.8550  -49.6584 H         1 UNK         0.0800 
    136 H136        3.0680  -17.3992  -50.9836 H         1 UNK         0.1150 
    137 H137        3.6348  -21.5921  -50.3390 H         1 UNK         0.1150 
    138 H138        5.1277  -18.7708  -47.4766 H         1 UNK         0.1150 
    139 H139        5.2091  -22.3102  -48.5910 H         1 UNK         0.0800 
    140 H140        5.8511  -21.1665  -47.4407 H         1 UNK         0.0800 
    141 H141        2.6969  -23.0086  -48.6610 H         1 UNK         0.0800 
    142 H142        1.8116  -21.5840  -48.1517 H         1 UNK         0.0800 
    143 H143        1.8256  -24.2914  -46.7289 H         1 UNK         0.0600 
    144 H144        0.7713  -21.7411  -45.8358 H         1 UNK         0.3000 
    145 H145       -1.1846  -23.1557  -43.1924 H         1 UNK         0.0600 
    146 H146        0.2010  -21.5778  -41.8931 H         1 UNK         0.0600 
    147 H147        1.1773  -22.9620  -42.3600 H         1 UNK         0.0600 
    148 H148        1.3532  -21.4353  -43.2192 H         1 UNK         0.0600 
    149 H149       -0.8081  -20.4571  -43.9514 H         1 UNK         0.3000 
    150 H150       -3.3901  -20.2755  -46.4316 H         1 UNK         0.0600 
    151 H151       -4.5652  -20.1402  -44.2466 H         1 UNK         0.0600 
    152 H152       -4.2097  -18.5356  -44.8689 H         1 UNK         0.0600 
    153 H153       -3.2310  -19.2147  -43.5695 H         1 UNK         0.0600 
    154 H154       -1.8464  -18.1878  -45.4580 H         1 UNK         0.3000 
    155 H155        0.9701  -18.4869  -47.6668 H         1 UNK         0.0600 
    156 H156       -1.3780  -16.5421  -47.3235 H         1 UNK         0.0600 
    157 H157        0.1471  -16.1977  -48.1286 H         1 UNK         0.0600 
    158 H158       -0.9625  -17.3720  -48.8134 H         1 UNK         0.0600 
    159 H159        0.3448  -16.6713  -45.5416 H         1 UNK         0.3000 
    160 H160        2.1827  -18.3699  -42.9804 H         1 UNK         0.0600 
    161 H161        2.5930  -15.7489  -44.5190 H         1 UNK         0.0600 
    162 H162        3.8033  -17.0025  -44.2893 H         1 UNK         0.0600 
    163 H163        3.2012  -16.1033  -42.9029 H         1 UNK         0.0600 
    164 H164        0.5843  -15.9670  -43.0840 H         1 UNK         0.3000 
    165 H165       -2.4953  -17.4645  -42.1091 H         1 UNK         0.0600 
    166 H166       -2.2843  -15.9861  -40.1323 H         1 UNK         0.0600 
    167 H167       -1.2560  -17.3968  -39.9385 H         1 UNK         0.0600 
    168 H168       -0.5430  -15.8504  -40.3824 H         1 UNK         0.0600 
    169 H169       -1.6846  -14.7441  -42.2887 H         1 UNK         0.3000 
    170 H170       -1.7202  -14.2976  -45.7418 H         1 UNK         0.0600 
    171 H171       -4.2202  -14.5317  -45.3766 H         1 UNK         0.0600 
    172 H172       -4.0831  -13.4839  -43.9749 H         1 UNK         0.0600 
    173 H173       -3.6935  -12.8684  -45.5825 H         1 UNK         0.0600 
    174 H174       -1.9362  -12.2445  -43.9639 H         1 UNK         0.3000 
    175 H175        0.1550  -11.4973  -42.3241 H         1 UNK         0.0600 
    176 H176        2.3273  -11.9073  -44.4508 H         1 UNK         0.0600 
    177 H177        2.3642  -10.6773  -43.1871 H         1 UNK         0.0600 
    178 H178        2.4309  -12.3790  -42.7578 H         1 UNK         0.0600 
    179 H179        0.3017  -10.6272  -45.1745 H         1 UNK         0.3000 
    180 H180       -2.8777   -9.0629  -45.0398 H         1 UNK         0.0600 
    181 H181       -0.0823   -8.0278  -45.7386 H         1 UNK         0.0600 
    182 H182       -1.2789   -7.2463  -44.7225 H         1 UNK         0.0600 
    183 H183       -1.5892   -7.4397  -46.4409 H         1 UNK         0.0600 
    184 H184       -2.8030  -10.5140  -46.6787 H         1 UNK         0.3000 
    185 H185       -1.8361  -12.4065  -47.8444 H         1 UNK         0.0600 
    186 H186       -2.9040  -10.5398  -49.1315 H         1 UNK         0.0600 
    187 H187       -1.3850  -10.2274  -49.9639 H         1 UNK         0.0600 
    188 H188       -2.2417  -11.7484  -50.2179 H         1 UNK         0.0600 
    189 H189        0.2804  -12.0185  -49.7644 H         1 UNK         0.3000 
    190 H190       -0.7917  -22.0773  -47.7912 H         1 UNK         0.3000 
    191 H191       -1.6251  -23.4660  -50.0711 H         1 UNK         0.0600 
    192 H192       -3.2841  -21.7634  -48.1612 H         1 UNK         0.0600 
    193 H193       -3.6935  -22.1234  -49.8327 H         1 UNK         0.0600 
    194 H194       -2.2910  -21.1313  -49.4667 H         1 UNK         0.0600 
    195 H195       -2.6028  -23.9497  -46.6518 H         1 UNK         0.3000 
    196 H196       -4.6671  -25.8275  -47.0846 H         1 UNK         0.0600 
    197 H197       -4.2296  -26.4418  -44.6838 H         1 UNK         0.0600 
    198 H198       -4.3201  -24.7039  -44.9191 H         1 UNK         0.0600 
    199 H199       -2.7524  -25.4837  -44.7154 H         1 UNK         0.0600 
    200 H200       -1.1386  -26.2845  -46.9214 H         1 UNK         0.3000 
    201 H201       -1.2532  -29.1954  -46.9983 H         1 UNK         0.0600 
    202 H202        0.6457  -28.0007  -45.9233 H         1 UNK         0.0600 
    203 H203        1.0825  -27.2654  -47.4637 H         1 UNK         0.0600 
    204 H204        1.2051  -29.0061  -47.2516 H         1 UNK         0.0600 
    205 H205       -0.7762  -26.5430  -49.3408 H         1 UNK         0.3000 
    206 H206       -0.2938  -28.2166  -51.6258 H         1 UNK         0.0600 
    207 H207        0.4711  -25.8349  -51.4145 H         1 UNK         0.0600 
    208 H208       -0.4903  -26.0826  -52.8650 H         1 UNK         0.0600 
    209 H209       -1.2073  -25.2960  -51.4674 H         1 UNK         0.0600 
    210 H210       -3.1943  -27.2463  -50.0343 H         1 UNK         0.3000 
    211 H211       -5.3659  -27.5022  -50.3031 H         1 UNK         0.0600 
    212 H212       -4.8569  -29.3331  -52.7082 H         1 UNK         0.0600 
    213 H213       -6.3598  -29.1625  -51.8157 H         1 UNK         0.0600 
    214 H214       -4.9543  -29.8637  -51.0295 H         1 UNK         0.0600 
    215 H215       -4.2732  -25.2375  -51.0263 H         1 UNK         0.3000 
    216 H216       -5.5643  -24.3104  -53.5664 H         1 UNK         0.0600 
    217 H217       -3.7237  -22.6872  -53.6919 H         1 UNK         0.0600 
    218 H218       -3.0130  -24.2784  -53.5141 H         1 UNK         0.0600 
    219 H219       -3.0878  -23.1905  -52.1304 H         1 UNK         0.0600 
    220 H220       -5.9552  -21.8574  -53.4133 H         1 UNK         0.3000 
    221 H221       -7.7580  -21.2135  -51.2816 H         1 UNK         0.0600 
    222 H222       -6.4826  -19.4555  -53.4533 H         1 UNK         0.0600 
    223 H223       -8.0186  -20.3120  -53.5843 H         1 UNK         0.0600 
    224 H224       -7.8417  -18.9940  -52.4369 H         1 UNK         0.0600 
    225 H225       -7.4034  -20.1930  -49.4131 H         1 UNK         0.3000 
    226 H226       -5.0749  -20.3959  -48.1089 H         1 UNK         0.0600 
    227 H227       -7.1925  -20.3094  -46.9645 H         1 UNK         0.0600 
    228 H228       -6.1968  -19.0306  -46.2972 H         1 UNK         0.0600 
    229 H229       -7.4781  -18.6392  -47.4398 H         1 UNK         0.0600 
    230 H230       -6.2909  -17.0515  -48.1986 H         1 UNK         0.3000 
    231 H231       -3.8049  -15.9696  -47.4870 H         1 UNK         0.0600 
    232 H232       -4.9629  -13.7817  -47.8220 H         1 UNK         0.0600 
    233 H233       -6.0123  -14.9201  -46.9908 H         1 UNK         0.0600 
    234 H234       -6.2573  -14.5825  -48.7032 H         1 UNK         0.0600 
    235 H235       -5.0693  -16.5915  -50.6789 H         1 UNK         0.3000 
    236 H236       -3.2483  -14.7759  -52.0849 H         1 UNK         0.0600 
    237 H237       -5.5630  -15.1921  -52.9138 H         1 UNK         0.0600 
    238 H238       -4.3763  -15.7253  -54.0935 H         1 UNK         0.0600 
    239 H239       -5.2069  -16.9111  -53.0943 H         1 UNK         0.0600 
    240 H240       -3.1056  -18.0502  -50.8948 H         1 UNK         0.3000 
    241 H241       -1.9104  -19.8291  -51.2644 H         1 UNK         0.0600 
    242 H242       -3.9745  -19.8554  -52.7709 H         1 UNK         0.3800 
    243 H243       -3.6461  -20.3150  -54.4410 H         1 UNK         0.3800 
    244 H244        0.2827  -18.2397  -52.6579 H         1 UNK         0.0800 
    245 H245        0.0893  -18.2638  -50.9209 H         1 UNK         0.0800 
    246 H246        3.0319  -20.6572  -52.5975 H         1 UNK         0.0800 
    247 H247        2.5050  -19.0028  -52.7489 H         1 UNK         0.0800 
@<TRIPOS>BOND
     1    1    2 1    
     2    1  127 1    
     3    1  128 1    
     4    1  129 1    
     5    2    3 2    
     6    2    4 am   BACKBONE|DICT|INTERRES
     7    4    5 1    
     8    4  130 1    
     9    5    6 1    
    10    5   65 1    
    11    5  131 1    
    12    6    7 1    
    13    6  132 1    
    14    6  133 1    
    15    7    8 1    
    16    8    9 1    
    17    8  134 1    
    18    8  135 1    
    19    9   10 ar   
    20    9   14 ar   
    21   10   11 ar   
    22   10  136 1    
    23   11   12 ar   
    24   11  126 1    
    25   12   13 ar   
    26   12  137 1    
    27   13   14 ar   
    28   13   15 1    
    29   14  138 1    
    30   15   16 1    
    31   15  139 1    
    32   15  140 1    
    33   16   17 1    
    34   17   18 1    
    35   17  141 1    
    36   17  142 1    
    37   18   19 1    
    38   18   67 1    
    39   18  143 1    
    40   19   20 am   BACKBONE|DICT|INTERRES
    41   19  144 1    
    42   20   21 2    
    43   20   22 1    
    44   22   23 1    
    45   22   24 1    
    46   22  145 1    
    47   23  146 1    
    48   23  147 1    
    49   23  148 1    
    50   24   25 am   BACKBONE|DICT|INTERRES
    51   24  149 1    
    52   25   26 2    
    53   25   27 1    
    54   27   28 1    
    55   27   29 1    
    56   27  150 1    
    57   28  151 1    
    58   28  152 1    
    59   28  153 1    
    60   29   30 am   BACKBONE|DICT|INTERRES
    61   29  154 1    
    62   30   31 2    
    63   30   32 1    
    64   32   33 1    
    65   32   34 1    
    66   32  155 1    
    67   33  156 1    
    68   33  157 1    
    69   33  158 1    
    70   34   35 am   BACKBONE|DICT|INTERRES
    71   34  159 1    
    72   35   36 2    
    73   35   37 1    
    74   37   38 1    
    75   37   39 1    
    76   37  160 1    
    77   38  161 1    
    78   38  162 1    
    79   38  163 1    
    80   39   40 am   BACKBONE|DICT|INTERRES
    81   39  164 1    
    82   40   41 2    
    83   40   42 1    
    84   42   43 1    
    85   42   44 1    
    86   42  165 1    
    87   43  166 1    
    88   43  167 1    
    89   43  168 1    
    90   44   45 am   BACKBONE|DICT|INTERRES
    91   44  169 1    
    92   45   46 2    
    93   45   47 1    
    94   47   48 1    
    95   47   49 1    
    96   47  170 1    
    97   48  171 1    
    98   48  172 1    
    99   48  173 1    
   100   49   50 am   BACKBONE|DICT|INTERRES
   101   49  174 1    
   102   50   51 2    
   103   50   52 1    
   104   52   53 1    
   105   52   54 1    
   106   52  175 1    
   107   53  176 1    
   108   53  177 1    
   109   53  178 1    
   110   54   55 am   BACKBONE|DICT|INTERRES
   111   54  179 1    
   112   55   56 2    
   113   55   57 1    
   114   57   58 1    
   115   57   59 1    
   116   57  180 1    
   117   58  181 1    
   118   58  182 1    
   119   58  183 1    
   120   59   60 am   BACKBONE|DICT|INTERRES
   121   59  184 1    
   122   60   61 2    
   123   60   62 1    
   124   62   63 1    
   125   62   64 1    
   126   62  185 1    
   127   63  186 1    
   128   63  187 1    
   129   63  188 1    
   130   64   65 am   BACKBONE|DICT|INTERRES
   131   64  189 1    
   132   65   66 2    
   133   67   68 2    
   134   67   69 am   BACKBONE|DICT|INTERRES
   135   69   70 1    
   136   69  190 1    
   137   70   71 1    
   138   70   72 1    
   139   70  191 1    
   140   71  192 1    
   141   71  193 1    
   142   71  194 1    
   143   72   73 2    
   144   72   74 am   BACKBONE|DICT|INTERRES
   145   74   75 1    
   146   74  195 1    
   147   75   76 1    
   148   75   77 1    
   149   75  196 1    
   150   76  197 1    
   151   76  198 1    
   152   76  199 1    
   153   77   78 2    
   154   77   79 am   BACKBONE|DICT|INTERRES
   155   79   80 1    
   156   79  200 1    
   157   80   81 1    
   158   80   82 1    
   159   80  201 1    
   160   81  202 1    
   161   81  203 1    
   162   81  204 1    
   163   82   83 2    
   164   82   84 am   BACKBONE|DICT|INTERRES
   165   84   85 1    
   166   84  205 1    
   167   85   86 1    
   168   85   87 1    
   169   85  206 1    
   170   86  207 1    
   171   86  208 1    
   172   86  209 1    
   173   87   88 2    
   174   87   89 am   BACKBONE|DICT|INTERRES
   175   89   90 1    
   176   89  210 1    
   177   90   91 1    
   178   90   92 1    
   179   90  211 1    
   180   91  212 1    
   181   91  213 1    
   182   91  214 1    
   183   92   93 2    
   184   92   94 am   BACKBONE|DICT|INTERRES
   185   94   95 1    
   186   94  215 1    
   187   95   96 1    
   188   95   97 1    
   189   95  216 1    
   190   96  217 1    
   191   96  218 1    
   192   96  219 1    
   193   97   98 2    
   194   97   99 am   BACKBONE|DICT|INTERRES
   195   99  100 1    
   196   99  220 1    
   197  100  101 1    
   198  100  102 1    
   199  100  221 1    
   200  101  222 1    
   201  101  223 1    
   202  101  224 1    
   203  102  103 2    
   204  102  104 am   BACKBONE|DICT|INTERRES
   205  104  105 1    
   206  104  225 1    
   207  105  106 1    
   208  105  107 1    
   209  105  226 1    
   210  106  227 1    
   211  106  228 1    
   212  106  229 1    
   213  107  108 2    
   214  107  109 am   BACKBONE|DICT|INTERRES
   215  109  110 1    
   216  109  230 1    
   217  110  111 1    
   218  110  112 1    
   219  110  231 1    
   220  111  232 1    
   221  111  233 1    
   222  111  234 1    
   223  112  113 2    
   224  112  114 am   BACKBONE|DICT|INTERRES
   225  114  115 1    
   226  114  235 1    
   227  115  116 1    
   228  115  117 1    
   229  115  236 1    
   230  116  237 1    
   231  116  238 1    
   232  116  239 1    
   233  117  118 2    
   234  117  119 am   BACKBONE|DICT|INTERRES
   235  119  120 1    
   236  119  240 1    
   237  120  121 1    
   238  120  124 1    
   239  120  241 1    
   240  121  122 am   BACKBONE|DICT|INTERRES
   241  121  123 2    
   242  122  242 1    
   243  122  243 1    
   244  124  125 1    
   245  124  244 1    
   246  124  245 1    
   247  125  126 1    
   248  126  246 1    
   249  126  247 1    
@<TRIPOS>SUBSTRUCTURE
     1 UNK         1 GROUP             0       ****    0 ROOT    
