@<TRIPOS>MOLECULE
3R540
247   249    1
SMALL
USER_CHARGES


@<TRIPOS>ATOM
      1 CA         -6.4467  -15.8017  -46.9821 C.3       0 UNK        -0.1800 
      2 C          -5.5885  -14.6356  -46.5115 C.2       0 UNK         0.5000 
      3 O          -6.0546  -13.8043  -45.7330 O.2       0 UNK        -0.5000 
      4 N          -4.3360  -14.5783  -46.9808 N.am      1 UNK        -0.5000 
      5 CA         -3.3073  -13.6045  -46.5874 C.3       1 UNK         0.1400 
      6 C6         -2.0822  -13.6207  -47.5437 C.3       23 UNK        -0.0398 
      7 S7         -1.5966  -15.2941  -48.1009 S.3       23 UNK        -0.2404 
      8 C8         -0.6968  -14.9391  -49.6437 C.3       23 UNK        -0.0205 
      9 C9         -0.6707  -16.1784  -50.5225 C.ar      23 UNK        -0.0193 
     10 C10        -1.4887  -16.2624  -51.6533 C.ar      23 UNK        -0.1150 
     11 C11        -1.5420  -17.4414  -52.4016 C.ar      23 UNK        -0.0193 
     12 C12        -0.7934  -18.5462  -51.9930 C.ar      23 UNK        -0.1150 
     13 C13         0.0526  -18.4683  -50.8839 C.ar      23 UNK        -0.0193 
     14 C14         0.1300  -17.2677  -50.1696 C.ar      23 UNK        -0.1150 
     15 C15         0.8300  -19.7064  -50.4424 C.3       23 UNK        -0.0205 
     16 S16         0.7975  -19.9979  -48.6380 S.3       23 UNK        -0.2404 
     17 C17        -0.9673  -19.7495  -48.2413 C.3       23 UNK        -0.0398 
     18 CA         -1.5946  -20.9116  -47.4481 C.3       11 UNK         0.1400 
     19 N          -0.9025  -21.2094  -46.1914 N.am      11 UNK        -0.5000 
     20 C          -1.1823  -22.2628  -45.4104 C.2       10 UNK         0.5000 
     21 O          -2.0039  -23.1299  -45.7034 O.2       10 UNK        -0.5000 
     22 CA         -0.4743  -22.3283  -44.0481 C.3       10 UNK         0.1400 
     23 CB          0.8909  -23.0230  -44.1652 C.3       10 UNK        -0.1800 
     24 N          -0.3148  -20.9960  -43.4659 N.am      10 UNK        -0.5000 
     25 C          -1.3232  -20.2849  -42.9421 C.2       9 UNK         0.5000 
     26 O          -2.4792  -20.7021  -42.8580 O.2       9 UNK        -0.5000 
     27 CA         -0.9968  -18.8546  -42.4739 C.3       9 UNK         0.1400 
     28 CB         -0.3771  -18.8688  -41.0692 C.3       9 UNK        -0.1800 
     29 N          -0.1002  -18.1411  -43.3844 N.am      9 UNK        -0.5000 
     30 C          -0.3506  -17.8481  -44.6664 C.2       8 UNK         0.5000 
     31 O          -1.4413  -18.0417  -45.2012 O.2       8 UNK        -0.5000 
     32 CA          0.8215  -17.2992  -45.5089 C.3       8 UNK         0.1400 
     33 CB          0.7973  -15.7677  -45.5982 C.3       8 UNK        -0.1800 
     34 N           2.1482  -17.7312  -45.0603 N.am      8 UNK        -0.5000 
     35 C           2.5532  -19.0069  -44.9695 C.2       7 UNK         0.5000 
     36 O           1.8183  -19.9633  -45.2180 O.2       7 UNK        -0.5000 
     37 CA          4.0027  -19.2534  -44.4952 C.3       7 UNK         0.1400 
     38 CB          4.5353  -20.6454  -44.8943 C.3       7 UNK        -0.1800 
     39 N           4.9316  -18.1961  -44.9063 N.am      7 UNK        -0.5000 
     40 C           5.2203  -17.8066  -46.1586 C.2       6 UNK         0.5000 
     41 O           4.8193  -18.3915  -47.1655 O.2       6 UNK        -0.5000 
     42 CA          6.1011  -16.5445  -46.3157 C.3       6 UNK         0.1400 
     43 CB          5.6525  -15.6755  -47.5097 C.3       6 UNK        -0.1800 
     44 N           6.2184  -15.7175  -45.1040 N.am      6 UNK        -0.5000 
     45 C           5.2262  -15.1167  -44.4313 C.2       5 UNK         0.5000 
     46 O           4.0326  -15.2118  -44.7263 O.2       5 UNK        -0.5000 
     47 CA          5.6476  -14.2715  -43.2166 C.3       5 UNK         0.1400 
     48 CB          5.7072  -12.7838  -43.5945 C.3       5 UNK        -0.1800 
     49 N           4.7236  -14.4390  -42.0979 N.am      5 UNK        -0.5000 
     50 C           4.5423  -15.5712  -41.4031 C.2       4 UNK         0.5000 
     51 O           5.1944  -16.6005  -41.5860 O.2       4 UNK        -0.5000 
     52 CA          3.4304  -15.5460  -40.3340 C.3       4 UNK         0.1400 
     53 CB          3.9946  -15.1012  -38.9762 C.3       4 UNK        -0.1800 
     54 N           2.3194  -14.6654  -40.7095 N.am      4 UNK        -0.5000 
     55 C           1.4572  -14.9482  -41.6940 C.2       3 UNK         0.5000 
     56 O           1.4593  -16.0216  -42.2984 O.2       3 UNK        -0.5000 
     57 CA          0.4807  -13.8228  -42.0923 C.3       3 UNK         0.1400 
     58 CB          1.2001  -12.7648  -42.9463 C.3       3 UNK        -0.1800 
     59 N          -0.6857  -14.3081  -42.8338 N.am      3 UNK        -0.5000 
     60 C          -1.7004  -14.9922  -42.2936 C.2       2 UNK         0.5000 
     61 O          -1.7392  -15.2960  -41.1002 O.2       2 UNK        -0.5000 
     62 CA         -2.8720  -15.4229  -43.2079 C.3       2 UNK         0.1400 
     63 CB         -4.2356  -15.0634  -42.5833 C.3       2 UNK        -0.1800 
     64 N          -2.8392  -14.9929  -44.6134 N.am      2 UNK        -0.5000 
     65 C          -2.9116  -13.7441  -45.0987 C.2       1 UNK         0.5000 
     66 O          -2.7445  -12.7308  -44.4202 O.2       1 UNK        -0.5000 
     67 C          -3.0888  -20.6221  -47.2145 C.2       11 UNK         0.5000 
     68 O          -3.9226  -21.1549  -47.9416 O.2       11 UNK        -0.5000 
     69 N          -3.4089  -19.8125  -46.1949 N.am      12 UNK        -0.5000 
     70 CA         -4.7781  -19.4965  -45.7857 C.3       12 UNK         0.1400 
     71 CB         -4.7594  -18.4094  -44.7020 C.3       12 UNK        -0.1800 
     72 C          -5.5586  -20.7387  -45.3193 C.2       12 UNK         0.5000 
     73 O          -6.7166  -20.9007  -45.7041 O.2       12 UNK        -0.5000 
     74 N          -4.8955  -21.6272  -44.5638 N.am      13 UNK        -0.5000 
     75 CA         -5.4292  -22.9325  -44.1605 C.3       13 UNK         0.1400 
     76 CB         -4.4831  -23.5795  -43.1382 C.3       13 UNK        -0.1800 
     77 C          -5.6795  -23.8782  -45.3548 C.2       13 UNK         0.5000 
     78 O          -6.6470  -24.6392  -45.3360 O.2       13 UNK        -0.5000 
     79 N          -4.8325  -23.7790  -46.3878 N.am      14 UNK        -0.5000 
     80 CA         -4.9550  -24.4775  -47.6697 C.3       14 UNK         0.1400 
     81 CB         -3.5509  -24.6482  -48.2739 C.3       14 UNK        -0.1800 
     82 C          -5.9121  -23.7832  -48.6663 C.2       14 UNK         0.5000 
     83 O          -6.0220  -24.2445  -49.8014 O.2       14 UNK        -0.5000 
     84 N          -6.5878  -22.7073  -48.2352 N.am      15 UNK        -0.5000 
     85 CA         -7.5609  -21.9003  -48.9760 C.3       15 UNK         0.1400 
     86 CB         -8.8108  -22.7253  -49.3487 C.3       15 UNK        -0.1800 
     87 C          -6.9515  -21.1111  -50.1548 C.2       15 UNK         0.5000 
     88 O          -7.5602  -21.0196  -51.2228 O.2       15 UNK        -0.5000 
     89 N          -5.7761  -20.5140  -49.9102 N.am      16 UNK        -0.5000 
     90 CA         -5.0651  -19.5269  -50.7270 C.3       16 UNK         0.1400 
     91 CB         -5.8046  -18.1727  -50.6987 C.3       16 UNK        -0.1800 
     92 C          -4.7639  -20.0296  -52.1484 C.2       16 UNK         0.5000 
     93 O          -3.7805  -20.7408  -52.3368 O.2       16 UNK        -0.5000 
     94 N          -5.6072  -19.6688  -53.1251 N.am      17 UNK        -0.5000 
     95 CA         -5.4975  -20.0707  -54.5310 C.3       17 UNK         0.1400 
     96 CB         -6.5799  -19.3407  -55.3401 C.3       17 UNK        -0.1800 
     97 C          -5.5812  -21.5941  -54.7614 C.2       17 UNK         0.5000 
     98 O          -5.0960  -22.0752  -55.7855 O.2       17 UNK        -0.5000 
     99 N          -6.1768  -22.3229  -53.8082 N.am      18 UNK        -0.5000 
    100 CA        -6.2487  -23.7830  -53.7992 C.3       18 UNK         0.1400 
    101 CB        -7.4867  -24.2053  -52.9955 C.3       18 UNK        -0.1800 
    102 C         -4.9692  -24.4668  -53.2653 C.2       18 UNK         0.5000 
    103 O         -4.8837  -25.6944  -53.3410 O.2       18 UNK        -0.5000 
    104 N         -3.9983  -23.6974  -52.7458 N.am      19 UNK        -0.5000 
    105 CA        -2.6953  -24.1984  -52.2995 C.3       19 UNK         0.1400 
    106 CB        -1.9911  -23.1188  -51.4590 C.3       19 UNK        -0.1800 
    107 C         -1.8021  -24.6428  -53.4778 C.2       19 UNK         0.5000 
    108 O         -2.0811  -24.3230  -54.6362 O.2       19 UNK        -0.5000 
    109 N         -0.7261  -25.3714  -53.1517 N.am      20 UNK        -0.5000 
    110 CA         0.2178  -25.9626  -54.1075 C.3       20 UNK         0.1400 
    111 CB         1.1440  -26.9276  -53.3505 C.3       20 UNK        -0.1800 
    112 C          1.0503  -24.9454  -54.9170 C.2       20 UNK         0.5000 
    113 O          1.5754  -25.3046  -55.9721 O.2       20 UNK        -0.5000 
    114 N          1.1608  -23.7087  -54.4225 N.am      21 UNK        -0.5000 
    115 CA         1.8330  -22.5893  -55.0711 C.3       21 UNK         0.1400 
    116 CB         3.3242  -22.5897  -54.6918 C.3       21 UNK        -0.1800 
    117 C          1.1484  -21.2885  -54.6319 C.2       21 UNK         0.5000 
    118 O          0.5032  -21.2663  -53.5823 O.2       21 UNK        -0.5000 
    119 N          1.3151  -20.2332  -55.4321 N.am      22 UNK        -0.5000 
    120 CA         0.7929  -18.8816  -55.2042 C.3       22 UNK         0.1400 
    121 C          1.6506  -17.8730  -56.0138 C.2       22 UNK         0.5000 
    122 N          1.9608  -16.7126  -55.4527 N.am      22 UNK        -0.7600 
    123 O          2.0312  -18.1324  -57.1542 O.2       22 UNK        -0.5000 
    124 C124       -0.7226  -18.7942  -55.5397 C.3       23 UNK        -0.0398 
    125 S125       -1.5041  -17.1817  -55.1610 S.3       23 UNK        -0.2404 
    126 C126       -2.4281  -17.5335  -53.6332 C.3       23 UNK        -0.0205 
    127 H127       -6.8774  -16.3203  -46.1255 H         1 UNK         0.0600 
    128 H128       -5.8662  -16.5243  -47.5557 H         1 UNK         0.0600 
    129 H129       -7.2614  -15.4406  -47.6096 H         1 UNK         0.0600 
    130 H130       -4.0160  -15.2824  -47.6315 H         1 UNK         0.3000 
    131 H131       -3.7644  -12.6165  -46.6781 H         1 UNK         0.0600 
    132 H132       -1.2179  -13.1214  -47.1017 H         1 UNK         0.0800 
    133 H133       -2.3345  -13.0362  -48.4292 H         1 UNK         0.0800 
    134 H134        0.3207  -14.6229  -49.4096 H         1 UNK         0.0800 
    135 H135       -1.1702  -14.1114  -50.1736 H         1 UNK         0.0800 
    136 H136       -2.0990  -15.4177  -51.9404 H         1 UNK         0.1150 
    137 H137       -0.8768  -19.4718  -52.5426 H         1 UNK         0.1150 
    138 H138        0.7627  -17.1999  -49.2958 H         1 UNK         0.1150 
    139 H139        1.8656  -19.6099  -50.7697 H         1 UNK         0.0800 
    140 H140        0.4324  -20.5967  -50.9324 H         1 UNK         0.0800 
    141 H141       -1.5296  -19.6194  -49.1670 H         1 UNK         0.0800 
    142 H142       -1.0626  -18.8063  -47.7029 H         1 UNK         0.0800 
    143 H143       -1.5305  -21.8068  -48.0703 H         1 UNK         0.0600 
    144 H144       -0.1706  -20.5701  -45.9044 H         1 UNK         0.3000 
    145 H145       -1.0952  -22.9239  -43.3754 H         1 UNK         0.0600 
    146 H146        0.7709  -24.0524  -44.5048 H         1 UNK         0.0600 
    147 H147        1.4027  -23.0552  -43.2033 H         1 UNK         0.0600 
    148 H148        1.5454  -22.5222  -44.8783 H         1 UNK         0.0600 
    149 H149        0.5834  -20.5499  -43.6042 H         1 UNK         0.3000 
    150 H150       -1.9391  -18.3127  -42.4170 H         1 UNK         0.0600 
    151 H151        0.5914  -19.3701  -41.0604 H         1 UNK         0.0600 
    152 H152       -1.0245  -19.3873  -40.3608 H         1 UNK         0.0600 
    153 H153       -0.2326  -17.8549  -40.6948 H         1 UNK         0.0600 
    154 H154        0.7758  -17.8074  -42.9967 H         1 UNK         0.3000 
    155 H155        0.6803  -17.6873  -46.5184 H         1 UNK         0.0600 
    156 H156        1.2826  -15.3070  -44.7423 H         1 UNK         0.0600 
    157 H157       -0.2188  -15.3817  -45.6388 H         1 UNK         0.0600 
    158 H158        1.3177  -15.4223  -46.4916 H         1 UNK         0.0600 
    159 H159        2.8029  -16.9912  -44.8306 H         1 UNK         0.3000 
    160 H160        3.9693  -19.2157  -43.4055 H         1 UNK         0.0600 
    161 H161        4.5202  -20.7904  -45.9749 H         1 UNK         0.0600 
    162 H162        3.9293  -21.4369  -44.4519 H         1 UNK         0.0600 
    163 H163        5.5587  -20.7909  -44.5492 H         1 UNK         0.0600 
    164 H164        5.3092  -17.6379  -44.1527 H         1 UNK         0.3000 
    165 H165        7.1064  -16.9084  -46.5323 H         1 UNK         0.0600 
    166 H166        5.7103  -16.2319  -48.4459 H         1 UNK         0.0600 
    167 H167        4.6228  -15.3345  -47.3965 H         1 UNK         0.0600 
    168 H168        6.2872  -14.7962  -47.6188 H         1 UNK         0.0600 
    169 H169        7.1629  -15.5928  -44.7657 H         1 UNK         0.3000 
    170 H170        6.6391  -14.5881  -42.8863 H         1 UNK         0.0600 
    171 H171        6.0413  -12.1753  -42.7540 H         1 UNK         0.0600 
    172 H172        6.4070  -12.6167  -44.4144 H         1 UNK         0.0600 
    173 H173        4.7329  -12.4110  -43.9138 H         1 UNK         0.0600 
    174 H174        4.1154  -13.6598  -41.9007 H         1 UNK         0.3000 
    175 H175        3.0478  -16.5635  -40.2271 H         1 UNK         0.0600 
    176 H176        4.8108  -15.7527  -38.6612 H         1 UNK         0.0600 
    177 H177        4.3834  -14.0828  -39.0140 H         1 UNK         0.0600 
    178 H178        3.2304  -15.1411  -38.1997 H         1 UNK         0.0600 
    179 H179        2.2626  -13.7748  -40.2368 H         1 UNK         0.3000 
    180 H180        0.1247  -13.3429  -41.1783 H         1 UNK         0.0600 
    181 H181        1.6197  -13.1913  -43.8577 H         1 UNK         0.0600 
    182 H182        2.0219  -12.3062  -42.3953 H         1 UNK         0.0600 
    183 H183        0.5205  -11.9624  -43.2345 H         1 UNK         0.0600 
    184 H184       -0.7309  -14.0827  -43.8153 H         1 UNK         0.3000 
    185 H185       -2.8262  -16.5079  -43.2517 H         1 UNK         0.0600 
    186 H186       -4.3476  -15.5062  -41.5930 H         1 UNK         0.0600 
    187 H187       -4.3574  -13.9852  -42.4756 H         1 UNK         0.0600 
    188 H188       -5.0589  -15.4335  -43.1947 H         1 UNK         0.0600 
    189 H189       -2.9232  -15.7451  -45.2835 H         1 UNK         0.3000 
    190 H190       -2.6621  -19.3486  -45.6827 H         1 UNK         0.3000 
    191 H191       -5.2974  -19.0923  -46.6574 H         1 UNK         0.0600 
    192 H192       -4.3090  -17.4928  -45.0802 H         1 UNK         0.0600 
    193 H193       -5.7704  -18.1627  -44.3754 H         1 UNK         0.0600 
    194 H194       -4.1961  -18.7242  -43.8232 H         1 UNK         0.0600 
    195 H195       -3.9568  -21.4019  -44.2542 H         1 UNK         0.3000 
    196 H196       -6.3896  -22.7606  -43.6702 H         1 UNK         0.0600 
    197 H197       -4.8855  -24.5280  -42.7808 H         1 UNK         0.0600 
    198 H198       -4.3423  -22.9369  -42.2688 H         1 UNK         0.0600 
    199 H199       -3.5018  -23.7812  -43.5670 H         1 UNK         0.0600 
    200 H200       -4.0307  -23.1655  -46.2943 H         1 UNK         0.3000 
    201 H201       -5.3607  -25.4743  -47.4862 H         1 UNK         0.0600 
    202 H202       -3.5865  -25.2153  -49.2046 H         1 UNK         0.0600 
    203 H203       -2.8917  -25.1860  -47.5924 H         1 UNK         0.0600 
    204 H204       -3.0898  -23.6859  -48.4923 H         1 UNK         0.0600 
    205 H205       -6.4006  -22.3871  -47.2934 H         1 UNK         0.3000 
    206 H206       -7.8945  -21.1362  -48.2726 H         1 UNK         0.0600 
    207 H207       -9.2664  -23.1641  -48.4610 H         1 UNK         0.0600 
    208 H208       -9.5677  -22.0992  -49.8224 H         1 UNK         0.0600 
    209 H209       -8.5812  -23.5366  -50.0370 H         1 UNK         0.0600 
    210 H210       -5.2883  -20.7717  -49.0536 H         1 UNK         0.3000 
    211 H211       -4.0956  -19.3762  -50.2491 H         1 UNK         0.0600 
    212 H212       -5.8593  -17.7847  -49.6820 H         1 UNK         0.0600 
    213 H213       -5.2808  -17.4271  -51.2987 H         1 UNK         0.0600 
    214 H214       -6.8251  -18.2480  -51.0754 H         1 UNK         0.0600 
    215 H215       -6.4209  -19.1262  -52.8741 H         1 UNK         0.3000 
    216 H216       -4.5220  -19.7458  -54.8969 H         1 UNK         0.0600 
    217 H217       -7.5818  -19.6063  -55.0006 H         1 UNK         0.0600 
    218 H218       -6.5140  -19.5931  -56.3993 H         1 UNK         0.0600 
    219 H219       -6.4717  -18.2589  -55.2584 H         1 UNK         0.0600 
    220 H220       -6.5576  -21.8447  -52.9992 H         1 UNK         0.3000 
    221 H221       -6.3875  -24.1338  -54.8240 H         1 UNK         0.0600 
    222 H222       -7.4289  -23.8455  -51.9706 H         1 UNK         0.0600 
    223 H223       -8.4000  -23.8079  -53.4382 H         1 UNK         0.0600 
    224 H224       -7.5865  -25.2908  -52.9597 H         1 UNK         0.0600 
    225 H225       -4.1124  -22.6896  -52.7371 H         1 UNK         0.3000 
    226 H226       -2.8738  -25.0663  -51.6615 H         1 UNK         0.0600 
    227 H227       -2.6486  -22.7262  -50.6829 H         1 UNK         0.0600 
    228 H228       -1.1068  -23.5181  -50.9620 H         1 UNK         0.0600 
    229 H229       -1.6652  -22.2797  -52.0750 H         1 UNK         0.0600 
    230 H230       -0.5561  -25.5785  -52.1781 H         1 UNK         0.3000 
    231 H231       -0.3623  -26.5443  -54.8270 H         1 UNK         0.0600 
    232 H232        1.7353  -26.4074  -52.5958 H         1 UNK         0.0600 
    233 H233        1.8407  -27.4179  -54.0319 H         1 UNK         0.0600 
    234 H234        0.5754  -27.7126  -52.8516 H         1 UNK         0.0600 
    235 H235        0.6533  -23.4591  -53.5832 H         1 UNK         0.3000 
    236 H236        1.7297  -22.6788  -56.1547 H         1 UNK         0.0600 
    237 H237        3.4627  -22.4996  -53.6136 H         1 UNK         0.0600 
    238 H238        3.8143  -23.5078  -55.0165 H         1 UNK         0.0600 
    239 H239        3.8499  -21.7581  -55.1623 H         1 UNK         0.0600 
    240 H240        1.8828  -20.3180  -56.2655 H         1 UNK         0.3000 
    241 H241        0.9322  -18.6522  -54.1468 H         1 UNK         0.0600 
    242 H242        2.5131  -16.0481  -55.9722 H         1 UNK         0.3800 
    243 H243        1.6331  -16.4709  -54.5302 H         1 UNK         0.3800 
    244 H244       -1.2649  -19.5787  -55.0109 H         1 UNK         0.0800 
    245 H245       -0.8786  -18.9992  -56.6000 H         1 UNK         0.0800 
    246 H246       -2.8794  -18.5213  -53.6990 H         1 UNK         0.0800 
    247 H247       -3.2553  -16.8270  -53.5509 H         1 UNK         0.0800 
@<TRIPOS>BOND
     1    1    2 1    
     2    1  127 1    
     3    1  128 1    
     4    1  129 1    
     5    2    3 2    
     6    2    4 am   BACKBONE|DICT|INTERRES
     7    4    5 1    
     8    4  130 1    
     9    5    6 1    
    10    5   65 1    
    11    5  131 1    
    12    6    7 1    
    13    6  132 1    
    14    6  133 1    
    15    7    8 1    
    16    8    9 1    
    17    8  134 1    
    18    8  135 1    
    19    9   10 ar   
    20    9   14 ar   
    21   10   11 ar   
    22   10  136 1    
    23   11   12 ar   
    24   11  126 1    
    25   12   13 ar   
    26   12  137 1    
    27   13   14 ar   
    28   13   15 1    
    29   14  138 1    
    30   15   16 1    
    31   15  139 1    
    32   15  140 1    
    33   16   17 1    
    34   17   18 1    
    35   17  141 1    
    36   17  142 1    
    37   18   19 1    
    38   18   67 1    
    39   18  143 1    
    40   19   20 am   BACKBONE|DICT|INTERRES
    41   19  144 1    
    42   20   21 2    
    43   20   22 1    
    44   22   23 1    
    45   22   24 1    
    46   22  145 1    
    47   23  146 1    
    48   23  147 1    
    49   23  148 1    
    50   24   25 am   BACKBONE|DICT|INTERRES
    51   24  149 1    
    52   25   26 2    
    53   25   27 1    
    54   27   28 1    
    55   27   29 1    
    56   27  150 1    
    57   28  151 1    
    58   28  152 1    
    59   28  153 1    
    60   29   30 am   BACKBONE|DICT|INTERRES
    61   29  154 1    
    62   30   31 2    
    63   30   32 1    
    64   32   33 1    
    65   32   34 1    
    66   32  155 1    
    67   33  156 1    
    68   33  157 1    
    69   33  158 1    
    70   34   35 am   BACKBONE|DICT|INTERRES
    71   34  159 1    
    72   35   36 2    
    73   35   37 1    
    74   37   38 1    
    75   37   39 1    
    76   37  160 1    
    77   38  161 1    
    78   38  162 1    
    79   38  163 1    
    80   39   40 am   BACKBONE|DICT|INTERRES
    81   39  164 1    
    82   40   41 2    
    83   40   42 1    
    84   42   43 1    
    85   42   44 1    
    86   42  165 1    
    87   43  166 1    
    88   43  167 1    
    89   43  168 1    
    90   44   45 am   BACKBONE|DICT|INTERRES
    91   44  169 1    
    92   45   46 2    
    93   45   47 1    
    94   47   48 1    
    95   47   49 1    
    96   47  170 1    
    97   48  171 1    
    98   48  172 1    
    99   48  173 1    
   100   49   50 am   BACKBONE|DICT|INTERRES
   101   49  174 1    
   102   50   51 2    
   103   50   52 1    
   104   52   53 1    
   105   52   54 1    
   106   52  175 1    
   107   53  176 1    
   108   53  177 1    
   109   53  178 1    
   110   54   55 am   BACKBONE|DICT|INTERRES
   111   54  179 1    
   112   55   56 2    
   113   55   57 1    
   114   57   58 1    
   115   57   59 1    
   116   57  180 1    
   117   58  181 1    
   118   58  182 1    
   119   58  183 1    
   120   59   60 am   BACKBONE|DICT|INTERRES
   121   59  184 1    
   122   60   61 2    
   123   60   62 1    
   124   62   63 1    
   125   62   64 1    
   126   62  185 1    
   127   63  186 1    
   128   63  187 1    
   129   63  188 1    
   130   64   65 am   BACKBONE|DICT|INTERRES
   131   64  189 1    
   132   65   66 2    
   133   67   68 2    
   134   67   69 am   BACKBONE|DICT|INTERRES
   135   69   70 1    
   136   69  190 1    
   137   70   71 1    
   138   70   72 1    
   139   70  191 1    
   140   71  192 1    
   141   71  193 1    
   142   71  194 1    
   143   72   73 2    
   144   72   74 am   BACKBONE|DICT|INTERRES
   145   74   75 1    
   146   74  195 1    
   147   75   76 1    
   148   75   77 1    
   149   75  196 1    
   150   76  197 1    
   151   76  198 1    
   152   76  199 1    
   153   77   78 2    
   154   77   79 am   BACKBONE|DICT|INTERRES
   155   79   80 1    
   156   79  200 1    
   157   80   81 1    
   158   80   82 1    
   159   80  201 1    
   160   81  202 1    
   161   81  203 1    
   162   81  204 1    
   163   82   83 2    
   164   82   84 am   BACKBONE|DICT|INTERRES
   165   84   85 1    
   166   84  205 1    
   167   85   86 1    
   168   85   87 1    
   169   85  206 1    
   170   86  207 1    
   171   86  208 1    
   172   86  209 1    
   173   87   88 2    
   174   87   89 am   BACKBONE|DICT|INTERRES
   175   89   90 1    
   176   89  210 1    
   177   90   91 1    
   178   90   92 1    
   179   90  211 1    
   180   91  212 1    
   181   91  213 1    
   182   91  214 1    
   183   92   93 2    
   184   92   94 am   BACKBONE|DICT|INTERRES
   185   94   95 1    
   186   94  215 1    
   187   95   96 1    
   188   95   97 1    
   189   95  216 1    
   190   96  217 1    
   191   96  218 1    
   192   96  219 1    
   193   97   98 2    
   194   97   99 am   BACKBONE|DICT|INTERRES
   195   99  100 1    
   196   99  220 1    
   197  100  101 1    
   198  100  102 1    
   199  100  221 1    
   200  101  222 1    
   201  101  223 1    
   202  101  224 1    
   203  102  103 2    
   204  102  104 am   BACKBONE|DICT|INTERRES
   205  104  105 1    
   206  104  225 1    
   207  105  106 1    
   208  105  107 1    
   209  105  226 1    
   210  106  227 1    
   211  106  228 1    
   212  106  229 1    
   213  107  108 2    
   214  107  109 am   BACKBONE|DICT|INTERRES
   215  109  110 1    
   216  109  230 1    
   217  110  111 1    
   218  110  112 1    
   219  110  231 1    
   220  111  232 1    
   221  111  233 1    
   222  111  234 1    
   223  112  113 2    
   224  112  114 am   BACKBONE|DICT|INTERRES
   225  114  115 1    
   226  114  235 1    
   227  115  116 1    
   228  115  117 1    
   229  115  236 1    
   230  116  237 1    
   231  116  238 1    
   232  116  239 1    
   233  117  118 2    
   234  117  119 am   BACKBONE|DICT|INTERRES
   235  119  120 1    
   236  119  240 1    
   237  120  121 1    
   238  120  124 1    
   239  120  241 1    
   240  121  122 am   BACKBONE|DICT|INTERRES
   241  121  123 2    
   242  122  242 1    
   243  122  243 1    
   244  124  125 1    
   245  124  244 1    
   246  124  245 1    
   247  125  126 1    
   248  126  246 1    
   249  126  247 1    
@<TRIPOS>SUBSTRUCTURE
     1 UNK         1 GROUP             0       ****    0 ROOT    
