@<TRIPOS>MOLECULE
3R540
247   249    1
SMALL
USER_CHARGES


@<TRIPOS>ATOM
      1 CA         -5.7197  -16.6111  -48.4314 C.3       0 UNK        -0.1800 
      2 C          -4.7410  -15.4455  -48.3820 C.2       0 UNK         0.5000 
      3 O          -5.1716  -14.2921  -48.4114 O.2       0 UNK        -0.5000 
      4 N          -3.4338  -15.7337  -48.3268 N.am      1 UNK        -0.5000 
      5 CA         -2.3685  -14.7233  -48.2564 C.3       1 UNK         0.1400 
      6 C6         -1.0038  -15.2923  -48.7209 C.3       23 UNK        -0.0398 
      7 S7          0.0533  -14.0119  -49.4878 S.3       23 UNK        -0.2404 
      8 C8          1.5610  -14.9431  -49.9299 C.3       23 UNK        -0.0205 
      9 C9          1.2478  -16.2101  -50.7126 C.ar      23 UNK        -0.0193 
     10 C10         0.6658  -16.1349  -51.9794 C.ar      23 UNK        -0.1150 
     11 C11         0.2819  -17.2967  -52.6532 C.ar      23 UNK        -0.0193 
     12 C12         0.4835  -18.5413  -52.0474 C.ar      23 UNK        -0.1150 
     13 C13         1.0791  -18.6364  -50.7848 C.ar      23 UNK        -0.0193 
     14 C14         1.4883  -17.4607  -50.1409 C.ar      23 UNK        -0.1150 
     15 C15         1.2288  -20.0205  -50.1441 C.3       23 UNK        -0.0205 
     16 S16         1.4567  -20.0484  -48.3269 S.3       23 UNK        -0.2404 
     17 C17         0.0090  -19.1101  -47.7338 C.3       23 UNK        -0.0398 
     18 CA         -1.1194  -19.9872  -47.1554 C.3       11 UNK         0.1400 
     19 N          -0.6988  -20.7550  -45.9843 N.am      11 UNK        -0.5000 
     20 C          -1.2712  -21.8846  -45.5533 C.2       10 UNK         0.5000 
     21 O          -2.1580  -22.4725  -46.1783 O.2       10 UNK        -0.5000 
     22 CA         -0.8030  -22.4040  -44.1759 C.3       10 UNK         0.1400 
     23 CB         -0.9672  -23.9299  -44.0230 C.3       10 UNK        -0.1800 
     24 N           0.5478  -21.9446  -43.8181 N.am      10 UNK        -0.5000 
     25 C           1.7160  -22.3344  -44.3517 C.2       9 UNK         0.5000 
     26 O           1.8333  -23.2604  -45.1517 O.2       9 UNK        -0.5000 
     27 CA          2.9774  -21.5429  -43.9531 C.3       9 UNK         0.1400 
     28 CB          3.3917  -20.6089  -45.1004 C.3       9 UNK        -0.1800 
     29 N           2.8291  -20.7523  -42.7289 N.am      9 UNK        -0.5000 
     30 C           2.8255  -21.2631  -41.4897 C.2       8 UNK         0.5000 
     31 O           2.9455  -22.4639  -41.2447 O.2       8 UNK        -0.5000 
     32 CA          2.6407  -20.2663  -40.3288 C.3       8 UNK         0.1400 
     33 CB          3.9759  -19.5994  -39.9646 C.3       8 UNK        -0.1800 
     34 N           1.6482  -19.2318  -40.6207 N.am      8 UNK        -0.5000 
     35 C           0.3383  -19.4573  -40.7926 C.2       7 UNK         0.5000 
     36 O          -0.1898  -20.5635  -40.6807 O.2       7 UNK        -0.5000 
     37 CA         -0.5154  -18.2523  -41.2234 C.3       7 UNK         0.1400 
     38 CB         -0.8883  -17.3666  -40.0257 C.3       7 UNK        -0.1800 
     39 N           0.1504  -17.4524  -42.2523 N.am      7 UNK        -0.5000 
     40 C           0.3925  -17.8888  -43.4954 C.2       6 UNK         0.5000 
     41 O           0.0012  -18.9737  -43.9247 O.2       6 UNK        -0.5000 
     42 CA          1.2157  -16.9785  -44.4163 C.3       6 UNK         0.1400 
     43 CB          0.2906  -16.0345  -45.1877 C.3       6 UNK        -0.1800 
     44 N           2.2200  -16.2083  -43.6880 N.am      6 UNK        -0.5000 
     45 C           3.3308  -16.7424  -43.1603 C.2       5 UNK         0.5000 
     46 O           3.6299  -17.9315  -43.2621 O.2       5 UNK        -0.5000 
     47 CA          4.2232  -15.8028  -42.3294 C.3       5 UNK         0.1400 
     48 CB          5.1476  -14.9829  -43.2415 C.3       5 UNK        -0.1800 
     49 N           3.4433  -14.8964  -41.4862 N.am      5 UNK        -0.5000 
     50 C           2.6252  -15.2925  -40.5011 C.2       4 UNK         0.5000 
     51 O           2.4964  -16.4665  -40.1544 O.2       4 UNK        -0.5000 
     52 CA          1.7741  -14.2050  -39.8198 C.3       4 UNK         0.1400 
     53 CB          2.4602  -13.7136  -38.5369 C.3       4 UNK        -0.1800 
     54 N           1.4793  -13.0546  -40.6805 N.am      4 UNK        -0.5000 
     55 C           0.7524  -13.0947  -41.8064 C.2       3 UNK         0.5000 
     56 O           0.2742  -14.1330  -42.2677 O.2       3 UNK        -0.5000 
     57 CA          0.5420  -11.7371  -42.5045 C.3       3 UNK         0.1400 
     58 CB          1.8678  -11.1661  -43.0525 C.3       3 UNK        -0.1800 
     59 N          -0.5138  -11.7458  -43.5264 N.am      3 UNK        -0.5000 
     60 C          -0.4824  -12.2373  -44.7745 C.2       2 UNK         0.5000 
     61 O           0.4956  -12.7802  -45.2927 O.2       2 UNK        -0.5000 
     62 CA         -1.7623  -11.9948  -45.5992 C.3       2 UNK         0.1400 
     63 CB         -1.8512  -10.5192  -46.0256 C.3       2 UNK        -0.1800 
     64 N          -1.8306  -12.8182  -46.8067 N.am      2 UNK        -0.5000 
     65 C          -2.2983  -14.0701  -46.8550 C.2       1 UNK         0.5000 
     66 O          -2.6819  -14.6914  -45.8617 O.2       1 UNK        -0.5000 
     67 C          -2.3277  -19.0915  -46.8213 C.2       11 UNK         0.5000 
     68 O          -3.0954  -18.7722  -47.7264 O.2       11 UNK        -0.5000 
     69 N          -2.4959  -18.7055  -45.5465 N.am      12 UNK        -0.5000 
     70 CA         -3.6373  -17.9124  -45.0703 C.3       12 UNK         0.1400 
     71 CB         -3.3453  -17.3775  -43.6623 C.3       12 UNK        -0.1800 
     72 C          -4.9561  -18.7073  -45.0809 C.2       12 UNK         0.5000 
     73 O          -6.0231  -18.1244  -45.2672 O.2       12 UNK        -0.5000 
     74 N          -4.8470  -20.0323  -44.9200 N.am      13 UNK        -0.5000 
     75 CA         -5.9390  -20.9927  -45.0822 C.3       13 UNK         0.1400 
     76 CB         -5.6069  -22.2393  -44.2445 C.3       13 UNK        -0.1800 
     77 C          -6.1623  -21.3876  -46.5576 C.2       13 UNK         0.5000 
     78 O          -7.1206  -22.1029  -46.8486 O.2       13 UNK        -0.5000 
     79 N          -5.2466  -20.9637  -47.4449 N.am      14 UNK        -0.5000 
     80 CA         -5.1142  -21.3193  -48.8625 C.3       14 UNK         0.1400 
     81 CB         -6.3385  -20.8543  -49.6753 C.3       14 UNK        -0.1800 
     82 C          -4.7783  -22.8066  -49.1052 C.2       14 UNK         0.5000 
     83 O          -4.8325  -23.2579  -50.2494 O.2       14 UNK        -0.5000 
     84 N          -4.4014  -23.5373  -48.0466 N.am      15 UNK        -0.5000 
     85 CA         -4.0736  -24.9607  -48.0800 C.3       15 UNK         0.1400 
     86 CB         -4.0453  -25.5127  -46.6467 C.3       15 UNK        -0.1800 
     87 C          -2.7415  -25.2149  -48.7983 C.2       15 UNK         0.5000 
     88 O          -2.6756  -26.0727  -49.6781 O.2       15 UNK        -0.5000 
     89 N          -1.7222  -24.4128  -48.4623 N.am      16 UNK        -0.5000 
     90 CA         -0.4087  -24.4387  -49.1133 C.3       16 UNK         0.1400 
     91 CB          0.5983  -23.6914  -48.2357 C.3       16 UNK        -0.1800 
     92 C          -0.4287  -23.8623  -50.5427 C.2       16 UNK         0.5000 
     93 O           0.4459  -24.1922  -51.3434 O.2       16 UNK        -0.5000 
     94 N          -1.4440  -23.0421  -50.8459 N.am      17 UNK        -0.5000 
     95 CA         -1.7448  -22.5388  -52.1871 C.3       17 UNK         0.1400 
     96 CB         -2.4793  -21.1942  -52.0518 C.3       17 UNK        -0.1800 
     97 C          -2.5762  -23.5394  -53.0220 C.2       17 UNK         0.5000 
     98 O          -2.8274  -23.2734  -54.1967 O.2       17 UNK        -0.5000 
     99 N          -3.0114  -24.6520  -52.4059 N.am      18 UNK        -0.5000 
    100 CA        -3.8506  -25.7195  -52.9635 C.3       18 UNK         0.1400 
    101 CB        -3.0803  -26.5015  -54.0477 C.3       18 UNK        -0.1800 
    102 C         -5.2322  -25.2260  -53.4464 C.2       18 UNK         0.5000 
    103 O         -5.7865  -25.7850  -54.3946 O.2       18 UNK        -0.5000 
    104 N         -5.7522  -24.1765  -52.7894 N.am      19 UNK        -0.5000 
    105 CA        -6.9858  -23.4464  -53.1025 C.3       19 UNK         0.1400 
    106 CB        -8.2206  -24.3175  -52.7934 C.3       19 UNK        -0.1800 
    107 C         -7.0072  -22.8518  -54.5305 C.2       19 UNK         0.5000 
    108 O         -8.0758  -22.7373  -55.1343 O.2       19 UNK        -0.5000 
    109 N         -5.8272  -22.4900  -55.0472 N.am      20 UNK        -0.5000 
    110 CA        -5.6060  -21.9669  -56.3910 C.3       20 UNK         0.1400 
    111 CB        -5.0815  -23.1119  -57.2767 C.3       20 UNK        -0.1800 
    112 C         -4.6117  -20.7955  -56.3403 C.2       20 UNK         0.5000 
    113 O         -4.0775  -20.4747  -55.2755 O.2       20 UNK        -0.5000 
    114 N         -4.3825  -20.1668  -57.4990 N.am      21 UNK        -0.5000 
    115 CA        -3.3657  -19.1328  -57.6810 C.3       21 UNK         0.1400 
    116 CB        -3.6439  -18.3789  -58.9907 C.3       21 UNK        -0.1800 
    117 C         -1.9535  -19.7474  -57.6976 C.2       21 UNK         0.5000 
    118 O         -1.7560  -20.8156  -58.2819 O.2       21 UNK        -0.5000 
    119 N         -0.9993  -19.0459  -57.0798 N.am      22 UNK        -0.5000 
    120 CA         0.4230  -19.4232  -57.0115 C.3       22 UNK         0.1400 
    121 C          1.2634  -19.0294  -58.2636 C.2       22 UNK         0.5000 
    122 N          0.7181  -18.3090  -59.2366 N.am      22 UNK        -0.7600 
    123 O          2.4296  -19.4013  -58.3638 O.2       22 UNK        -0.5000 
    124 C124        1.0759  -18.9382  -55.6888 C.3       23 UNK        -0.0398 
    125 S125        0.8361  -17.1540  -55.3631 S.3       23 UNK        -0.2404 
    126 C126       -0.3871  -17.1913  -54.0148 C.3       23 UNK        -0.0205 
    127 H127       -6.3776  -16.5114  -49.2946 H         1 UNK         0.0600 
    128 H128       -6.3368  -16.6197  -47.5334 H         1 UNK         0.0600 
    129 H129       -5.2139  -17.5724  -48.5071 H         1 UNK         0.0600 
    130 H130       -3.1497  -16.7040  -48.2591 H         1 UNK         0.3000 
    131 H131       -2.6536  -13.9383  -48.9611 H         1 UNK         0.0600 
    132 H132       -1.1737  -16.0591  -49.4780 H         1 UNK         0.0800 
    133 H133       -0.4654  -15.7852  -47.9133 H         1 UNK         0.0800 
    134 H134        2.1103  -15.1758  -49.0162 H         1 UNK         0.0800 
    135 H135        2.2131  -14.3036  -50.5262 H         1 UNK         0.0800 
    136 H136        0.4835  -15.1677  -52.4268 H         1 UNK         0.1150 
    137 H137        0.1627  -19.4403  -52.5540 H         1 UNK         0.1150 
    138 H138        1.9525  -17.5062  -49.1669 H         1 UNK         0.1150 
    139 H139        0.3521  -20.6255  -50.3784 H         1 UNK         0.0800 
    140 H140        2.0799  -20.5235  -50.6045 H         1 UNK         0.0800 
    141 H141       -0.3866  -18.5030  -48.5480 H         1 UNK         0.0800 
    142 H142        0.3684  -18.4064  -46.9843 H         1 UNK         0.0800 
    143 H143       -1.4380  -20.6823  -47.9356 H         1 UNK         0.0600 
    144 H144       -0.0292  -20.3058  -45.3694 H         1 UNK         0.3000 
    145 H145       -1.4661  -21.9368  -43.4467 H         1 UNK         0.0600 
    146 H146       -0.5772  -24.2758  -43.0658 H         1 UNK         0.0600 
    147 H147       -2.0198  -24.2111  -44.0641 H         1 UNK         0.0600 
    148 H148       -0.4560  -24.4777  -44.8149 H         1 UNK         0.0600 
    149 H149        0.5768  -21.1607  -43.1789 H         1 UNK         0.3000 
    150 H150        3.7809  -22.2664  -43.7999 H         1 UNK         0.0600 
    151 H151        3.5408  -21.1654  -46.0268 H         1 UNK         0.0600 
    152 H152        4.3279  -20.0975  -44.8763 H         1 UNK         0.0600 
    153 H153        2.6323  -19.8512  -45.2940 H         1 UNK         0.0600 
    154 H154        2.8071  -19.7440  -42.8413 H         1 UNK         0.3000 
    155 H155        2.2934  -20.8286  -39.4596 H         1 UNK         0.0600 
    156 H156        4.3639  -18.9979  -40.7873 H         1 UNK         0.0600 
    157 H157        4.7315  -20.3460  -39.7173 H         1 UNK         0.0600 
    158 H158        3.8663  -18.9468  -39.0982 H         1 UNK         0.0600 
    159 H159        1.9894  -18.2765  -40.6797 H         1 UNK         0.3000 
    160 H160       -1.4394  -18.6464  -41.6471 H         1 UNK         0.0600 
    161 H161       -1.4875  -16.5112  -40.3386 H         1 UNK         0.0600 
    162 H162       -0.0077  -16.9894  -39.5073 H         1 UNK         0.0600 
    163 H163       -1.4762  -17.9281  -39.2988 H         1 UNK         0.0600 
    164 H164        0.4754  -16.5319  -41.9892 H         1 UNK         0.3000 
    165 H165        1.7306  -17.6134  -45.1393 H         1 UNK         0.0600 
    166 H166       -0.2262  -15.3439  -44.5222 H         1 UNK         0.0600 
    167 H167        0.8470  -15.4460  -45.9171 H         1 UNK         0.0600 
    168 H168       -0.4796  -16.5885  -45.7229 H         1 UNK         0.0600 
    169 H169        2.0053  -15.2356  -43.5147 H         1 UNK         0.3000 
    170 H170        4.8432  -16.4219  -41.6775 H         1 UNK         0.0600 
    171 H171        5.7509  -15.6363  -43.8733 H         1 UNK         0.0600 
    172 H172        4.5830  -14.3200  -43.8986 H         1 UNK         0.0600 
    173 H173        5.8358  -14.3712  -42.6579 H         1 UNK         0.0600 
    174 H174        3.4913  -13.9122  -41.7034 H         1 UNK         0.3000 
    175 H175        0.8224  -14.6624  -39.5427 H         1 UNK         0.0600 
    176 H176        1.8275  -13.0105  -37.9948 H         1 UNK         0.0600 
    177 H177        2.6698  -14.5454  -37.8628 H         1 UNK         0.0600 
    178 H178        3.4080  -13.2180  -38.7514 H         1 UNK         0.0600 
    179 H179        1.8353  -12.1637  -40.3648 H         1 UNK         0.3000 
    180 H180        0.1844  -11.0495  -41.7365 H         1 UNK         0.0600 
    181 H181        2.3626  -11.8601  -43.7325 H         1 UNK         0.0600 
    182 H182        2.5691  -10.9537  -42.2451 H         1 UNK         0.0600 
    183 H183        1.7038  -10.2309  -43.5879 H         1 UNK         0.0600 
    184 H184       -1.3847  -11.3372  -43.2179 H         1 UNK         0.3000 
    185 H185       -2.6234  -12.2230  -44.9670 H         1 UNK         0.0600 
    186 H186       -1.0062  -10.2309  -46.6524 H         1 UNK         0.0600 
    187 H187       -2.7659  -10.3252  -46.5863 H         1 UNK         0.0600 
    188 H188       -1.8584   -9.8549  -45.1607 H         1 UNK         0.0600 
    189 H189       -1.4636  -12.4012  -47.6500 H         1 UNK         0.3000 
    190 H190       -1.7946  -18.9630  -44.8607 H         1 UNK         0.3000 
    191 H191       -3.7661  -17.0609  -45.7394 H         1 UNK         0.0600 
    192 H192       -2.4334  -16.7810  -43.6455 H         1 UNK         0.0600 
    193 H193       -3.2434  -18.1874  -42.9410 H         1 UNK         0.0600 
    194 H194       -4.1549  -16.7331  -43.3175 H         1 UNK         0.0600 
    195 H195       -3.9301  -20.4189  -44.7546 H         1 UNK         0.3000 
    196 H196       -6.8679  -20.5580  -44.7072 H         1 UNK         0.0600 
    197 H197       -6.4082  -22.9771  -44.3033 H         1 UNK         0.0600 
    198 H198       -5.4803  -21.9846  -43.1921 H         1 UNK         0.0600 
    199 H199       -4.6904  -22.7235  -44.5851 H         1 UNK         0.0600 
    200 H200       -4.5300  -20.3368  -47.1056 H         1 UNK         0.3000 
    201 H201       -4.2525  -20.7598  -49.2281 H         1 UNK         0.0600 
    202 H202       -6.5670  -19.8068  -49.4785 H         1 UNK         0.0600 
    203 H203       -7.2271  -21.4425  -49.4451 H         1 UNK         0.0600 
    204 H204       -6.1536  -20.9479  -50.7457 H         1 UNK         0.0600 
    205 H205       -4.3040  -23.0741  -47.1546 H         1 UNK         0.3000 
    206 H206       -4.8597  -25.4808  -48.6317 H         1 UNK         0.0600 
    207 H207       -5.0087  -25.3782  -46.1545 H         1 UNK         0.0600 
    208 H208       -3.8247  -26.5808  -46.6445 H         1 UNK         0.0600 
    209 H209       -3.2876  -25.0196  -46.0374 H         1 UNK         0.0600 
    210 H210       -1.8600  -23.7348  -47.7186 H         1 UNK         0.3000 
    211 H211       -0.0824  -25.4781  -49.1889 H         1 UNK         0.0600 
    212 H212        0.2795  -22.6684  -48.0454 H         1 UNK         0.0600 
    213 H213        1.5838  -23.6513  -48.7013 H         1 UNK         0.0600 
    214 H214        0.7115  -24.1922  -47.2755 H         1 UNK         0.0600 
    215 H215       -2.1259  -22.8486  -50.1286 H         1 UNK         0.3000 
    216 H216       -0.8091  -22.3607  -52.7210 H         1 UNK         0.0600 
    217 H217       -2.5866  -20.7136  -53.0246 H         1 UNK         0.0600 
    218 H218       -1.9353  -20.5016  -51.4098 H         1 UNK         0.0600 
    219 H219       -3.4806  -21.3185  -51.6399 H         1 UNK         0.0600 
    220 H220       -2.7680  -24.7792  -51.4320 H         1 UNK         0.3000 
    221 H221       -4.0500  -26.4075  -52.1409 H         1 UNK         0.0600 
    222 H222       -2.9039  -25.8941  -54.9360 H         1 UNK         0.0600 
    223 H223       -2.1138  -26.8416  -53.6758 H         1 UNK         0.0600 
    224 H224       -3.6349  -27.3864  -54.3616 H         1 UNK         0.0600 
    225 H225       -5.2402  -23.8247  -51.9826 H         1 UNK         0.3000 
    226 H226       -7.0097  -22.5935  -52.4235 H         1 UNK         0.0600 
    227 H227       -8.1838  -24.7039  -51.7748 H         1 UNK         0.0600 
    228 H228       -8.2963  -25.1671  -53.4726 H         1 UNK         0.0600 
    229 H229       -9.1413  -23.7406  -52.8864 H         1 UNK         0.0600 
    230 H230       -4.9866  -22.5798  -54.4877 H         1 UNK         0.3000 
    231 H231       -6.5396  -21.5850  -56.8087 H         1 UNK         0.0600 
    232 H232       -5.7814  -23.9476  -57.2938 H         1 UNK         0.0600 
    233 H233       -4.1237  -23.4884  -56.9141 H         1 UNK         0.0600 
    234 H234       -4.9398  -22.7885  -58.3083 H         1 UNK         0.0600 
    235 H235       -4.8332  -20.5027  -58.3373 H         1 UNK         0.3000 
    236 H236       -3.4379  -18.4233  -56.8535 H         1 UNK         0.0600 
    237 H237       -2.9212  -17.5758  -59.1404 H         1 UNK         0.0600 
    238 H238       -3.5853  -19.0394  -59.8569 H         1 UNK         0.0600 
    239 H239       -4.6348  -17.9244  -58.9815 H         1 UNK         0.0600 
    240 H240       -1.2310  -18.1632  -56.6480 H         1 UNK         0.3000 
    241 H241        0.4684  -20.5138  -56.9872 H         1 UNK         0.0600 
    242 H242        1.2707  -18.0674  -60.0444 H         1 UNK         0.3800 
    243 H243       -0.2372  -17.9981  -59.1717 H         1 UNK         0.3800 
    244 H244        0.6652  -19.5147  -54.8604 H         1 UNK         0.0800 
    245 H245        2.1460  -19.1520  -55.6782 H         1 UNK         0.0800 
    246 H246       -1.0928  -18.0108  -54.1611 H         1 UNK         0.0800 
    247 H247       -0.9796  -16.2761  -54.0583 H         1 UNK         0.0800 
@<TRIPOS>BOND
     1    1    2 1    
     2    1  127 1    
     3    1  128 1    
     4    1  129 1    
     5    2    3 2    
     6    2    4 am   BACKBONE|DICT|INTERRES
     7    4    5 1    
     8    4  130 1    
     9    5    6 1    
    10    5   65 1    
    11    5  131 1    
    12    6    7 1    
    13    6  132 1    
    14    6  133 1    
    15    7    8 1    
    16    8    9 1    
    17    8  134 1    
    18    8  135 1    
    19    9   10 ar   
    20    9   14 ar   
    21   10   11 ar   
    22   10  136 1    
    23   11   12 ar   
    24   11  126 1    
    25   12   13 ar   
    26   12  137 1    
    27   13   14 ar   
    28   13   15 1    
    29   14  138 1    
    30   15   16 1    
    31   15  139 1    
    32   15  140 1    
    33   16   17 1    
    34   17   18 1    
    35   17  141 1    
    36   17  142 1    
    37   18   19 1    
    38   18   67 1    
    39   18  143 1    
    40   19   20 am   BACKBONE|DICT|INTERRES
    41   19  144 1    
    42   20   21 2    
    43   20   22 1    
    44   22   23 1    
    45   22   24 1    
    46   22  145 1    
    47   23  146 1    
    48   23  147 1    
    49   23  148 1    
    50   24   25 am   BACKBONE|DICT|INTERRES
    51   24  149 1    
    52   25   26 2    
    53   25   27 1    
    54   27   28 1    
    55   27   29 1    
    56   27  150 1    
    57   28  151 1    
    58   28  152 1    
    59   28  153 1    
    60   29   30 am   BACKBONE|DICT|INTERRES
    61   29  154 1    
    62   30   31 2    
    63   30   32 1    
    64   32   33 1    
    65   32   34 1    
    66   32  155 1    
    67   33  156 1    
    68   33  157 1    
    69   33  158 1    
    70   34   35 am   BACKBONE|DICT|INTERRES
    71   34  159 1    
    72   35   36 2    
    73   35   37 1    
    74   37   38 1    
    75   37   39 1    
    76   37  160 1    
    77   38  161 1    
    78   38  162 1    
    79   38  163 1    
    80   39   40 am   BACKBONE|DICT|INTERRES
    81   39  164 1    
    82   40   41 2    
    83   40   42 1    
    84   42   43 1    
    85   42   44 1    
    86   42  165 1    
    87   43  166 1    
    88   43  167 1    
    89   43  168 1    
    90   44   45 am   BACKBONE|DICT|INTERRES
    91   44  169 1    
    92   45   46 2    
    93   45   47 1    
    94   47   48 1    
    95   47   49 1    
    96   47  170 1    
    97   48  171 1    
    98   48  172 1    
    99   48  173 1    
   100   49   50 am   BACKBONE|DICT|INTERRES
   101   49  174 1    
   102   50   51 2    
   103   50   52 1    
   104   52   53 1    
   105   52   54 1    
   106   52  175 1    
   107   53  176 1    
   108   53  177 1    
   109   53  178 1    
   110   54   55 am   BACKBONE|DICT|INTERRES
   111   54  179 1    
   112   55   56 2    
   113   55   57 1    
   114   57   58 1    
   115   57   59 1    
   116   57  180 1    
   117   58  181 1    
   118   58  182 1    
   119   58  183 1    
   120   59   60 am   BACKBONE|DICT|INTERRES
   121   59  184 1    
   122   60   61 2    
   123   60   62 1    
   124   62   63 1    
   125   62   64 1    
   126   62  185 1    
   127   63  186 1    
   128   63  187 1    
   129   63  188 1    
   130   64   65 am   BACKBONE|DICT|INTERRES
   131   64  189 1    
   132   65   66 2    
   133   67   68 2    
   134   67   69 am   BACKBONE|DICT|INTERRES
   135   69   70 1    
   136   69  190 1    
   137   70   71 1    
   138   70   72 1    
   139   70  191 1    
   140   71  192 1    
   141   71  193 1    
   142   71  194 1    
   143   72   73 2    
   144   72   74 am   BACKBONE|DICT|INTERRES
   145   74   75 1    
   146   74  195 1    
   147   75   76 1    
   148   75   77 1    
   149   75  196 1    
   150   76  197 1    
   151   76  198 1    
   152   76  199 1    
   153   77   78 2    
   154   77   79 am   BACKBONE|DICT|INTERRES
   155   79   80 1    
   156   79  200 1    
   157   80   81 1    
   158   80   82 1    
   159   80  201 1    
   160   81  202 1    
   161   81  203 1    
   162   81  204 1    
   163   82   83 2    
   164   82   84 am   BACKBONE|DICT|INTERRES
   165   84   85 1    
   166   84  205 1    
   167   85   86 1    
   168   85   87 1    
   169   85  206 1    
   170   86  207 1    
   171   86  208 1    
   172   86  209 1    
   173   87   88 2    
   174   87   89 am   BACKBONE|DICT|INTERRES
   175   89   90 1    
   176   89  210 1    
   177   90   91 1    
   178   90   92 1    
   179   90  211 1    
   180   91  212 1    
   181   91  213 1    
   182   91  214 1    
   183   92   93 2    
   184   92   94 am   BACKBONE|DICT|INTERRES
   185   94   95 1    
   186   94  215 1    
   187   95   96 1    
   188   95   97 1    
   189   95  216 1    
   190   96  217 1    
   191   96  218 1    
   192   96  219 1    
   193   97   98 2    
   194   97   99 am   BACKBONE|DICT|INTERRES
   195   99  100 1    
   196   99  220 1    
   197  100  101 1    
   198  100  102 1    
   199  100  221 1    
   200  101  222 1    
   201  101  223 1    
   202  101  224 1    
   203  102  103 2    
   204  102  104 am   BACKBONE|DICT|INTERRES
   205  104  105 1    
   206  104  225 1    
   207  105  106 1    
   208  105  107 1    
   209  105  226 1    
   210  106  227 1    
   211  106  228 1    
   212  106  229 1    
   213  107  108 2    
   214  107  109 am   BACKBONE|DICT|INTERRES
   215  109  110 1    
   216  109  230 1    
   217  110  111 1    
   218  110  112 1    
   219  110  231 1    
   220  111  232 1    
   221  111  233 1    
   222  111  234 1    
   223  112  113 2    
   224  112  114 am   BACKBONE|DICT|INTERRES
   225  114  115 1    
   226  114  235 1    
   227  115  116 1    
   228  115  117 1    
   229  115  236 1    
   230  116  237 1    
   231  116  238 1    
   232  116  239 1    
   233  117  118 2    
   234  117  119 am   BACKBONE|DICT|INTERRES
   235  119  120 1    
   236  119  240 1    
   237  120  121 1    
   238  120  124 1    
   239  120  241 1    
   240  121  122 am   BACKBONE|DICT|INTERRES
   241  121  123 2    
   242  122  242 1    
   243  122  243 1    
   244  124  125 1    
   245  124  244 1    
   246  124  245 1    
   247  125  126 1    
   248  126  246 1    
   249  126  247 1    
@<TRIPOS>SUBSTRUCTURE
     1 UNK         1 GROUP             0       ****    0 ROOT    
