@<TRIPOS>MOLECULE
3R540
247   249    1
SMALL
USER_CHARGES


@<TRIPOS>ATOM
      1 CA         -5.1522  -17.4583  -43.6535 C.3       0 UNK        -0.1800 
      2 C          -5.3157  -16.0172  -44.1195 C.2       0 UNK         0.5000 
      3 O          -6.1539  -15.2885  -43.5884 O.2       0 UNK        -0.5000 
      4 N          -4.5206  -15.6108  -45.1140 N.am      1 UNK        -0.5000 
      5 CA         -4.4307  -14.2454  -45.6382 C.3       1 UNK         0.1400 
      6 C6         -3.8159  -14.2238  -47.0643 C.3       23 UNK        -0.0398 
      7 S7         -2.2837  -15.2106  -47.2355 S.3       23 UNK        -0.2404 
      8 C8         -2.4527  -15.8755  -48.9274 C.3       23 UNK        -0.0205 
      9 C9         -3.6531  -16.7913  -49.1626 C.ar      23 UNK        -0.0193 
     10 C10        -4.1894  -16.8741  -50.4509 C.ar      23 UNK        -0.1150 
     11 C11        -5.2797  -17.7044  -50.7232 C.ar      23 UNK        -0.0193 
     12 C12        -5.8509  -18.4464  -49.6864 C.ar      23 UNK        -0.1150 
     13 C13        -5.3224  -18.3832  -48.3942 C.ar      23 UNK        -0.0193 
     14 C14        -4.2161  -17.5676  -48.1417 C.ar      23 UNK        -0.1150 
     15 C15        -5.9584  -19.1872  -47.2715 C.3       23 UNK        -0.0205 
     16 S16        -5.4046  -20.9182  -47.2781 S.3       23 UNK        -0.2404 
     17 C17        -3.7212  -20.7631  -46.5943 C.3       23 UNK        -0.0398 
     18 CA         -3.0479  -22.1427  -46.3995 C.3       11 UNK         0.1400 
     19 N          -1.5887  -22.0461  -46.3073 N.am      11 UNK        -0.5000 
     20 C          -0.7557  -23.0943  -46.3591 C.2       10 UNK         0.5000 
     21 O          -1.1347  -24.2454  -46.5570 O.2       10 UNK        -0.5000 
     22 CA          0.7396  -22.8315  -46.1110 C.3       10 UNK         0.1400 
     23 CB          1.4502  -22.4431  -47.4138 C.3       10 UNK        -0.1800 
     24 N           0.9693  -21.8118  -45.0881 N.am      10 UNK        -0.5000 
     25 C           0.6063  -21.9416  -43.8038 C.2       9 UNK         0.5000 
     26 O           0.1059  -22.9650  -43.3393 O.2       9 UNK        -0.5000 
     27 CA          0.7711  -20.7069  -42.9012 C.3       9 UNK         0.1400 
     28 CB          2.2189  -20.5811  -42.4054 C.3       9 UNK        -0.1800 
     29 N           0.3628  -19.4688  -43.5661 N.am      9 UNK        -0.5000 
     30 C          -0.8822  -19.2053  -43.9901 C.2       8 UNK         0.5000 
     31 O          -1.8390  -19.9616  -43.8186 O.2       8 UNK        -0.5000 
     32 CA         -1.0783  -17.9068  -44.7931 C.3       8 UNK         0.1400 
     33 CB         -1.1346  -16.6894  -43.8605 C.3       8 UNK        -0.1800 
     34 N          -0.0303  -17.7117  -45.7945 N.am      8 UNK        -0.5000 
     35 C           0.1833  -18.5227  -46.8401 C.2       7 UNK         0.5000 
     36 O          -0.5283  -19.4903  -47.1058 O.2       7 UNK        -0.5000 
     37 CA          1.4394  -18.2493  -47.6863 C.3       7 UNK         0.1400 
     38 CB          1.1828  -17.1696  -48.7442 C.3       7 UNK        -0.1800 
     39 N           2.5770  -17.8559  -46.8568 N.am      7 UNK        -0.5000 
     40 C           3.2469  -18.6909  -46.0513 C.2       6 UNK         0.5000 
     41 O           2.9927  -19.8898  -45.9474 O.2       6 UNK        -0.5000 
     42 CA          4.3638  -18.0730  -45.1906 C.3       6 UNK         0.1400 
     43 CB          5.6746  -17.9878  -45.9865 C.3       6 UNK        -0.1800 
     44 N           4.0142  -16.7438  -44.6870 N.am      6 UNK        -0.5000 
     45 C           3.0425  -16.5057  -43.7948 C.2       5 UNK         0.5000 
     46 O           2.3660  -17.3891  -43.2703 O.2       5 UNK        -0.5000 
     47 CA          2.7420  -15.0290  -43.4763 C.3       5 UNK         0.1400 
     48 CB          3.6516  -14.5231  -42.3471 C.3       5 UNK        -0.1800 
     49 N           2.8707  -14.1451  -44.6399 N.am      5 UNK        -0.5000 
     50 C           2.1233  -14.2422  -45.7465 C.2       4 UNK         0.5000 
     51 O           1.2712  -15.1147  -45.9187 O.2       4 UNK        -0.5000 
     52 CA          2.4069  -13.2195  -46.8602 C.3       4 UNK         0.1400 
     53 CB          3.5043  -13.7572  -47.7914 C.3       4 UNK        -0.1800 
     54 N           1.2095  -12.9520  -47.6596 N.am      4 UNK        -0.5000 
     55 C           0.1482  -12.2050  -47.3244 C.2       3 UNK         0.5000 
     56 O          -0.8375  -12.1265  -48.0604 O.2       3 UNK        -0.5000 
     57 CA          0.1582  -11.3765  -46.0245 C.3       3 UNK         0.1400 
     58 CB          0.7719   -9.9842  -46.2644 C.3       3 UNK        -0.1800 
     59 N          -1.2200  -11.2463  -45.5708 N.am      3 UNK        -0.5000 
     60 C          -1.6214  -10.9206  -44.3375 C.2       2 UNK         0.5000 
     61 O          -0.8539  -10.6130  -43.4247 O.2       2 UNK        -0.5000 
     62 CA         -3.1401  -10.9647  -44.0737 C.3       2 UNK         0.1400 
     63 CB         -3.7783   -9.5987  -44.3693 C.3       2 UNK        -0.1800 
     64 N          -3.8309  -11.9984  -44.8523 N.am      2 UNK        -0.5000 
     65 C          -3.6661  -13.3163  -44.6679 C.2       1 UNK         0.5000 
     66 O          -2.9414  -13.7897  -43.7891 O.2       1 UNK        -0.5000 
     67 C          -3.6344  -22.9142  -45.1993 C.2       11 UNK         0.5000 
     68 O          -4.4325  -23.8299  -45.4004 O.2       11 UNK        -0.5000 
     69 N          -3.1754  -22.5835  -43.9831 N.am      12 UNK        -0.5000 
     70 CA         -3.5369  -23.2738  -42.7413 C.3       12 UNK         0.1400 
     71 CB         -2.9522  -22.5090  -41.5445 C.3       12 UNK        -0.1800 
     72 C          -3.1014  -24.7544  -42.7188 C.2       12 UNK         0.5000 
     73 O          -3.8308  -25.5955  -42.1930 O.2       12 UNK        -0.5000 
     74 N          -1.9446  -25.0497  -43.3263 N.am      13 UNK        -0.5000 
     75 CA         -1.4097  -26.3988  -43.5259 C.3       13 UNK         0.1400 
     76 CB          0.1049  -26.2939  -43.7673 C.3       13 UNK        -0.1800 
     77 C          -2.0830  -27.1760  -44.6789 C.2       13 UNK         0.5000 
     78 O          -1.7893  -28.3606  -44.8453 O.2       13 UNK        -0.5000 
     79 N          -2.9480  -26.5082  -45.4584 N.am      14 UNK        -0.5000 
     80 CA         -3.6417  -26.9988  -46.6551 C.3       14 UNK         0.1400 
     81 CB         -4.6096  -28.1491  -46.3080 C.3       14 UNK        -0.1800 
     82 C          -2.6859  -27.3379  -47.8209 C.2       14 UNK         0.5000 
     83 O          -2.9769  -28.2238  -48.6260 O.2       14 UNK        -0.5000 
     84 N          -1.5752  -26.5977  -47.9157 N.am      15 UNK        -0.5000 
     85 CA         -0.5439  -26.7010  -48.9464 C.3       15 UNK         0.1400 
     86 CB          0.8358  -26.5762  -48.2746 C.3       15 UNK        -0.1800 
     87 C          -0.7692  -25.6433  -50.0465 C.2       15 UNK         0.5000 
     88 O           0.1627  -24.9327  -50.4318 O.2       15 UNK        -0.5000 
     89 N          -2.0244  -25.5397  -50.5117 N.am      16 UNK        -0.5000 
     90 CA         -2.5088  -24.7141  -51.6285 C.3       16 UNK         0.1400 
     91 CB         -2.0062  -25.3019  -52.9638 C.3       16 UNK        -0.1800 
     92 C          -2.1948  -23.2060  -51.5069 C.2       16 UNK         0.5000 
     93 O          -2.0552  -22.5297  -52.5267 O.2       16 UNK        -0.5000 
     94 N          -2.0391  -22.7144  -50.2672 N.am      17 UNK        -0.5000 
     95 CA         -1.6327  -21.3476  -49.9097 C.3       17 UNK         0.1400 
     96 CB         -2.7523  -20.3468  -50.2496 C.3       17 UNK        -0.1800 
     97 C          -0.2759  -20.9280  -50.5147 C.2       17 UNK         0.5000 
     98 O          -0.0728  -19.7496  -50.8045 O.2       17 UNK        -0.5000 
     99 N           0.6084  -21.9096  -50.7616 N.am      18 UNK        -0.5000 
    100 CA         1.8779  -21.7770  -51.4889 C.3       18 UNK         0.1400 
    101 CB         2.8856  -20.9351  -50.6767 C.3       18 UNK        -0.1800 
    102 C          1.7015  -21.2598  -52.9382 C.2       18 UNK         0.5000 
    103 O          2.6370  -20.6919  -53.5038 O.2       18 UNK        -0.5000 
    104 N          0.4979  -21.4550  -53.5018 N.am      19 UNK        -0.5000 
    105 CA         0.0135  -20.9738  -54.7970 C.3       19 UNK         0.1400 
    106 CB         0.8120  -21.6036  -55.9573 C.3       19 UNK        -0.1800 
    107 C         -0.0879  -19.4352  -54.9018 C.2       19 UNK         0.5000 
    108 O         -0.1106  -18.9097  -56.0165 O.2       19 UNK        -0.5000 
    109 N         -0.1681  -18.7312  -53.7618 N.am      20 UNK        -0.5000 
    110 CA        -0.3109  -17.2770  -53.6881 C.3       20 UNK         0.1400 
    111 CB        -0.0755  -16.8163  -52.2410 C.3       20 UNK        -0.1800 
    112 C         -1.6911  -16.8253  -54.1988 C.2       20 UNK         0.5000 
    113 O         -2.6820  -16.9727  -53.4845 O.2       20 UNK        -0.5000 
    114 N         -1.7313  -16.3134  -55.4364 N.am      21 UNK        -0.5000 
    115 CA        -2.8926  -15.8258  -56.1950 C.3       21 UNK         0.1400 
    116 CB        -3.6006  -14.6633  -55.4715 C.3       21 UNK        -0.1800 
    117 C         -3.8929  -16.9267  -56.6017 C.2       21 UNK         0.5000 
    118 O         -4.2351  -17.0231  -57.7808 O.2       21 UNK        -0.5000 
    119 N         -4.3297  -17.7413  -55.6364 N.am      22 UNK        -0.5000 
    120 CA        -5.2266  -18.8927  -55.8209 C.3       22 UNK         0.1400 
    121 C         -4.5206  -20.2040  -56.2818 C.2       22 UNK         0.5000 
    122 N         -3.2164  -20.2141  -56.5300 N.am      22 UNK        -0.7600 
    123 O         -5.1745  -21.2296  -56.4512 O.2       22 UNK        -0.5000 
    124 C124       -6.1570  -19.1028  -54.5958 C.3       23 UNK        -0.0398 
    125 S125       -5.2884  -19.2890  -52.9977 S.3       23 UNK        -0.2404 
    126 C126       -5.8496  -17.7887  -52.1310 C.3       23 UNK        -0.0205 
    127 H127       -4.8760  -17.4817  -42.5993 H         1 UNK         0.0600 
    128 H128       -4.3800  -17.9841  -44.2157 H         1 UNK         0.0600 
    129 H129       -6.0895  -18.0015  -43.7735 H         1 UNK         0.0600 
    130 H130       -3.8169  -16.2344  -45.4774 H         1 UNK         0.3000 
    131 H131       -5.4471  -13.8526  -45.7136 H         1 UNK         0.0600 
    132 H132       -4.5595  -14.6084  -47.7627 H         1 UNK         0.0800 
    133 H133       -3.6123  -13.2057  -47.3998 H         1 UNK         0.0800 
    134 H134       -1.5537  -16.4374  -49.1689 H         1 UNK         0.0800 
    135 H135       -2.4837  -15.0325  -49.6196 H         1 UNK         0.0800 
    136 H136       -3.7506  -16.2936  -51.2496 H         1 UNK         0.1150 
    137 H137       -6.6993  -19.0848  -49.8889 H         1 UNK         0.1150 
    138 H138       -3.7982  -17.5408  -47.1477 H         1 UNK         0.1150 
    139 H139       -5.7476  -18.7345  -46.3024 H         1 UNK         0.0800 
    140 H140       -7.0434  -19.1669  -47.3841 H         1 UNK         0.0800 
    141 H141       -3.7546  -20.1993  -45.6611 H         1 UNK         0.0800 
    142 H142       -3.1396  -20.1607  -47.2923 H         1 UNK         0.0800 
    143 H143       -3.2545  -22.7371  -47.2924 H         1 UNK         0.0600 
    144 H144       -1.1956  -21.1153  -46.2064 H         1 UNK         0.3000 
    145 H145        1.1827  -23.7633  -45.7553 H         1 UNK         0.0600 
    146 H146        2.5259  -22.3532  -47.2628 H         1 UNK         0.0600 
    147 H147        1.2933  -23.1955  -48.1874 H         1 UNK         0.0600 
    148 H148        1.0885  -21.4926  -47.8024 H         1 UNK         0.0600 
    149 H149        1.4411  -20.9633  -45.3859 H         1 UNK         0.3000 
    150 H150        0.1257  -20.8442  -42.0314 H         1 UNK         0.0600 
    151 H151        2.5358  -21.4891  -41.8909 H         1 UNK         0.0600 
    152 H152        2.3234  -19.7553  -41.7016 H         1 UNK         0.0600 
    153 H153        2.9137  -20.4093  -43.2275 H         1 UNK         0.0600 
    154 H154        1.0848  -18.7657  -43.6972 H         1 UNK         0.3000 
    155 H155       -2.0302  -17.9776  -45.3224 H         1 UNK         0.0600 
    156 H156       -0.2366  -16.6036  -43.2492 H         1 UNK         0.0600 
    157 H157       -1.9878  -16.7537  -43.1843 H         1 UNK         0.0600 
    158 H158       -1.2357  -15.7640  -44.4267 H         1 UNK         0.0600 
    159 H159        0.5576  -16.8895  -45.6900 H         1 UNK         0.3000 
    160 H160        1.6997  -19.1720  -48.2089 H         1 UNK         0.0600 
    161 H161        2.0796  -16.9650  -49.3289 H         1 UNK         0.0600 
    162 H162        0.8436  -16.2325  -48.3023 H         1 UNK         0.0600 
    163 H163        0.4167  -17.5047  -49.4409 H         1 UNK         0.0600 
    164 H164        2.8040  -16.8735  -46.8359 H         1 UNK         0.3000 
    165 H165        4.5264  -18.7301  -44.3336 H         1 UNK         0.0600 
    166 H166        6.4910  -17.6221  -45.3634 H         1 UNK         0.0600 
    167 H167        5.9676  -18.9696  -46.3608 H         1 UNK         0.0600 
    168 H168        5.5834  -17.3225  -46.8461 H         1 UNK         0.0600 
    169 H169        4.5254  -15.9602  -45.0652 H         1 UNK         0.3000 
    170 H170        1.7078  -14.9728  -43.1302 H         1 UNK         0.0600 
    171 H171        3.5603  -15.1530  -41.4610 H         1 UNK         0.0600 
    172 H172        4.7013  -14.5231  -42.6432 H         1 UNK         0.0600 
    173 H173        3.3854  -13.5084  -42.0508 H         1 UNK         0.0600 
    174 H174        3.5658  -13.4152  -44.5729 H         1 UNK         0.3000 
    175 H175        2.7624  -12.2894  -46.4139 H         1 UNK         0.0600 
    176 H176        3.2063  -14.6902  -48.2719 H         1 UNK         0.0600 
    177 H177        3.7407  -13.0386  -48.5766 H         1 UNK         0.0600 
    178 H178        4.4275  -13.9503  -47.2433 H         1 UNK         0.0600 
    179 H179        1.1429  -13.4868  -48.5115 H         1 UNK         0.3000 
    180 H180        0.7168  -11.8948  -45.2458 H         1 UNK         0.0600 
    181 H181        0.1976   -9.4160  -46.9972 H         1 UNK         0.0600 
    182 H182        1.7930  -10.0617  -46.6385 H         1 UNK         0.0600 
    183 H183        0.8093   -9.4005  -45.3446 H         1 UNK         0.0600 
    184 H184       -1.9052  -11.5087  -46.2680 H         1 UNK         0.3000 
    185 H185       -3.2846  -11.1852  -43.0138 H         1 UNK         0.0600 
    186 H186       -3.3002   -8.8106  -43.7860 H         1 UNK         0.0600 
    187 H187       -3.6854   -9.3294  -45.4222 H         1 UNK         0.0600 
    188 H188       -4.8377   -9.5936  -44.1124 H         1 UNK         0.0600 
    189 H189       -4.4530  -11.6720  -45.5778 H         1 UNK         0.3000 
    190 H190       -2.5352  -21.7985  -43.9002 H         1 UNK         0.3000 
    191 H191       -4.6254  -23.2509  -42.6581 H         1 UNK         0.0600 
    192 H192       -3.2508  -22.9713  -40.6029 H         1 UNK         0.0600 
    193 H193       -3.3026  -21.4768  -41.5269 H         1 UNK         0.0600 
    194 H194       -1.8628  -22.4911  -41.5697 H         1 UNK         0.0600 
    195 H195       -1.3668  -24.2830  -43.6567 H         1 UNK         0.3000 
    196 H196       -1.5686  -26.9727  -42.6107 H         1 UNK         0.0600 
    197 H197        0.5603  -27.2819  -43.8435 H         1 UNK         0.0600 
    198 H198        0.6012  -25.7706  -42.9497 H         1 UNK         0.0600 
    199 H199        0.3263  -25.7601  -44.6914 H         1 UNK         0.0600 
    200 H200       -3.1171  -25.5335  -45.2411 H         1 UNK         0.3000 
    201 H201       -4.2478  -26.1628  -47.0065 H         1 UNK         0.0600 
    202 H202       -5.2700  -27.8732  -45.4859 H         1 UNK         0.0600 
    203 H203       -4.0779  -29.0570  -46.0223 H         1 UNK         0.0600 
    204 H204       -5.2422  -28.3979  -47.1608 H         1 UNK         0.0600 
    205 H205       -1.4491  -25.8316  -47.2542 H         1 UNK         0.3000 
    206 H206       -0.5926  -27.6799  -49.4271 H         1 UNK         0.0600 
    207 H207        0.9725  -27.3458  -47.5147 H         1 UNK         0.0600 
    208 H208        1.6397  -26.6921  -49.0023 H         1 UNK         0.0600 
    209 H209        0.9641  -25.6073  -47.7924 H         1 UNK         0.0600 
    210 H210       -2.7118  -26.1599  -50.1060 H         1 UNK         0.3000 
    211 H211       -3.5966  -24.7943  -51.6197 H         1 UNK         0.0600 
    212 H212       -0.9248  -25.2025  -53.0649 H         1 UNK         0.0600 
    213 H213       -2.4630  -24.7963  -53.8155 H         1 UNK         0.0600 
    214 H214       -2.2549  -26.3598  -53.0479 H         1 UNK         0.0600 
    215 H215       -2.1428  -23.3608  -49.4987 H         1 UNK         0.3000 
    216 H216       -1.4924  -21.3336  -48.8327 H         1 UNK         0.0600 
    217 H217       -2.5317  -19.3657  -49.8294 H         1 UNK         0.0600 
    218 H218       -3.7115  -20.6657  -49.8438 H         1 UNK         0.0600 
    219 H219       -2.8699  -20.2187  -51.3258 H         1 UNK         0.0600 
    220 H220        0.3438  -22.8634  -50.5342 H         1 UNK         0.3000 
    221 H221        2.2822  -22.7865  -51.5750 H         1 UNK         0.0600 
    222 H222        2.5816  -19.8901  -50.6098 H         1 UNK         0.0600 
    223 H223        2.9952  -21.3177  -49.6625 H         1 UNK         0.0600 
    224 H224        3.8740  -20.9570  -51.1367 H         1 UNK         0.0600 
    225 H225       -0.2176  -21.9113  -52.9434 H         1 UNK         0.3000 
    226 H226       -1.0113  -21.3387  -54.8748 H         1 UNK         0.0600 
    227 H227        0.3451  -21.3845  -56.9182 H         1 UNK         0.0600 
    228 H228        1.8338  -21.2258  -55.9992 H         1 UNK         0.0600 
    229 H229        0.8576  -22.6884  -55.8615 H         1 UNK         0.0600 
    230 H230       -0.1639  -19.2235  -52.8750 H         1 UNK         0.3000 
    231 H231        0.4635  -16.8246  -54.3110 H         1 UNK         0.0600 
    232 H232        0.9135  -17.1116  -51.8901 H         1 UNK         0.0600 
    233 H233       -0.8137  -17.2415  -51.5596 H         1 UNK         0.0600 
    234 H234       -0.1422  -15.7309  -52.1594 H         1 UNK         0.0600 
    235 H235       -0.8652  -16.3144  -55.9580 H         1 UNK         0.3000 
    236 H236       -2.4823  -15.4228  -57.1224 H         1 UNK         0.0600 
    237 H237       -2.9018  -13.8595  -55.2403 H         1 UNK         0.0600 
    238 H238       -4.3872  -14.2403  -56.0973 H         1 UNK         0.0600 
    239 H239       -4.0665  -14.9813  -54.5385 H         1 UNK         0.0600 
    240 H240       -3.9567  -17.6076  -54.6988 H         1 UNK         0.3000 
    241 H241       -5.8897  -18.6490  -56.6529 H         1 UNK         0.0600 
    242 H242       -2.7891  -21.0651  -56.8577 H         1 UNK         0.3800 
    243 H243       -2.6671  -19.3746  -56.4367 H         1 UNK         0.3800 
    244 H244       -6.8437  -18.2581  -54.5299 H         1 UNK         0.0800 
    245 H245       -6.7970  -19.9745  -54.7407 H         1 UNK         0.0800 
    246 H246       -6.9394  -17.7822  -52.0820 H         1 UNK         0.0800 
    247 H247       -5.5581  -16.9110  -52.7104 H         1 UNK         0.0800 
@<TRIPOS>BOND
     1    1    2 1    
     2    1  127 1    
     3    1  128 1    
     4    1  129 1    
     5    2    3 2    
     6    2    4 am   BACKBONE|DICT|INTERRES
     7    4    5 1    
     8    4  130 1    
     9    5    6 1    
    10    5   65 1    
    11    5  131 1    
    12    6    7 1    
    13    6  132 1    
    14    6  133 1    
    15    7    8 1    
    16    8    9 1    
    17    8  134 1    
    18    8  135 1    
    19    9   10 ar   
    20    9   14 ar   
    21   10   11 ar   
    22   10  136 1    
    23   11   12 ar   
    24   11  126 1    
    25   12   13 ar   
    26   12  137 1    
    27   13   14 ar   
    28   13   15 1    
    29   14  138 1    
    30   15   16 1    
    31   15  139 1    
    32   15  140 1    
    33   16   17 1    
    34   17   18 1    
    35   17  141 1    
    36   17  142 1    
    37   18   19 1    
    38   18   67 1    
    39   18  143 1    
    40   19   20 am   BACKBONE|DICT|INTERRES
    41   19  144 1    
    42   20   21 2    
    43   20   22 1    
    44   22   23 1    
    45   22   24 1    
    46   22  145 1    
    47   23  146 1    
    48   23  147 1    
    49   23  148 1    
    50   24   25 am   BACKBONE|DICT|INTERRES
    51   24  149 1    
    52   25   26 2    
    53   25   27 1    
    54   27   28 1    
    55   27   29 1    
    56   27  150 1    
    57   28  151 1    
    58   28  152 1    
    59   28  153 1    
    60   29   30 am   BACKBONE|DICT|INTERRES
    61   29  154 1    
    62   30   31 2    
    63   30   32 1    
    64   32   33 1    
    65   32   34 1    
    66   32  155 1    
    67   33  156 1    
    68   33  157 1    
    69   33  158 1    
    70   34   35 am   BACKBONE|DICT|INTERRES
    71   34  159 1    
    72   35   36 2    
    73   35   37 1    
    74   37   38 1    
    75   37   39 1    
    76   37  160 1    
    77   38  161 1    
    78   38  162 1    
    79   38  163 1    
    80   39   40 am   BACKBONE|DICT|INTERRES
    81   39  164 1    
    82   40   41 2    
    83   40   42 1    
    84   42   43 1    
    85   42   44 1    
    86   42  165 1    
    87   43  166 1    
    88   43  167 1    
    89   43  168 1    
    90   44   45 am   BACKBONE|DICT|INTERRES
    91   44  169 1    
    92   45   46 2    
    93   45   47 1    
    94   47   48 1    
    95   47   49 1    
    96   47  170 1    
    97   48  171 1    
    98   48  172 1    
    99   48  173 1    
   100   49   50 am   BACKBONE|DICT|INTERRES
   101   49  174 1    
   102   50   51 2    
   103   50   52 1    
   104   52   53 1    
   105   52   54 1    
   106   52  175 1    
   107   53  176 1    
   108   53  177 1    
   109   53  178 1    
   110   54   55 am   BACKBONE|DICT|INTERRES
   111   54  179 1    
   112   55   56 2    
   113   55   57 1    
   114   57   58 1    
   115   57   59 1    
   116   57  180 1    
   117   58  181 1    
   118   58  182 1    
   119   58  183 1    
   120   59   60 am   BACKBONE|DICT|INTERRES
   121   59  184 1    
   122   60   61 2    
   123   60   62 1    
   124   62   63 1    
   125   62   64 1    
   126   62  185 1    
   127   63  186 1    
   128   63  187 1    
   129   63  188 1    
   130   64   65 am   BACKBONE|DICT|INTERRES
   131   64  189 1    
   132   65   66 2    
   133   67   68 2    
   134   67   69 am   BACKBONE|DICT|INTERRES
   135   69   70 1    
   136   69  190 1    
   137   70   71 1    
   138   70   72 1    
   139   70  191 1    
   140   71  192 1    
   141   71  193 1    
   142   71  194 1    
   143   72   73 2    
   144   72   74 am   BACKBONE|DICT|INTERRES
   145   74   75 1    
   146   74  195 1    
   147   75   76 1    
   148   75   77 1    
   149   75  196 1    
   150   76  197 1    
   151   76  198 1    
   152   76  199 1    
   153   77   78 2    
   154   77   79 am   BACKBONE|DICT|INTERRES
   155   79   80 1    
   156   79  200 1    
   157   80   81 1    
   158   80   82 1    
   159   80  201 1    
   160   81  202 1    
   161   81  203 1    
   162   81  204 1    
   163   82   83 2    
   164   82   84 am   BACKBONE|DICT|INTERRES
   165   84   85 1    
   166   84  205 1    
   167   85   86 1    
   168   85   87 1    
   169   85  206 1    
   170   86  207 1    
   171   86  208 1    
   172   86  209 1    
   173   87   88 2    
   174   87   89 am   BACKBONE|DICT|INTERRES
   175   89   90 1    
   176   89  210 1    
   177   90   91 1    
   178   90   92 1    
   179   90  211 1    
   180   91  212 1    
   181   91  213 1    
   182   91  214 1    
   183   92   93 2    
   184   92   94 am   BACKBONE|DICT|INTERRES
   185   94   95 1    
   186   94  215 1    
   187   95   96 1    
   188   95   97 1    
   189   95  216 1    
   190   96  217 1    
   191   96  218 1    
   192   96  219 1    
   193   97   98 2    
   194   97   99 am   BACKBONE|DICT|INTERRES
   195   99  100 1    
   196   99  220 1    
   197  100  101 1    
   198  100  102 1    
   199  100  221 1    
   200  101  222 1    
   201  101  223 1    
   202  101  224 1    
   203  102  103 2    
   204  102  104 am   BACKBONE|DICT|INTERRES
   205  104  105 1    
   206  104  225 1    
   207  105  106 1    
   208  105  107 1    
   209  105  226 1    
   210  106  227 1    
   211  106  228 1    
   212  106  229 1    
   213  107  108 2    
   214  107  109 am   BACKBONE|DICT|INTERRES
   215  109  110 1    
   216  109  230 1    
   217  110  111 1    
   218  110  112 1    
   219  110  231 1    
   220  111  232 1    
   221  111  233 1    
   222  111  234 1    
   223  112  113 2    
   224  112  114 am   BACKBONE|DICT|INTERRES
   225  114  115 1    
   226  114  235 1    
   227  115  116 1    
   228  115  117 1    
   229  115  236 1    
   230  116  237 1    
   231  116  238 1    
   232  116  239 1    
   233  117  118 2    
   234  117  119 am   BACKBONE|DICT|INTERRES
   235  119  120 1    
   236  119  240 1    
   237  120  121 1    
   238  120  124 1    
   239  120  241 1    
   240  121  122 am   BACKBONE|DICT|INTERRES
   241  121  123 2    
   242  122  242 1    
   243  122  243 1    
   244  124  125 1    
   245  124  244 1    
   246  124  245 1    
   247  125  126 1    
   248  126  246 1    
   249  126  247 1    
@<TRIPOS>SUBSTRUCTURE
     1 UNK         1 GROUP             0       ****    0 ROOT    
