@<TRIPOS>MOLECULE
3R540
247   249    1
SMALL
USER_CHARGES


@<TRIPOS>ATOM
      1 CA          4.4735  -10.5958  -47.2256 C.3       0 UNK        -0.1800 
      2 C           3.2253  -11.4465  -47.0038 C.2       0 UNK         0.5000 
      3 O           2.1892  -10.9077  -46.6206 O.2       0 UNK        -0.5000 
      4 N           3.2680  -12.7658  -47.2301 N.am      1 UNK        -0.5000 
      5 CA          4.4434  -13.5578  -47.6118 C.3       1 UNK         0.1400 
      6 C6          4.0584  -14.7843  -48.4817 C.3       23 UNK        -0.0398 
      7 S7          3.0339  -16.0277  -47.6190 S.3       23 UNK        -0.2404 
      8 C8          1.3564  -15.5981  -48.1885 C.3       23 UNK        -0.0205 
      9 C9          0.8168  -16.4004  -49.3724 C.ar      23 UNK        -0.0193 
     10 C10        -0.4445  -16.0577  -49.8664 C.ar      23 UNK        -0.1150 
     11 C11        -1.0199  -16.7606  -50.9261 C.ar      23 UNK        -0.0193 
     12 C12        -0.3161  -17.8142  -51.5099 C.ar      23 UNK        -0.1150 
     13 C13         0.9494  -18.1698  -51.0372 C.ar      23 UNK        -0.0193 
     14 C14         1.5095  -17.4643  -49.9681 C.ar      23 UNK        -0.1150 
     15 C15         1.7194  -19.3035  -51.6982 C.3       23 UNK        -0.0205 
     16 S16         1.7476  -20.8142  -50.6834 S.3       23 UNK        -0.2404 
     17 C17        -0.0176  -21.2759  -50.6296 C.3       23 UNK        -0.0398 
     18 CA         -0.5063  -21.5351  -49.1874 C.3       11 UNK         0.1400 
     19 N          -0.2895  -20.3976  -48.2860 N.am      11 UNK        -0.5000 
     20 C          -0.2700  -20.5124  -46.9515 C.2       10 UNK         0.5000 
     21 O          -0.4772  -21.5690  -46.3567 O.2       10 UNK        -0.5000 
     22 CA         -0.0190  -19.2306  -46.1433 C.3       10 UNK         0.1400 
     23 CB          1.4758  -18.8894  -46.1347 C.3       10 UNK        -0.1800 
     24 N          -0.7794  -18.0688  -46.6055 N.am      10 UNK        -0.5000 
     25 C          -2.1147  -18.0022  -46.6841 C.2       9 UNK         0.5000 
     26 O          -2.8517  -18.9774  -46.5276 O.2       9 UNK        -0.5000 
     27 CA         -2.7178  -16.6135  -46.9589 C.3       9 UNK         0.1400 
     28 CB         -4.2177  -16.5348  -46.6102 C.3       9 UNK        -0.1800 
     29 N          -1.9845  -15.5595  -46.2486 N.am      9 UNK        -0.5000 
     30 C          -1.9182  -14.2840  -46.6608 C.2       8 UNK         0.5000 
     31 O          -2.4000  -13.8982  -47.7263 O.2       8 UNK        -0.5000 
     32 CA         -1.2302  -13.2438  -45.7527 C.3       8 UNK         0.1400 
     33 CB         -2.2416  -12.1783  -45.2975 C.3       8 UNK        -0.1800 
     34 N          -0.6146  -13.8235  -44.5611 N.am      8 UNK        -0.5000 
     35 C           0.6734  -14.1669  -44.4526 C.2       7 UNK         0.5000 
     36 O           1.4985  -14.0530  -45.3582 O.2       7 UNK        -0.5000 
     37 CA          1.1349  -14.7369  -43.1006 C.3       7 UNK         0.1400 
     38 CB          1.7763  -13.6286  -42.2515 C.3       7 UNK        -0.1800 
     39 N           0.1099  -15.4083  -42.2965 N.am      7 UNK        -0.5000 
     40 C          -0.6584  -16.4330  -42.6858 C.2       6 UNK         0.5000 
     41 O          -0.7371  -16.8208  -43.8507 O.2       6 UNK        -0.5000 
     42 CA         -1.4105  -17.1773  -41.5653 C.3       6 UNK         0.1400 
     43 CB         -2.3829  -18.2341  -42.1169 C.3       6 UNK        -0.1800 
     44 N          -0.4414  -17.8405  -40.6938 N.am      6 UNK        -0.5000 
     45 C           0.2621  -17.2470  -39.7194 C.2       5 UNK         0.5000 
     46 O           0.0490  -16.0991  -39.3266 O.2       5 UNK        -0.5000 
     47 CA          1.4508  -18.0459  -39.1481 C.3       5 UNK         0.1400 
     48 CB          0.9986  -18.9260  -37.9732 C.3       5 UNK        -0.1800 
     49 N           2.1107  -18.8825  -40.1583 N.am      5 UNK        -0.5000 
     50 C           2.7361  -18.4117  -41.2471 C.2       4 UNK         0.5000 
     51 O           2.8896  -17.2097  -41.4848 O.2       4 UNK        -0.5000 
     52 CA          3.2416  -19.4583  -42.2523 C.3       4 UNK         0.1400 
     53 CB          2.0763  -20.2736  -42.8450 C.3       4 UNK        -0.1800 
     54 N           3.9473  -18.7614  -43.3213 N.am      4 UNK        -0.5000 
     55 C           4.9603  -19.2386  -44.0510 C.2       3 UNK         0.5000 
     56 O           5.3867  -20.3897  -43.9506 O.2       3 UNK        -0.5000 
     57 CA          5.6162  -18.2737  -45.0624 C.3       3 UNK         0.1400 
     58 CB          5.3236  -18.7111  -46.5063 C.3       3 UNK        -0.1800 
     59 N           5.1969  -16.8779  -44.8951 N.am      3 UNK        -0.5000 
     60 C           5.6838  -16.0406  -43.9672 C.2       2 UNK         0.5000 
     61 O           6.5444  -16.3685  -43.1489 O.2       2 UNK        -0.5000 
     62 CA          5.0950  -14.6116  -43.9359 C.3       2 UNK         0.1400 
     63 CB          6.0628  -13.5715  -43.3351 C.3       2 UNK        -0.1800 
     64 N           4.5726  -14.1536  -45.2298 N.am      2 UNK        -0.5000 
     65 C           5.2621  -13.9744  -46.3699 C.2       1 UNK         0.5000 
     66 O           6.4791  -14.1271  -46.4746 O.2       1 UNK        -0.5000 
     67 C          -1.9711  -22.0151  -49.1839 C.2       11 UNK         0.5000 
     68 O          -2.2165  -23.1813  -49.4942 O.2       11 UNK        -0.5000 
     69 N          -2.9165  -21.1390  -48.8181 N.am      12 UNK        -0.5000 
     70 CA         -4.3156  -21.5061  -48.6143 C.3       12 UNK         0.1400 
     71 CB         -5.2105  -20.2673  -48.7319 C.3       12 UNK        -0.1800 
     72 C          -4.5073  -22.2101  -47.2630 C.2       12 UNK         0.5000 
     73 O          -5.1738  -23.2424  -47.2101 O.2       12 UNK        -0.5000 
     74 N          -3.8721  -21.6777  -46.2091 N.am      13 UNK        -0.5000 
     75 CA         -3.8588  -22.2507  -44.8608 C.3       13 UNK         0.1400 
     76 CB         -3.1720  -21.2690  -43.9014 C.3       13 UNK        -0.1800 
     77 C          -3.1896  -23.6379  -44.8015 C.2       13 UNK         0.5000 
     78 O          -3.6814  -24.5228  -44.1007 O.2       13 UNK        -0.5000 
     79 N          -2.1081  -23.8138  -45.5726 N.am      14 UNK        -0.5000 
     80 CA         -1.4042  -25.0843  -45.7610 C.3       14 UNK         0.1400 
     81 CB         -0.0048  -24.7905  -46.3252 C.3       14 UNK        -0.1800 
     82 C          -2.1471  -26.0761  -46.6814 C.2       14 UNK         0.5000 
     83 O          -1.7389  -27.2356  -46.7568 O.2       14 UNK        -0.5000 
     84 N          -3.1936  -25.6067  -47.3796 N.am      15 UNK        -0.5000 
     85 CA         -3.9943  -26.3210  -48.3813 C.3       15 UNK         0.1400 
     86 CB         -4.7799  -27.4827  -47.7393 C.3       15 UNK        -0.1800 
     87 C          -3.1799  -26.7492  -49.6221 C.2       15 UNK         0.5000 
     88 O          -3.5017  -27.7526  -50.2606 O.2       15 UNK        -0.5000 
     89 N          -2.1428  -25.9683  -49.9458 N.am      16 UNK        -0.5000 
     90 CA         -1.2593  -26.1654  -51.0915 C.3       16 UNK         0.1400 
     91 CB          0.1393  -25.6383  -50.7334 C.3       16 UNK        -0.1800 
     92 C          -1.7936  -25.4614  -52.3505 C.2       16 UNK         0.5000 
     93 O          -1.5932  -25.9689  -53.4544 O.2       16 UNK        -0.5000 
     94 N          -2.4628  -24.3150  -52.1667 N.am      17 UNK        -0.5000 
     95 CA         -3.0208  -23.4917  -53.2412 C.3       17 UNK         0.1400 
     96 CB         -1.9793  -22.4583  -53.7058 C.3       17 UNK        -0.1800 
     97 C          -4.3528  -22.8445  -52.8228 C.2       17 UNK         0.5000 
     98 O          -4.6840  -21.7550  -53.3012 O.2       17 UNK        -0.5000 
     99 N          -5.1020  -23.5307  -51.9481 N.am      18 UNK        -0.5000 
    100 CA        -6.4345  -23.1362  -51.4912 C.3       18 UNK         0.1400 
    101 CB        -6.9197  -24.1163  -50.4127 C.3       18 UNK        -0.1800 
    102 C         -7.4323  -23.0654  -52.6599 C.2       18 UNK         0.5000 
    103 O         -7.6391  -24.0681  -53.3458 O.2       18 UNK        -0.5000 
    104 N         -7.9852  -21.8664  -52.8756 N.am      19 UNK        -0.5000 
    105 CA        -8.8781  -21.4554  -53.9640 C.3       19 UNK         0.1400 
    106 CB       -10.1673  -22.3026  -53.9891 C.3       19 UNK        -0.1800 
    107 C         -8.1960  -21.3792  -55.3479 C.2       19 UNK         0.5000 
    108 O         -8.8831  -21.1191  -56.3371 O.2       19 UNK        -0.5000 
    109 N         -6.8711  -21.5719  -55.4024 N.am      20 UNK        -0.5000 
    110 CA        -6.0561  -21.4389  -56.6074 C.3       20 UNK         0.1400 
    111 CB        -5.0992  -22.6369  -56.7245 C.3       20 UNK        -0.1800 
    112 C         -5.2865  -20.1115  -56.5698 C.2       20 UNK         0.5000 
    113 O         -5.3822  -19.3308  -57.5177 O.2       20 UNK        -0.5000 
    114 N         -4.5604  -19.8696  -55.4699 N.am      21 UNK        -0.5000 
    115 CA        -3.8177  -18.6322  -55.2324 C.3       21 UNK         0.1400 
    116 CB        -2.4689  -18.9634  -54.5772 C.3       21 UNK        -0.1800 
    117 C         -4.6169  -17.6643  -54.3472 C.2       21 UNK         0.5000 
    118 O         -4.6193  -16.4618  -54.6128 O.2       21 UNK        -0.5000 
    119 N         -5.2778  -18.2002  -53.3161 N.am      22 UNK        -0.5000 
    120 CA        -6.0552  -17.4552  -52.3188 C.3       22 UNK         0.1400 
    121 C         -6.9864  -18.3974  -51.5102 C.2       22 UNK         0.5000 
    122 N         -7.8736  -17.8570  -50.6866 N.am      22 UNK        -0.7600 
    123 O         -6.9305  -19.6188  -51.6301 O.2       22 UNK        -0.5000 
    124 C124       -5.1846  -16.5292  -51.4167 C.3       23 UNK        -0.0398 
    125 S125       -3.7175  -17.3261  -50.6654 S.3       23 UNK        -0.2404 
    126 C126       -2.3888  -16.3643  -51.4522 C.3       23 UNK        -0.0205 
    127 H127        4.7478  -10.5829  -48.2804 H         1 UNK         0.0600 
    128 H128        5.3152  -10.9738  -46.6455 H         1 UNK         0.0600 
    129 H129        4.2944   -9.5662  -46.9153 H         1 UNK         0.0600 
    130 H130        2.4506  -13.3098  -46.9758 H         1 UNK         0.3000 
    131 H131        5.0987  -12.9413  -48.2290 H         1 UNK         0.0600 
    132 H132        3.5432  -14.4540  -49.3847 H         1 UNK         0.0800 
    133 H133        4.9616  -15.2861  -48.8332 H         1 UNK         0.0800 
    134 H134        1.3098  -14.5341  -48.4231 H         1 UNK         0.0800 
    135 H135        0.6854  -15.7454  -47.3445 H         1 UNK         0.0800 
    136 H136       -0.9862  -15.2350  -49.4236 H         1 UNK         0.1150 
    137 H137       -0.7529  -18.3555  -52.3355 H         1 UNK         0.1150 
    138 H138        2.4862  -17.7576  -49.6128 H         1 UNK         0.1150 
    139 H139        1.3004  -19.5376  -52.6783 H         1 UNK         0.0800 
    140 H140        2.7463  -18.9816  -51.8768 H         1 UNK         0.0800 
    141 H141       -0.1327  -22.1764  -51.2351 H         1 UNK         0.0800 
    142 H142       -0.6281  -20.5107  -51.1078 H         1 UNK         0.0800 
    143 H143        0.0851  -22.3691  -48.8029 H         1 UNK         0.0600 
    144 H144       -0.1034  -19.5003  -48.7111 H         1 UNK         0.3000 
    145 H145       -0.3292  -19.4263  -45.1150 H         1 UNK         0.0600 
    146 H146        1.8339  -18.6608  -47.1382 H         1 UNK         0.0600 
    147 H147        1.6844  -18.0325  -45.4934 H         1 UNK         0.0600 
    148 H148        2.0675  -19.7267  -45.7642 H         1 UNK         0.0600 
    149 H149       -0.2542  -17.2190  -46.7350 H         1 UNK         0.3000 
    150 H150       -2.6149  -16.4565  -48.0328 H         1 UNK         0.0600 
    151 H151       -4.7921  -17.2681  -47.1764 H         1 UNK         0.0600 
    152 H152       -4.6315  -15.5553  -46.8493 H         1 UNK         0.0600 
    153 H153       -4.3903  -16.7236  -45.5501 H         1 UNK         0.0600 
    154 H154       -1.5458  -15.8363  -45.3735 H         1 UNK         0.3000 
    155 H155       -0.4672  -12.7457  -46.3552 H         1 UNK         0.0600 
    156 H156       -2.6971  -11.6767  -46.1523 H         1 UNK         0.0600 
    157 H157       -1.7583  -11.4097  -44.6940 H         1 UNK         0.0600 
    158 H158       -3.0467  -12.6146  -44.7050 H         1 UNK         0.0600 
    159 H159       -1.2153  -13.9673  -43.7628 H         1 UNK         0.3000 
    160 H160        1.8989  -15.4825  -43.3265 H         1 UNK         0.0600 
    161 H161        1.0316  -12.9144  -41.8984 H         1 UNK         0.0600 
    162 H162        2.5186  -13.0673  -42.8208 H         1 UNK         0.0600 
    163 H163        2.2821  -14.0457  -41.3803 H         1 UNK         0.0600 
    164 H164        0.1223  -15.1992  -41.3055 H         1 UNK         0.3000 
    165 H165       -1.9858  -16.4458  -40.9942 H         1 UNK         0.0600 
    166 H166       -2.9267  -18.7298  -41.3127 H         1 UNK         0.0600 
    167 H167       -3.1214  -17.7804  -42.7792 H         1 UNK         0.0600 
    168 H168       -1.8567  -18.9996  -42.6879 H         1 UNK         0.0600 
    169 H169       -0.1717  -18.7746  -40.9629 H         1 UNK         0.3000 
    170 H170        2.1838  -17.3269  -38.7761 H         1 UNK         0.0600 
    171 H171        0.5223  -18.3255  -37.1970 H         1 UNK         0.0600 
    172 H172        0.2803  -19.6836  -38.2891 H         1 UNK         0.0600 
    173 H173        1.8453  -19.4360  -37.5135 H         1 UNK         0.0600 
    174 H174        2.0415  -19.8814  -40.0268 H         1 UNK         0.3000 
    175 H175        3.9326  -20.1235  -41.7304 H         1 UNK         0.0600 
    176 H176        1.3188  -19.6245  -43.2851 H         1 UNK         0.0600 
    177 H177        2.4237  -20.9586  -43.6185 H         1 UNK         0.0600 
    178 H178        1.5860  -20.8782  -42.0817 H         1 UNK         0.0600 
    179 H179        3.7079  -17.7820  -43.3988 H         1 UNK         0.3000 
    180 H180        6.6958  -18.3330  -44.9095 H         1 UNK         0.0600 
    181 H181        4.2568  -18.6975  -46.7242 H         1 UNK         0.0600 
    182 H182        5.6810  -19.7253  -46.6885 H         1 UNK         0.0600 
    183 H183        5.8199  -18.0584  -47.2249 H         1 UNK         0.0600 
    184 H184        4.4998  -16.5344  -45.5416 H         1 UNK         0.3000 
    185 H185        4.2372  -14.6746  -43.2680 H         1 UNK         0.0600 
    186 H186        6.9907  -13.5041  -43.9035 H         1 UNK         0.0600 
    187 H187        5.6100  -12.5803  -43.3118 H         1 UNK         0.0600 
    188 H188        6.3271  -13.8291  -42.3089 H         1 UNK         0.0600 
    189 H189        3.5681  -14.0132  -45.2731 H         1 UNK         0.3000 
    190 H190       -2.6423  -20.2112  -48.5257 H         1 UNK         0.3000 
    191 H191       -4.6084  -22.2033  -49.4000 H         1 UNK         0.0600 
    192 H192       -5.0615  -19.7773  -49.6921 H         1 UNK         0.0600 
    193 H193       -6.2645  -20.5393  -48.6660 H         1 UNK         0.0600 
    194 H194       -5.0088  -19.5383  -47.9484 H         1 UNK         0.0600 
    195 H195       -3.3740  -20.7998  -46.3337 H         1 UNK         0.3000 
    196 H196       -4.8962  -22.3697  -44.5415 H         1 UNK         0.0600 
    197 H197       -3.1765  -21.6500  -42.8796 H         1 UNK         0.0600 
    198 H198       -3.6855  -20.3074  -43.8940 H         1 UNK         0.0600 
    199 H199       -2.1338  -21.0908  -44.1826 H         1 UNK         0.0600 
    200 H200       -1.7112  -23.0041  -46.0423 H         1 UNK         0.3000 
    201 H201       -1.2875  -25.5641  -44.7872 H         1 UNK         0.0600 
    202 H202        0.5553  -24.1259  -45.6670 H         1 UNK         0.0600 
    203 H203       -0.0603  -24.3212  -47.3079 H         1 UNK         0.0600 
    204 H204        0.5773  -25.7067  -46.4319 H         1 UNK         0.0600 
    205 H205       -3.4685  -24.6454  -47.2229 H         1 UNK         0.3000 
    206 H206       -4.7245  -25.5990  -48.7441 H         1 UNK         0.0600 
    207 H207       -4.1214  -28.2884  -47.4140 H         1 UNK         0.0600 
    208 H208       -5.3476  -27.1418  -46.8735 H         1 UNK         0.0600 
    209 H209       -5.4931  -27.9095  -48.4453 H         1 UNK         0.0600 
    210 H210       -2.0059  -25.1135  -49.4166 H         1 UNK         0.3000 
    211 H211       -1.1758  -27.2324  -51.3092 H         1 UNK         0.0600 
    212 H212        0.8340  -25.7779  -51.5626 H         1 UNK         0.0600 
    213 H213        0.5493  -26.1672  -49.8727 H         1 UNK         0.0600 
    214 H214        0.1225  -24.5748  -50.4937 H         1 UNK         0.0600 
    215 H215       -2.5563  -23.9517  -51.2219 H         1 UNK         0.3000 
    216 H216       -3.2628  -24.1319  -54.0918 H         1 UNK         0.0600 
    217 H217       -2.3157  -21.9494  -54.6089 H         1 UNK         0.0600 
    218 H218       -1.0248  -22.9293  -53.9405 H         1 UNK         0.0600 
    219 H219       -1.8037  -21.6989  -52.9450 H         1 UNK         0.0600 
    220 H220       -4.7779  -24.4408  -51.6588 H         1 UNK         0.3000 
    221 H221       -6.3531  -22.1478  -51.0358 H         1 UNK         0.0600 
    222 H222       -6.9339  -25.1447  -50.7761 H         1 UNK         0.0600 
    223 H223       -6.2830  -24.0772  -49.5311 H         1 UNK         0.0600 
    224 H224       -7.9309  -23.8684  -50.0875 H         1 UNK         0.0600 
    225 H225       -7.6666  -21.0935  -52.2893 H         1 UNK         0.3000 
    226 H226       -9.1686  -20.4315  -53.7249 H         1 UNK         0.0600 
    227 H227      -10.6328  -22.3428  -53.0044 H         1 UNK         0.0600 
    228 H228      -10.9001  -21.8769  -54.6754 H         1 UNK         0.0600 
    229 H229       -9.9772  -23.3255  -54.3144 H         1 UNK         0.0600 
    230 H230       -6.3743  -21.7447  -54.5369 H         1 UNK         0.3000 
    231 H231       -6.6878  -21.4353  -57.4981 H         1 UNK         0.0600 
    232 H232       -4.4051  -22.6931  -55.8875 H         1 UNK         0.0600 
    233 H233       -4.5050  -22.5703  -57.6366 H         1 UNK         0.0600 
    234 H234       -5.6509  -23.5762  -56.7634 H         1 UNK         0.0600 
    235 H235       -4.5497  -20.5581  -54.7222 H         1 UNK         0.3000 
    236 H236       -3.6102  -18.1286  -56.1790 H         1 UNK         0.0600 
    237 H237       -1.8788  -19.6306  -55.2052 H         1 UNK         0.0600 
    238 H238       -1.8800  -18.0579  -54.4292 H         1 UNK         0.0600 
    239 H239       -2.5987  -19.4385  -53.6040 H         1 UNK         0.0600 
    240 H240       -5.2520  -19.1994  -53.1578 H         1 UNK         0.3000 
    241 H241       -6.7372  -16.8171  -52.8837 H         1 UNK         0.0600 
    242 H242       -8.4821  -18.4664  -50.1638 H         1 UNK         0.3800 
    243 H243       -7.9653  -16.8594  -50.5781 H         1 UNK         0.3800 
    244 H244       -4.8573  -15.6741  -52.0086 H         1 UNK         0.0800 
    245 H245       -5.7784  -16.0932  -50.6125 H         1 UNK         0.0800 
    246 H246       -2.4275  -16.5039  -52.5329 H         1 UNK         0.0800 
    247 H247       -2.5587  -15.3013  -51.2733 H         1 UNK         0.0800 
@<TRIPOS>BOND
     1    1    2 1    
     2    1  127 1    
     3    1  128 1    
     4    1  129 1    
     5    2    3 2    
     6    2    4 am   BACKBONE|DICT|INTERRES
     7    4    5 1    
     8    4  130 1    
     9    5    6 1    
    10    5   65 1    
    11    5  131 1    
    12    6    7 1    
    13    6  132 1    
    14    6  133 1    
    15    7    8 1    
    16    8    9 1    
    17    8  134 1    
    18    8  135 1    
    19    9   10 ar   
    20    9   14 ar   
    21   10   11 ar   
    22   10  136 1    
    23   11   12 ar   
    24   11  126 1    
    25   12   13 ar   
    26   12  137 1    
    27   13   14 ar   
    28   13   15 1    
    29   14  138 1    
    30   15   16 1    
    31   15  139 1    
    32   15  140 1    
    33   16   17 1    
    34   17   18 1    
    35   17  141 1    
    36   17  142 1    
    37   18   19 1    
    38   18   67 1    
    39   18  143 1    
    40   19   20 am   BACKBONE|DICT|INTERRES
    41   19  144 1    
    42   20   21 2    
    43   20   22 1    
    44   22   23 1    
    45   22   24 1    
    46   22  145 1    
    47   23  146 1    
    48   23  147 1    
    49   23  148 1    
    50   24   25 am   BACKBONE|DICT|INTERRES
    51   24  149 1    
    52   25   26 2    
    53   25   27 1    
    54   27   28 1    
    55   27   29 1    
    56   27  150 1    
    57   28  151 1    
    58   28  152 1    
    59   28  153 1    
    60   29   30 am   BACKBONE|DICT|INTERRES
    61   29  154 1    
    62   30   31 2    
    63   30   32 1    
    64   32   33 1    
    65   32   34 1    
    66   32  155 1    
    67   33  156 1    
    68   33  157 1    
    69   33  158 1    
    70   34   35 am   BACKBONE|DICT|INTERRES
    71   34  159 1    
    72   35   36 2    
    73   35   37 1    
    74   37   38 1    
    75   37   39 1    
    76   37  160 1    
    77   38  161 1    
    78   38  162 1    
    79   38  163 1    
    80   39   40 am   BACKBONE|DICT|INTERRES
    81   39  164 1    
    82   40   41 2    
    83   40   42 1    
    84   42   43 1    
    85   42   44 1    
    86   42  165 1    
    87   43  166 1    
    88   43  167 1    
    89   43  168 1    
    90   44   45 am   BACKBONE|DICT|INTERRES
    91   44  169 1    
    92   45   46 2    
    93   45   47 1    
    94   47   48 1    
    95   47   49 1    
    96   47  170 1    
    97   48  171 1    
    98   48  172 1    
    99   48  173 1    
   100   49   50 am   BACKBONE|DICT|INTERRES
   101   49  174 1    
   102   50   51 2    
   103   50   52 1    
   104   52   53 1    
   105   52   54 1    
   106   52  175 1    
   107   53  176 1    
   108   53  177 1    
   109   53  178 1    
   110   54   55 am   BACKBONE|DICT|INTERRES
   111   54  179 1    
   112   55   56 2    
   113   55   57 1    
   114   57   58 1    
   115   57   59 1    
   116   57  180 1    
   117   58  181 1    
   118   58  182 1    
   119   58  183 1    
   120   59   60 am   BACKBONE|DICT|INTERRES
   121   59  184 1    
   122   60   61 2    
   123   60   62 1    
   124   62   63 1    
   125   62   64 1    
   126   62  185 1    
   127   63  186 1    
   128   63  187 1    
   129   63  188 1    
   130   64   65 am   BACKBONE|DICT|INTERRES
   131   64  189 1    
   132   65   66 2    
   133   67   68 2    
   134   67   69 am   BACKBONE|DICT|INTERRES
   135   69   70 1    
   136   69  190 1    
   137   70   71 1    
   138   70   72 1    
   139   70  191 1    
   140   71  192 1    
   141   71  193 1    
   142   71  194 1    
   143   72   73 2    
   144   72   74 am   BACKBONE|DICT|INTERRES
   145   74   75 1    
   146   74  195 1    
   147   75   76 1    
   148   75   77 1    
   149   75  196 1    
   150   76  197 1    
   151   76  198 1    
   152   76  199 1    
   153   77   78 2    
   154   77   79 am   BACKBONE|DICT|INTERRES
   155   79   80 1    
   156   79  200 1    
   157   80   81 1    
   158   80   82 1    
   159   80  201 1    
   160   81  202 1    
   161   81  203 1    
   162   81  204 1    
   163   82   83 2    
   164   82   84 am   BACKBONE|DICT|INTERRES
   165   84   85 1    
   166   84  205 1    
   167   85   86 1    
   168   85   87 1    
   169   85  206 1    
   170   86  207 1    
   171   86  208 1    
   172   86  209 1    
   173   87   88 2    
   174   87   89 am   BACKBONE|DICT|INTERRES
   175   89   90 1    
   176   89  210 1    
   177   90   91 1    
   178   90   92 1    
   179   90  211 1    
   180   91  212 1    
   181   91  213 1    
   182   91  214 1    
   183   92   93 2    
   184   92   94 am   BACKBONE|DICT|INTERRES
   185   94   95 1    
   186   94  215 1    
   187   95   96 1    
   188   95   97 1    
   189   95  216 1    
   190   96  217 1    
   191   96  218 1    
   192   96  219 1    
   193   97   98 2    
   194   97   99 am   BACKBONE|DICT|INTERRES
   195   99  100 1    
   196   99  220 1    
   197  100  101 1    
   198  100  102 1    
   199  100  221 1    
   200  101  222 1    
   201  101  223 1    
   202  101  224 1    
   203  102  103 2    
   204  102  104 am   BACKBONE|DICT|INTERRES
   205  104  105 1    
   206  104  225 1    
   207  105  106 1    
   208  105  107 1    
   209  105  226 1    
   210  106  227 1    
   211  106  228 1    
   212  106  229 1    
   213  107  108 2    
   214  107  109 am   BACKBONE|DICT|INTERRES
   215  109  110 1    
   216  109  230 1    
   217  110  111 1    
   218  110  112 1    
   219  110  231 1    
   220  111  232 1    
   221  111  233 1    
   222  111  234 1    
   223  112  113 2    
   224  112  114 am   BACKBONE|DICT|INTERRES
   225  114  115 1    
   226  114  235 1    
   227  115  116 1    
   228  115  117 1    
   229  115  236 1    
   230  116  237 1    
   231  116  238 1    
   232  116  239 1    
   233  117  118 2    
   234  117  119 am   BACKBONE|DICT|INTERRES
   235  119  120 1    
   236  119  240 1    
   237  120  121 1    
   238  120  124 1    
   239  120  241 1    
   240  121  122 am   BACKBONE|DICT|INTERRES
   241  121  123 2    
   242  122  242 1    
   243  122  243 1    
   244  124  125 1    
   245  124  244 1    
   246  124  245 1    
   247  125  126 1    
   248  126  246 1    
   249  126  247 1    
@<TRIPOS>SUBSTRUCTURE
     1 UNK         1 GROUP             0       ****    0 ROOT    
