@<TRIPOS>MOLECULE
3R540
247   249    1
SMALL
USER_CHARGES


@<TRIPOS>ATOM
      1 CA          1.0729   -9.9576  -50.3003 C.3       0 UNK        -0.1800 
      2 C           1.2711  -11.2046  -49.4515 C.2       0 UNK         0.5000 
      3 O           0.4324  -11.5109  -48.6044 O.2       0 UNK        -0.5000 
      4 N           2.3671  -11.9392  -49.6840 N.am      1 UNK        -0.5000 
      5 CA          2.7367  -13.1651  -48.9608 C.3       1 UNK         0.1400 
      6 C6          4.1961  -13.5983  -49.2467 C.3       23 UNK        -0.0398 
      7 S7          4.5989  -13.8039  -51.0198 S.3       23 UNK        -0.2404 
      8 C8          5.3101  -15.4802  -51.0618 C.3       23 UNK        -0.0205 
      9 C9          4.2345  -16.5510  -51.1528 C.ar      23 UNK        -0.0193 
     10 C10         3.7576  -16.9567  -52.4028 C.ar      23 UNK        -0.1150 
     11 C11         2.7656  -17.9359  -52.4997 C.ar      23 UNK        -0.0193 
     12 C12         2.2577  -18.5166  -51.3358 C.ar      23 UNK        -0.1150 
     13 C13         2.7154  -18.1103  -50.0782 C.ar      23 UNK        -0.0193 
     14 C14         3.7154  -17.1374  -49.9949 C.ar      23 UNK        -0.1150 
     15 C15         2.1158  -18.7065  -48.8125 C.3       23 UNK        -0.0205 
     16 S16         0.3090  -18.5018  -48.7917 S.3       23 UNK        -0.2404 
     17 C17        -0.1479  -19.0549  -47.1265 C.3       23 UNK        -0.0398 
     18 CA         -0.5721  -20.5368  -47.1284 C.3       11 UNK         0.1400 
     19 N           0.5815  -21.4287  -47.2372 N.am      11 UNK        -0.5000 
     20 C           0.5288  -22.7463  -47.4685 C.2       10 UNK         0.5000 
     21 O          -0.5175  -23.3604  -47.6722 O.2       10 UNK        -0.5000 
     22 CA          1.8676  -23.5095  -47.3750 C.3       10 UNK         0.1400 
     23 CB          2.5131  -23.6211  -48.7639 C.3       10 UNK        -0.1800 
     24 N           2.8263  -22.8969  -46.4418 N.am      10 UNK        -0.5000 
     25 C           2.5810  -22.6678  -45.1435 C.2       9 UNK         0.5000 
     26 O           1.5299  -23.0051  -44.5933 O.2       9 UNK        -0.5000 
     27 CA          3.6328  -21.8509  -44.3676 C.3       9 UNK         0.1400 
     28 CB          3.7793  -20.4419  -44.9723 C.3       9 UNK        -0.1800 
     29 N           3.2331  -21.6966  -42.9707 N.am      9 UNK        -0.5000 
     30 C           3.4298  -22.5905  -41.9943 C.2       8 UNK         0.5000 
     31 O           4.1080  -23.6097  -42.1341 O.2       8 UNK        -0.5000 
     32 CA          2.7157  -22.3217  -40.6491 C.3       8 UNK         0.1400 
     33 CB          3.6151  -22.6207  -39.4316 C.3       8 UNK        -0.1800 
     34 N           2.0942  -20.9904  -40.5521 N.am      8 UNK        -0.5000 
     35 C           2.6994  -19.7955  -40.4603 C.2       7 UNK         0.5000 
     36 O           3.9196  -19.6512  -40.3869 O.2       7 UNK        -0.5000 
     37 CA          1.7983  -18.5423  -40.5093 C.3       7 UNK         0.1400 
     38 CB          2.1936  -17.6464  -41.6943 C.3       7 UNK        -0.1800 
     39 N           0.3673  -18.8486  -40.6202 N.am      7 UNK        -0.5000 
     40 C          -0.4438  -19.1159  -39.5860 C.2       6 UNK         0.5000 
     41 O          -0.0454  -19.1764  -38.4223 O.2       6 UNK        -0.5000 
     42 CA         -1.9336  -19.4037  -39.8929 C.3       6 UNK         0.1400 
     43 CB         -2.8777  -18.7603  -38.8557 C.3       6 UNK        -0.1800 
     44 N          -2.3602  -19.0810  -41.2638 N.am      6 UNK        -0.5000 
     45 C          -2.4137  -17.8702  -41.8363 C.2       5 UNK         0.5000 
     46 O          -2.1201  -16.8194  -41.2620 O.2       5 UNK        -0.5000 
     47 CA         -2.8646  -17.8344  -43.3102 C.3       5 UNK         0.1400 
     48 CB         -4.3664  -17.5315  -43.4160 C.3       5 UNK        -0.1800 
     49 N          -2.1084  -16.8359  -44.0631 N.am      5 UNK        -0.5000 
     50 C          -0.7967  -16.9110  -44.3123 C.2       4 UNK         0.5000 
     51 O          -0.1324  -17.9216  -44.0710 O.2       4 UNK        -0.5000 
     52 CA         -0.1207  -15.6546  -44.9111 C.3       4 UNK         0.1400 
     53 CB          1.3811  -15.8671  -45.1727 C.3       4 UNK        -0.1800 
     54 N          -0.7477  -15.1453  -46.1382 N.am      4 UNK        -0.5000 
     55 C          -1.9250  -14.5040  -46.2133 C.2       3 UNK         0.5000 
     56 O          -2.6633  -14.3447  -45.2397 O.2       3 UNK        -0.5000 
     57 CA         -2.3578  -13.9102  -47.5711 C.3       3 UNK         0.1400 
     58 CB         -2.6439  -12.4051  -47.4395 C.3       3 UNK        -0.1800 
     59 N          -1.3733  -14.1041  -48.6348 N.am      3 UNK        -0.5000 
     60 C          -1.3082  -15.1759  -49.4383 C.2       2 UNK         0.5000 
     61 O          -2.1045  -16.1121  -49.3786 O.2       2 UNK        -0.5000 
     62 CA         -0.1729  -15.2100  -50.4883 C.3       2 UNK         0.1400 
     63 CB         -0.7315  -14.9015  -51.8848 C.3       2 UNK        -0.1800 
     64 N           0.9286  -14.2844  -50.2124 N.am      2 UNK        -0.5000 
     65 C           1.7305  -14.3244  -49.1384 C.2       1 UNK         0.5000 
     66 O           1.6527  -15.1887  -48.2672 O.2       1 UNK        -0.5000 
     67 C          -1.4699  -20.8497  -45.9139 C.2       11 UNK         0.5000 
     68 O          -2.6643  -20.5634  -45.9814 O.2       11 UNK        -0.5000 
     69 N          -0.9214  -21.4513  -44.8474 N.am      12 UNK        -0.5000 
     70 CA         -1.6934  -21.8967  -43.6871 C.3       12 UNK         0.1400 
     71 CB         -0.7715  -22.0469  -42.4687 C.3       12 UNK        -0.1800 
     72 C          -2.4561  -23.1994  -43.9756 C.2       12 UNK         0.5000 
     73 O          -3.5867  -23.3466  -43.5136 O.2       12 UNK        -0.5000 
     74 N          -1.8511  -24.0931  -44.7712 N.am      13 UNK        -0.5000 
     75 CA         -2.4877  -25.3145  -45.2697 C.3       13 UNK         0.1400 
     76 CB         -1.4186  -26.2559  -45.8455 C.3       13 UNK        -0.1800 
     77 C          -3.5779  -25.0063  -46.3138 C.2       13 UNK         0.5000 
     78 O          -4.6424  -25.6244  -46.2872 O.2       13 UNK        -0.5000 
     79 N          -3.3037  -24.0275  -47.1873 N.am      14 UNK        -0.5000 
     80 CA         -4.2398  -23.4968  -48.1794 C.3       14 UNK         0.1400 
     81 CB         -3.4551  -22.6306  -49.1770 C.3       14 UNK        -0.1800 
     82 C          -5.3760  -22.6532  -47.5712 C.2       14 UNK         0.5000 
     83 O          -6.3884  -22.4500  -48.2385 O.2       14 UNK        -0.5000 
     84 N          -5.1621  -22.1173  -46.3597 N.am      15 UNK        -0.5000 
     85 CA         -5.9830  -21.1045  -45.6821 C.3       15 UNK         0.1400 
     86 CB         -7.3433  -21.6936  -45.2571 C.3       15 UNK        -0.1800 
     87 C          -6.1114  -19.8102  -46.5186 C.2       15 UNK         0.5000 
     88 O          -7.1839  -19.2074  -46.5790 O.2       15 UNK        -0.5000 
     89 N          -5.0026  -19.4432  -47.1793 N.am      16 UNK        -0.5000 
     90 CA         -4.8294  -18.3394  -48.1293 C.3       16 UNK         0.1400 
     91 CB         -4.9304  -16.9813  -47.4056 C.3       16 UNK        -0.1800 
     92 C          -5.7230  -18.4138  -49.3916 C.2       16 UNK         0.5000 
     93 O          -5.8899  -17.3995  -50.0714 O.2       16 UNK        -0.5000 
     94 N          -6.2739  -19.5956  -49.7126 N.am      17 UNK        -0.5000 
     95 CA         -7.0477  -19.8298  -50.9321 C.3       17 UNK         0.1400 
     96 CB         -7.8341  -21.1432  -50.8080 C.3       17 UNK        -0.1800 
     97 C          -6.1120  -19.8763  -52.1494 C.2       17 UNK         0.5000 
     98 O          -5.2094  -20.7148  -52.1840 O.2       17 UNK        -0.5000 
     99 N          -6.3452  -18.9945  -53.1293 N.am      18 UNK        -0.5000 
    100 CA        -5.4894  -18.7855  -54.3036 C.3       18 UNK         0.1400 
    101 CB        -6.0348  -17.5990  -55.1125 C.3       18 UNK        -0.1800 
    102 C         -5.3089  -20.0174  -55.2129 C.2       18 UNK         0.5000 
    103 O         -4.3125  -20.0972  -55.9306 O.2       18 UNK        -0.5000 
    104 N         -6.2595  -20.9594  -55.1567 N.am      19 UNK        -0.5000 
    105 CA        -6.2028  -22.2409  -55.8599 C.3       19 UNK         0.1400 
    106 CB        -7.5984  -22.8829  -55.8332 C.3       19 UNK        -0.1800 
    107 C         -5.1542  -23.2116  -55.2783 C.2       19 UNK         0.5000 
    108 O         -4.6648  -24.0707  -56.0129 O.2       19 UNK        -0.5000 
    109 N         -4.8394  -23.0696  -53.9834 N.am      20 UNK        -0.5000 
    110 CA        -3.8715  -23.8974  -53.2624 C.3       20 UNK         0.1400 
    111 CB        -4.5325  -24.4391  -51.9853 C.3       20 UNK        -0.1800 
    112 C         -2.5778  -23.1230  -52.9497 C.2       20 UNK         0.5000 
    113 O         -1.4997  -23.7165  -52.9962 O.2       20 UNK        -0.5000 
    114 N         -2.6991  -21.8200  -52.6616 N.am      21 UNK        -0.5000 
    115 CA        -1.5950  -20.8729  -52.5300 C.3       21 UNK         0.1400 
    116 CB        -1.9884  -19.7830  -51.5099 C.3       21 UNK        -0.1800 
    117 C         -1.2307  -20.3250  -53.9262 C.2       21 UNK         0.5000 
    118 O         -0.7153  -21.0752  -54.7565 O.2       21 UNK        -0.5000 
    119 N         -1.5035  -19.0411  -54.1722 N.am      22 UNK        -0.5000 
    120 CA        -1.3104  -18.3532  -55.4537 C.3       22 UNK         0.1400 
    121 C         -2.1927  -17.0781  -55.5368 C.2       22 UNK         0.5000 
    122 N         -2.3786  -16.5194  -56.7252 N.am      22 UNK        -0.7600 
    123 O         -2.7108  -16.5854  -54.5368 O.2       22 UNK        -0.5000 
    124 C124        0.1844  -18.0759  -55.7827 C.3       23 UNK        -0.0398 
    125 S125        1.0589  -17.1158  -54.4969 S.3       23 UNK        -0.2404 
    126 C126        2.2259  -18.3544  -53.8566 C.3       23 UNK        -0.0205 
    127 H127        1.8856   -9.8195  -51.0138 H         1 UNK         0.0600 
    128 H128        1.0253   -9.0747  -49.6630 H         1 UNK         0.0600 
    129 H129        0.1387  -10.0282  -50.8573 H         1 UNK         0.0600 
    130 H130        3.0143  -11.6539  -50.4060 H         1 UNK         0.3000 
    131 H131        2.6938  -12.9128  -47.8989 H         1 UNK         0.0600 
    132 H132        4.4371  -14.5069  -48.6937 H         1 UNK         0.0800 
    133 H133        4.8730  -12.8398  -48.8514 H         1 UNK         0.0800 
    134 H134        5.9446  -15.6432  -50.1893 H         1 UNK         0.0800 
    135 H135        5.9696  -15.5548  -51.9279 H         1 UNK         0.0800 
    136 H136        4.1470  -16.4995  -53.3017 H         1 UNK         0.1150 
    137 H137        1.4827  -19.2669  -51.4045 H         1 UNK         0.1150 
    138 H138        4.0741  -16.8217  -49.0258 H         1 UNK         0.1150 
    139 H139        2.3696  -19.7654  -48.7626 H         1 UNK         0.0800 
    140 H140        2.5383  -18.2301  -47.9263 H         1 UNK         0.0800 
    141 H141       -0.9749  -18.4128  -46.8177 H         1 UNK         0.0800 
    142 H142        0.6668  -18.8723  -46.4249 H         1 UNK         0.0800 
    143 H143       -1.1883  -20.7037  -48.0117 H         1 UNK         0.0600 
    144 H144        1.4854  -21.0149  -47.0731 H         1 UNK         0.3000 
    145 H145        1.6459  -24.5158  -47.0139 H         1 UNK         0.0600 
    146 H146        3.4168  -24.2299  -48.7317 H         1 UNK         0.0600 
    147 H147        1.8316  -24.0913  -49.4743 H         1 UNK         0.0600 
    148 H148        2.7802  -22.6423  -49.1645 H         1 UNK         0.0600 
    149 H149        3.7089  -22.6022  -46.8345 H         1 UNK         0.3000 
    150 H150        4.5915  -22.3703  -44.4234 H         1 UNK         0.0600 
    151 H151        4.1472  -20.4813  -45.9981 H         1 UNK         0.0600 
    152 H152        4.4914  -19.8441  -44.4026 H         1 UNK         0.0600 
    153 H153        2.8298  -19.9042  -44.9821 H         1 UNK         0.0600 
    154 H154        2.6375  -20.9106  -42.7640 H         1 UNK         0.3000 
    155 H155        1.8873  -23.0308  -40.6160 H         1 UNK         0.0600 
    156 H156        4.5273  -22.0241  -39.4412 H         1 UNK         0.0600 
    157 H157        3.9158  -23.6689  -39.4173 H         1 UNK         0.0600 
    158 H158        3.0922  -22.4222  -38.4960 H         1 UNK         0.0600 
    159 H159        1.0862  -20.9829  -40.5917 H         1 UNK         0.3000 
    160 H160        1.9724  -17.9802  -39.5894 H         1 UNK         0.0600 
    161 H161        2.1220  -18.1804  -42.6425 H         1 UNK         0.0600 
    162 H162        3.2210  -17.2939  -41.5958 H         1 UNK         0.0600 
    163 H163        1.5544  -16.7653  -41.7548 H         1 UNK         0.0600 
    164 H164       -0.0323  -18.7895  -41.5466 H         1 UNK         0.3000 
    165 H165       -2.0448  -20.4846  -39.7976 H         1 UNK         0.0600 
    166 H166       -2.7693  -17.6760  -38.8238 H         1 UNK         0.0600 
    167 H167       -3.9206  -18.9871  -39.0769 H         1 UNK         0.0600 
    168 H168       -2.6729  -19.1358  -37.8524 H         1 UNK         0.0600 
    169 H169       -2.6494  -19.8760  -41.8132 H         1 UNK         0.3000 
    170 H170       -2.6780  -18.8080  -43.7652 H         1 UNK         0.0600 
    171 H171       -4.6034  -16.5365  -43.0372 H         1 UNK         0.0600 
    172 H172       -4.7095  -17.5893  -44.4481 H         1 UNK         0.0600 
    173 H173       -4.9525  -18.2506  -42.8425 H         1 UNK         0.0600 
    174 H174       -2.5771  -15.9613  -44.2828 H         1 UNK         0.3000 
    175 H175       -0.2043  -14.8758  -44.1504 H         1 UNK         0.0600 
    176 H176        1.5526  -16.6265  -45.9360 H         1 UNK         0.0600 
    177 H177        1.8571  -14.9448  -45.5059 H         1 UNK         0.0600 
    178 H178        1.9004  -16.1856  -44.2688 H         1 UNK         0.0600 
    179 H179       -0.1997  -15.2423  -46.9849 H         1 UNK         0.3000 
    180 H180       -3.2913  -14.3973  -47.8542 H         1 UNK         0.0600 
    181 H181       -2.9416  -11.9731  -48.3952 H         1 UNK         0.0600 
    182 H182       -1.7702  -11.8595  -47.0819 H         1 UNK         0.0600 
    183 H183       -3.4555  -12.2196  -46.7349 H         1 UNK         0.0600 
    184 H184       -0.6808  -13.3710  -48.7393 H         1 UNK         0.3000 
    185 H185        0.2411  -16.2183  -50.5062 H         1 UNK         0.0600 
    186 H186        0.0486  -14.9565  -52.6436 H         1 UNK         0.0600 
    187 H187       -1.5032  -15.6206  -52.1627 H         1 UNK         0.0600 
    188 H188       -1.1759  -13.9066  -51.9305 H         1 UNK         0.0600 
    189 H189        1.0614  -13.5317  -50.8711 H         1 UNK         0.3000 
    190 H190        0.0539  -21.7290  -44.8691 H         1 UNK         0.3000 
    191 H191       -2.4346  -21.1323  -43.4507 H         1 UNK         0.0600 
    192 H192       -1.3503  -22.2374  -41.5645 H         1 UNK         0.0600 
    193 H193       -0.1916  -21.1397  -42.3081 H         1 UNK         0.0600 
    194 H194       -0.0742  -22.8765  -42.5842 H         1 UNK         0.0600 
    195 H195       -0.9215  -23.8894  -45.1108 H         1 UNK         0.3000 
    196 H196       -2.9645  -25.8203  -44.4274 H         1 UNK         0.0600 
    197 H197       -0.9027  -25.8144  -46.6982 H         1 UNK         0.0600 
    198 H198       -0.6694  -26.5073  -45.0945 H         1 UNK         0.0600 
    199 H199       -1.8666  -27.1911  -46.1836 H         1 UNK         0.0600 
    200 H200       -2.3632  -23.6428  -47.2004 H         1 UNK         0.3000 
    201 H201       -4.6914  -24.3323  -48.7179 H         1 UNK         0.0600 
    202 H202       -4.1088  -22.2034  -49.9376 H         1 UNK         0.0600 
    203 H203       -2.9756  -21.7934  -48.6759 H         1 UNK         0.0600 
    204 H204       -2.6826  -23.2056  -49.6878 H         1 UNK         0.0600 
    205 H205       -4.2756  -22.3161  -45.9178 H         1 UNK         0.3000 
    206 H206       -5.4424  -20.8292  -44.7752 H         1 UNK         0.0600 
    207 H207       -7.2111  -22.6014  -44.6683 H         1 UNK         0.0600 
    208 H208       -7.8999  -20.9858  -44.6419 H         1 UNK         0.0600 
    209 H209       -7.9666  -21.9392  -46.1174 H         1 UNK         0.0600 
    210 H210       -4.1623  -19.9798  -46.9798 H         1 UNK         0.3000 
    211 H211       -3.8071  -18.4273  -48.5010 H         1 UNK         0.0600 
    212 H212       -4.7769  -16.1547  -48.0986 H         1 UNK         0.0600 
    213 H213       -4.1661  -16.8932  -46.6341 H         1 UNK         0.0600 
    214 H214       -5.9049  -16.8375  -46.9392 H         1 UNK         0.0600 
    215 H215       -6.1143  -20.3992  -49.1188 H         1 UNK         0.3000 
    216 H216       -7.7652  -19.0153  -51.0523 H         1 UNK         0.0600 
    217 H217       -7.1721  -22.0078  -50.7451 H         1 UNK         0.0600 
    218 H218       -8.4820  -21.2920  -51.6725 H         1 UNK         0.0600 
    219 H219       -8.4679  -21.1422  -49.9210 H         1 UNK         0.0600 
    220 H220       -7.1101  -18.3441  -53.0203 H         1 UNK         0.3000 
    221 H221       -4.4985  -18.5203  -53.9320 H         1 UNK         0.0600 
    222 H222       -6.0486  -16.6878  -54.5142 H         1 UNK         0.0600 
    223 H223       -7.0483  -17.7864  -55.4689 H         1 UNK         0.0600 
    224 H224       -5.4105  -17.4000  -55.9848 H         1 UNK         0.0600 
    225 H225       -7.0510  -20.8054  -54.5499 H         1 UNK         0.3000 
    226 H226       -5.9344  -22.0495  -56.9010 H         1 UNK         0.0600 
    227 H227       -7.9294  -23.0846  -54.8136 H         1 UNK         0.0600 
    228 H228       -8.3390  -22.2378  -56.3063 H         1 UNK         0.0600 
    229 H229       -7.6028  -23.8307  -56.3732 H         1 UNK         0.0600 
    230 H230       -5.2522  -22.3050  -53.4619 H         1 UNK         0.3000 
    231 H231       -3.5811  -24.7590  -53.8671 H         1 UNK         0.0600 
    232 H232       -5.0193  -23.6482  -51.4161 H         1 UNK         0.0600 
    233 H233       -3.8047  -24.9258  -51.3347 H         1 UNK         0.0600 
    234 H234       -5.2947  -25.1790  -52.2294 H         1 UNK         0.0600 
    235 H235       -3.6321  -21.4192  -52.5960 H         1 UNK         0.3000 
    236 H236       -0.7128  -21.3865  -52.1424 H         1 UNK         0.0600 
    237 H237       -2.1531  -20.2153  -50.5232 H         1 UNK         0.0600 
    238 H238       -1.1981  -19.0388  -51.4026 H         1 UNK         0.0600 
    239 H239       -2.9022  -19.2600  -51.7938 H         1 UNK         0.0600 
    240 H240       -1.9342  -18.4668  -53.4602 H         1 UNK         0.3000 
    241 H241       -1.7009  -19.0212  -56.2240 H         1 UNK         0.0600 
    242 H242       -2.9443  -15.6876  -56.7868 H         1 UNK         0.3800 
    243 H243       -1.9761  -16.9049  -57.5652 H         1 UNK         0.3800 
    244 H244        0.2753  -17.5386  -56.7276 H         1 UNK         0.0800 
    245 H245        0.7032  -19.0210  -55.9451 H         1 UNK         0.0800 
    246 H246        3.0473  -18.4811  -54.5633 H         1 UNK         0.0800 
    247 H247        1.7295  -19.3229  -53.7790 H         1 UNK         0.0800 
@<TRIPOS>BOND
     1    1    2 1    
     2    1  127 1    
     3    1  128 1    
     4    1  129 1    
     5    2    3 2    
     6    2    4 am   BACKBONE|DICT|INTERRES
     7    4    5 1    
     8    4  130 1    
     9    5    6 1    
    10    5   65 1    
    11    5  131 1    
    12    6    7 1    
    13    6  132 1    
    14    6  133 1    
    15    7    8 1    
    16    8    9 1    
    17    8  134 1    
    18    8  135 1    
    19    9   10 ar   
    20    9   14 ar   
    21   10   11 ar   
    22   10  136 1    
    23   11   12 ar   
    24   11  126 1    
    25   12   13 ar   
    26   12  137 1    
    27   13   14 ar   
    28   13   15 1    
    29   14  138 1    
    30   15   16 1    
    31   15  139 1    
    32   15  140 1    
    33   16   17 1    
    34   17   18 1    
    35   17  141 1    
    36   17  142 1    
    37   18   19 1    
    38   18   67 1    
    39   18  143 1    
    40   19   20 am   BACKBONE|DICT|INTERRES
    41   19  144 1    
    42   20   21 2    
    43   20   22 1    
    44   22   23 1    
    45   22   24 1    
    46   22  145 1    
    47   23  146 1    
    48   23  147 1    
    49   23  148 1    
    50   24   25 am   BACKBONE|DICT|INTERRES
    51   24  149 1    
    52   25   26 2    
    53   25   27 1    
    54   27   28 1    
    55   27   29 1    
    56   27  150 1    
    57   28  151 1    
    58   28  152 1    
    59   28  153 1    
    60   29   30 am   BACKBONE|DICT|INTERRES
    61   29  154 1    
    62   30   31 2    
    63   30   32 1    
    64   32   33 1    
    65   32   34 1    
    66   32  155 1    
    67   33  156 1    
    68   33  157 1    
    69   33  158 1    
    70   34   35 am   BACKBONE|DICT|INTERRES
    71   34  159 1    
    72   35   36 2    
    73   35   37 1    
    74   37   38 1    
    75   37   39 1    
    76   37  160 1    
    77   38  161 1    
    78   38  162 1    
    79   38  163 1    
    80   39   40 am   BACKBONE|DICT|INTERRES
    81   39  164 1    
    82   40   41 2    
    83   40   42 1    
    84   42   43 1    
    85   42   44 1    
    86   42  165 1    
    87   43  166 1    
    88   43  167 1    
    89   43  168 1    
    90   44   45 am   BACKBONE|DICT|INTERRES
    91   44  169 1    
    92   45   46 2    
    93   45   47 1    
    94   47   48 1    
    95   47   49 1    
    96   47  170 1    
    97   48  171 1    
    98   48  172 1    
    99   48  173 1    
   100   49   50 am   BACKBONE|DICT|INTERRES
   101   49  174 1    
   102   50   51 2    
   103   50   52 1    
   104   52   53 1    
   105   52   54 1    
   106   52  175 1    
   107   53  176 1    
   108   53  177 1    
   109   53  178 1    
   110   54   55 am   BACKBONE|DICT|INTERRES
   111   54  179 1    
   112   55   56 2    
   113   55   57 1    
   114   57   58 1    
   115   57   59 1    
   116   57  180 1    
   117   58  181 1    
   118   58  182 1    
   119   58  183 1    
   120   59   60 am   BACKBONE|DICT|INTERRES
   121   59  184 1    
   122   60   61 2    
   123   60   62 1    
   124   62   63 1    
   125   62   64 1    
   126   62  185 1    
   127   63  186 1    
   128   63  187 1    
   129   63  188 1    
   130   64   65 am   BACKBONE|DICT|INTERRES
   131   64  189 1    
   132   65   66 2    
   133   67   68 2    
   134   67   69 am   BACKBONE|DICT|INTERRES
   135   69   70 1    
   136   69  190 1    
   137   70   71 1    
   138   70   72 1    
   139   70  191 1    
   140   71  192 1    
   141   71  193 1    
   142   71  194 1    
   143   72   73 2    
   144   72   74 am   BACKBONE|DICT|INTERRES
   145   74   75 1    
   146   74  195 1    
   147   75   76 1    
   148   75   77 1    
   149   75  196 1    
   150   76  197 1    
   151   76  198 1    
   152   76  199 1    
   153   77   78 2    
   154   77   79 am   BACKBONE|DICT|INTERRES
   155   79   80 1    
   156   79  200 1    
   157   80   81 1    
   158   80   82 1    
   159   80  201 1    
   160   81  202 1    
   161   81  203 1    
   162   81  204 1    
   163   82   83 2    
   164   82   84 am   BACKBONE|DICT|INTERRES
   165   84   85 1    
   166   84  205 1    
   167   85   86 1    
   168   85   87 1    
   169   85  206 1    
   170   86  207 1    
   171   86  208 1    
   172   86  209 1    
   173   87   88 2    
   174   87   89 am   BACKBONE|DICT|INTERRES
   175   89   90 1    
   176   89  210 1    
   177   90   91 1    
   178   90   92 1    
   179   90  211 1    
   180   91  212 1    
   181   91  213 1    
   182   91  214 1    
   183   92   93 2    
   184   92   94 am   BACKBONE|DICT|INTERRES
   185   94   95 1    
   186   94  215 1    
   187   95   96 1    
   188   95   97 1    
   189   95  216 1    
   190   96  217 1    
   191   96  218 1    
   192   96  219 1    
   193   97   98 2    
   194   97   99 am   BACKBONE|DICT|INTERRES
   195   99  100 1    
   196   99  220 1    
   197  100  101 1    
   198  100  102 1    
   199  100  221 1    
   200  101  222 1    
   201  101  223 1    
   202  101  224 1    
   203  102  103 2    
   204  102  104 am   BACKBONE|DICT|INTERRES
   205  104  105 1    
   206  104  225 1    
   207  105  106 1    
   208  105  107 1    
   209  105  226 1    
   210  106  227 1    
   211  106  228 1    
   212  106  229 1    
   213  107  108 2    
   214  107  109 am   BACKBONE|DICT|INTERRES
   215  109  110 1    
   216  109  230 1    
   217  110  111 1    
   218  110  112 1    
   219  110  231 1    
   220  111  232 1    
   221  111  233 1    
   222  111  234 1    
   223  112  113 2    
   224  112  114 am   BACKBONE|DICT|INTERRES
   225  114  115 1    
   226  114  235 1    
   227  115  116 1    
   228  115  117 1    
   229  115  236 1    
   230  116  237 1    
   231  116  238 1    
   232  116  239 1    
   233  117  118 2    
   234  117  119 am   BACKBONE|DICT|INTERRES
   235  119  120 1    
   236  119  240 1    
   237  120  121 1    
   238  120  124 1    
   239  120  241 1    
   240  121  122 am   BACKBONE|DICT|INTERRES
   241  121  123 2    
   242  122  242 1    
   243  122  243 1    
   244  124  125 1    
   245  124  244 1    
   246  124  245 1    
   247  125  126 1    
   248  126  246 1    
   249  126  247 1    
@<TRIPOS>SUBSTRUCTURE
     1 UNK         1 GROUP             0       ****    0 ROOT    
