@<TRIPOS>MOLECULE
3R540
247   249    1
SMALL
USER_CHARGES


@<TRIPOS>ATOM
      1 CA         -3.8648  -16.0050  -43.4755 C.3       0 UNK        -0.1800 
      2 C          -3.9868  -14.9714  -44.5842 C.2       0 UNK         0.5000 
      3 O          -4.7020  -13.9829  -44.4231 O.2       0 UNK        -0.5000 
      4 N          -3.2814  -15.1876  -45.7028 N.am      1 UNK        -0.5000 
      5 CA         -3.2464  -14.2847  -46.8657 C.3       1 UNK         0.1400 
      6 C6         -2.6517  -14.9772  -48.1173 C.3       23 UNK        -0.0398 
      7 S7         -3.6278  -16.4322  -48.6337 S.3       23 UNK        -0.2404 
      8 C8         -3.4390  -16.3705  -50.4532 C.3       23 UNK        -0.0205 
      9 C9         -2.1352  -16.9432  -51.0188 C.ar      23 UNK        -0.0193 
     10 C10        -2.0206  -17.0825  -52.4061 C.ar      23 UNK        -0.1150 
     11 C11        -0.8802  -17.6520  -52.9816 C.ar      23 UNK        -0.0193 
     12 C12         0.1613  -18.0822  -52.1547 C.ar      23 UNK        -0.1150 
     13 C13         0.0708  -17.9467  -50.7680 C.ar      23 UNK        -0.0193 
     14 C14        -1.0669  -17.3556  -50.2118 C.ar      23 UNK        -0.1150 
     15 C15         1.1913  -18.4505  -49.8648 C.3       23 UNK        -0.0205 
     16 S16         0.9351  -20.1803  -49.3392 S.3       23 UNK        -0.2404 
     17 C17        -0.6601  -20.0396  -48.4762 C.3       23 UNK        -0.0398 
     18 CA         -1.0376  -21.2826  -47.6437 C.3       11 UNK         0.1400 
     19 N          -0.2758  -21.4011  -46.3998 N.am      11 UNK        -0.5000 
     20 C          -0.3586  -22.4410  -45.5562 C.2       10 UNK         0.5000 
     21 O          -0.9932  -23.4689  -45.7948 O.2       10 UNK        -0.5000 
     22 CA          0.3346  -22.2852  -44.1906 C.3       10 UNK         0.1400 
     23 CB          1.8321  -22.6106  -44.2933 C.3       10 UNK        -0.1800 
     24 N           0.1518  -20.9516  -43.6126 N.am      10 UNK        -0.5000 
     25 C          -1.0340  -20.4259  -43.2694 C.2       9 UNK         0.5000 
     26 O          -2.1034  -21.0280  -43.3647 O.2       9 UNK        -0.5000 
     27 CA         -1.0342  -18.9644  -42.7875 C.3       9 UNK         0.1400 
     28 CB         -0.5841  -18.8589  -41.3232 C.3       9 UNK        -0.1800 
     29 N          -0.1957  -18.1079  -43.6248 N.am      9 UNK        -0.5000 
     30 C          -0.4398  -17.8242  -44.9116 C.2       8 UNK         0.5000 
     31 O          -1.4603  -18.1629  -45.5098 O.2       8 UNK        -0.5000 
     32 CA          0.6541  -17.0584  -45.6722 C.3       8 UNK         0.1400 
     33 CB          0.4870  -15.5479  -45.4865 C.3       8 UNK        -0.1800 
     34 N           1.9979  -17.4585  -45.2608 N.am      8 UNK        -0.5000 
     35 C           2.5393  -18.6537  -45.5321 C.2       7 UNK         0.5000 
     36 O           1.9608  -19.5351  -46.1646 O.2       7 UNK        -0.5000 
     37 CA          3.9414  -18.9217  -44.9579 C.3       7 UNK         0.1400 
     38 CB          5.0229  -18.3127  -45.8623 C.3       7 UNK        -0.1800 
     39 N           4.0920  -18.4027  -43.5976 N.am      7 UNK        -0.5000 
     40 C           3.4273  -18.8761  -42.5341 C.2       6 UNK         0.5000 
     41 O           2.6499  -19.8286  -42.5836 O.2       6 UNK        -0.5000 
     42 CA          3.6273  -18.1281  -41.2036 C.3       6 UNK         0.1400 
     43 CB          4.8602  -18.6650  -40.4617 C.3       6 UNK        -0.1800 
     44 N           3.7479  -16.6754  -41.3621 N.am      6 UNK        -0.5000 
     45 C           2.7884  -15.8813  -41.8548 C.2       5 UNK         0.5000 
     46 O           1.7063  -16.2957  -42.2750 O.2       5 UNK        -0.5000 
     47 CA          3.0886  -14.3757  -41.8901 C.3       5 UNK         0.1400 
     48 CB          2.9823  -13.8104  -43.3140 C.3       5 UNK        -0.1800 
     49 N           2.1472  -13.6717  -41.0269 N.am      5 UNK        -0.5000 
     50 C           2.3261  -13.4717  -39.7157 C.2       4 UNK         0.5000 
     51 O           3.3315  -13.8508  -39.1118 O.2       4 UNK        -0.5000 
     52 CA          1.2032  -12.7539  -38.9322 C.3       4 UNK         0.1400 
     53 CB          1.7664  -11.7094  -37.9456 C.3       4 UNK        -0.1800 
     54 N           0.1353  -12.1632  -39.7523 N.am      4 UNK        -0.5000 
     55 C           0.2331  -11.1628  -40.6394 C.2       3 UNK         0.5000 
     56 O           1.2877  -10.6086  -40.9555 O.2       3 UNK        -0.5000 
     57 CA         -1.0892  -10.6971  -41.2752 C.3       3 UNK         0.1400 
     58 CB         -1.4329   -9.2657  -40.8336 C.3       3 UNK        -0.1800 
     59 N          -1.0538  -10.7544  -42.7358 N.am      3 UNK        -0.5000 
     60 C          -0.9675  -11.8812  -43.4516 C.2       2 UNK         0.5000 
     61 O          -0.8558  -13.0069  -42.9563 O.2       2 UNK        -0.5000 
     62 CA         -1.0385  -11.7297  -44.9767 C.3       2 UNK         0.1400 
     63 CB          0.3620  -11.6156  -45.6001 C.3       2 UNK        -0.1800 
     64 N          -1.7237  -12.9031  -45.4997 N.am      2 UNK        -0.5000 
     65 C          -2.5115  -12.9512  -46.5797 C.2       1 UNK         0.5000 
     66 O          -2.6811  -11.9947  -47.3371 O.2       1 UNK        -0.5000 
     67 C          -2.5522  -21.2728  -47.3709 C.2       11 UNK         0.5000 
     68 O          -3.2626  -22.0909  -47.9506 O.2       11 UNK        -0.5000 
     69 N          -3.0243  -20.3685  -46.5004 N.am      12 UNK        -0.5000 
     70 CA         -4.4430  -20.1929  -46.1748 C.3       12 UNK         0.1400 
     71 CB         -4.6126  -19.0061  -45.2179 C.3       12 UNK        -0.1800 
     72 C          -5.1077  -21.4593  -45.6051 C.2       12 UNK         0.5000 
     73 O          -6.2346  -21.7738  -45.9887 O.2       12 UNK        -0.5000 
     74 N          -4.3743  -22.2022  -44.7648 N.am      13 UNK        -0.5000 
     75 CA         -4.7753  -23.5037  -44.2230 C.3       13 UNK         0.1400 
     76 CB         -3.7409  -23.9492  -43.1783 C.3       13 UNK        -0.1800 
     77 C          -4.9610  -24.5982  -45.2961 C.2       13 UNK         0.5000 
     78 O          -5.7405  -25.5271  -45.0820 O.2       13 UNK        -0.5000 
     79 N          -4.2624  -24.4609  -46.4298 N.am      14 UNK        -0.5000 
     80 CA         -4.3443  -25.3403  -47.5955 C.3       14 UNK         0.1400 
     81 CB         -2.9169  -25.5743  -48.1200 C.3       14 UNK        -0.1800 
     82 C          -5.2410  -24.7601  -48.7089 C.2       14 UNK         0.5000 
     83 O          -5.2971  -25.3447  -49.7902 O.2       14 UNK        -0.5000 
     84 N          -5.8916  -23.6114  -48.4607 N.am      15 UNK        -0.5000 
     85 CA         -6.6798  -22.8191  -49.4151 C.3       15 UNK         0.1400 
     86 CB         -7.9707  -23.5650  -49.8117 C.3       15 UNK        -0.1800 
     87 C          -5.8505  -22.3494  -50.6337 C.2       15 UNK         0.5000 
     88 O          -6.3501  -22.3330  -51.7589 O.2       15 UNK        -0.5000 
     89 N          -4.5808  -22.0079  -50.3719 N.am      16 UNK        -0.5000 
     90 CA         -3.5176  -21.5725  -51.2846 C.3       16 UNK         0.1400 
     91 CB         -3.9338  -20.3293  -52.0912 C.3       16 UNK        -0.1800 
     92 C          -2.9332  -22.6832  -52.1809 C.2       16 UNK         0.5000 
     93 O          -1.9059  -22.4480  -52.8184 O.2       16 UNK        -0.5000 
     94 N          -3.5287  -23.8868  -52.1678 N.am      17 UNK        -0.5000 
     95 CA         -3.1518  -25.0385  -52.9974 C.3       17 UNK         0.1400 
     96 CB         -4.1793  -26.1627  -52.8004 C.3       17 UNK        -0.1800 
     97 C          -1.7257  -25.5675  -52.7485 C.2       17 UNK         0.5000 
     98 O          -1.1693  -26.2429  -53.6150 O.2       17 UNK        -0.5000 
     99 N          -1.1542  -25.2386  -51.5818 N.am      18 UNK        -0.5000 
    100 CA         0.2379  -25.5034  -51.2225 C.3       18 UNK         0.1400 
    101 CB         0.4346  -25.1941  -49.7296 C.3       18 UNK        -0.1800 
    102 C          1.2519  -24.7100  -52.0726 C.2       18 UNK         0.5000 
    103 O          2.3877  -25.1637  -52.2197 O.2       18 UNK        -0.5000 
    104 N          0.8381  -23.5523  -52.6072 N.am      19 UNK        -0.5000 
    105 CA         1.6594  -22.7007  -53.4610 C.3       19 UNK         0.1400 
    106 CB         1.3917  -21.2248  -53.1293 C.3       19 UNK        -0.1800 
    107 C          1.3934  -22.9979  -54.9430 C.2       19 UNK         0.5000 
    108 O          2.3097  -23.4215  -55.6491 O.2       19 UNK        -0.5000 
    109 N          0.1533  -22.7677  -55.3891 N.am      20 UNK        -0.5000 
    110 CA        -0.2876  -22.8736  -56.7794 C.3       20 UNK         0.1400 
    111 CB         0.3556  -21.7559  -57.6343 C.3       20 UNK        -0.1800 
    112 C         -1.8247  -22.8167  -56.8199 C.2       20 UNK         0.5000 
    113 O         -2.4703  -22.9782  -55.7842 O.2       20 UNK        -0.5000 
    114 N         -2.3980  -22.5769  -58.0075 N.am      21 UNK        -0.5000 
    115 CA        -3.8299  -22.3158  -58.1820 C.3       21 UNK         0.1400 
    116 CB        -4.1766  -22.3368  -59.6788 C.3       21 UNK        -0.1800 
    117 C         -4.2591  -20.9819  -57.5378 C.2       21 UNK         0.5000 
    118 O         -5.3243  -20.9199  -56.9234 O.2       21 UNK        -0.5000 
    119 N         -3.4013  -19.9585  -57.6733 N.am      22 UNK        -0.5000 
    120 CA        -3.5010  -18.6346  -57.0284 C.3       22 UNK         0.1400 
    121 C         -4.7590  -17.7938  -57.4148 C.2       22 UNK         0.5000 
    122 N         -5.4215  -18.0745  -58.5303 N.am      22 UNK        -0.7600 
    123 O         -5.1228  -16.8487  -56.7199 O.2       22 UNK        -0.5000 
    124 C124       -3.2611  -18.7096  -55.4930 C.3       23 UNK        -0.0398 
    125 S125       -1.5809  -19.3134  -55.0958 S.3       23 UNK        -0.2404 
    126 C126       -0.7629  -17.8013  -54.4926 C.3       23 UNK        -0.0205 
    127 H127       -3.5366  -15.5288  -42.5515 H         1 UNK         0.0600 
    128 H128       -3.1427  -16.7778  -43.7312 H         1 UNK         0.0600 
    129 H129       -4.8281  -16.4818  -43.2951 H         1 UNK         0.0600 
    130 H130       -2.7551  -16.0459  -45.7981 H         1 UNK         0.3000 
    131 H131       -4.2792  -14.0164  -47.0990 H         1 UNK         0.0600 
    132 H132       -1.6231  -15.2901  -47.9398 H         1 UNK         0.0800 
    133 H133       -2.6123  -14.2732  -48.9504 H         1 UNK         0.0800 
    134 H134       -3.5641  -15.3445  -50.8014 H         1 UNK         0.0800 
    135 H135       -4.2679  -16.9362  -50.8810 H         1 UNK         0.0800 
    136 H136       -2.8324  -16.7560  -53.0395 H         1 UNK         0.1150 
    137 H137        1.0434  -18.5274  -52.5905 H         1 UNK         0.1150 
    138 H138       -1.1200  -17.2567  -49.1396 H         1 UNK         0.1150 
    139 H139        2.1470  -18.3814  -50.3862 H         1 UNK         0.0800 
    140 H140        1.2821  -17.8142  -48.9839 H         1 UNK         0.0800 
    141 H141       -1.4109  -19.8589  -49.2468 H         1 UNK         0.0800 
    142 H142       -0.6461  -19.1522  -47.8441 H         1 UNK         0.0800 
    143 H143       -0.8278  -22.1711  -48.2430 H         1 UNK         0.0600 
    144 H144        0.3435  -20.6295  -46.1693 H         1 UNK         0.3000 
    145 H145       -0.1208  -23.0045  -43.5068 H         1 UNK         0.0600 
    146 H146        2.3114  -22.5728  -43.3150 H         1 UNK         0.0600 
    147 H147        1.9865  -23.6135  -44.6931 H         1 UNK         0.0600 
    148 H148        2.3536  -21.9128  -44.9481 H         1 UNK         0.0600 
    149 H149        0.9943  -20.4076  -43.4522 H         1 UNK         0.3000 
    150 H150       -2.0601  -18.5997  -42.8475 H         1 UNK         0.0600 
    151 H151       -1.2307  -19.4506  -40.6741 H         1 UNK         0.0600 
    152 H152       -0.6250  -17.8273  -40.9728 H         1 UNK         0.0600 
    153 H153        0.4354  -19.2177  -41.1851 H         1 UNK         0.0600 
    154 H154        0.6338  -17.7142  -43.1920 H         1 UNK         0.3000 
    155 H155        0.5464  -17.2818  -46.7350 H         1 UNK         0.0600 
    156 H156        0.4024  -15.2763  -44.4344 H         1 UNK         0.0600 
    157 H157       -0.4179  -15.2083  -45.9814 H         1 UNK         0.0600 
    158 H158        1.3194  -14.9941  -45.9208 H         1 UNK         0.0600 
    159 H159        2.5106  -16.8101  -44.6828 H         1 UNK         0.3000 
    160 H160        4.0894  -20.0033  -44.9289 H         1 UNK         0.0600 
    161 H161        4.9390  -18.6947  -46.8807 H         1 UNK         0.0600 
    162 H162        6.0220  -18.5618  -45.5043 H         1 UNK         0.0600 
    163 H163        4.9448  -17.2259  -45.9119 H         1 UNK         0.0600 
    164 H164        4.7141  -17.6185  -43.4694 H         1 UNK         0.3000 
    165 H165        2.7485  -18.3210  -40.5848 H         1 UNK         0.0600 
    166 H166        4.9575  -18.2085  -39.4765 H         1 UNK         0.0600 
    167 H167        4.7871  -19.7432  -40.3127 H         1 UNK         0.0600 
    168 H168        5.7803  -18.4715  -41.0146 H         1 UNK         0.0600 
    169 H169        4.6018  -16.2562  -41.0224 H         1 UNK         0.3000 
    170 H170        4.1104  -14.2061  -41.5434 H         1 UNK         0.0600 
    171 H171        3.5854  -14.3856  -44.0175 H         1 UNK         0.0600 
    172 H172        1.9540  -13.8172  -43.6697 H         1 UNK         0.0600 
    173 H173        3.3329  -12.7788  -43.3502 H         1 UNK         0.0600 
    174 H174        1.2745  -13.3836  -41.4482 H         1 UNK         0.3000 
    175 H175        0.7211  -13.5321  -38.3389 H         1 UNK         0.0600 
    176 H176        2.3240  -10.9260  -38.4596 H         1 UNK         0.0600 
    177 H177        0.9682  -11.2343  -37.3752 H         1 UNK         0.0600 
    178 H178        2.4435  -12.1718  -37.2264 H         1 UNK         0.0600 
    179 H179       -0.7798  -12.5659  -39.6025 H         1 UNK         0.3000 
    180 H180       -1.8945  -11.3533  -40.9377 H         1 UNK         0.0600 
    181 H181       -2.4023   -8.9538  -41.2228 H         1 UNK         0.0600 
    182 H182       -0.6863   -8.5478  -41.1757 H         1 UNK         0.0600 
    183 H183       -1.4820   -9.1944  -39.7462 H         1 UNK         0.0600 
    184 H184       -1.1056   -9.8687  -43.2177 H         1 UNK         0.3000 
    185 H185       -1.6167  -10.8335  -45.2121 H         1 UNK         0.0600 
    186 H186        0.3017  -11.4795  -46.6799 H         1 UNK         0.0600 
    187 H187        0.9033  -10.7607  -45.1932 H         1 UNK         0.0600 
    188 H188        0.9612  -12.5056  -45.4100 H         1 UNK         0.0600 
    189 H189       -1.6846  -13.7054  -44.8842 H         1 UNK         0.3000 
    190 H190       -2.3825  -19.7077  -46.0695 H         1 UNK         0.3000 
    191 H191       -4.9587  -19.9478  -47.1057 H         1 UNK         0.0600 
    192 H192       -5.6612  -18.8564  -44.9579 H         1 UNK         0.0600 
    193 H193       -4.2585  -18.0839  -45.6779 H         1 UNK         0.0600 
    194 H194       -4.0600  -19.1562  -44.2903 H         1 UNK         0.0600 
    195 H195       -3.4703  -21.8457  -44.4646 H         1 UNK         0.3000 
    196 H196       -5.7355  -23.3726  -43.7202 H         1 UNK         0.0600 
    197 H197       -2.7494  -24.0602  -43.6193 H         1 UNK         0.0600 
    198 H198       -3.6657  -23.2270  -42.3651 H         1 UNK         0.0600 
    199 H199       -4.0153  -24.9083  -42.7373 H         1 UNK         0.0600 
    200 H200       -3.6583  -23.6538  -46.5340 H         1 UNK         0.3000 
    201 H201       -4.7648  -26.3065  -47.3106 H         1 UNK         0.0600 
    202 H202       -2.4567  -24.6461  -48.4602 H         1 UNK         0.0600 
    203 H203       -2.9113  -26.2719  -48.9585 H         1 UNK         0.0600 
    204 H204       -2.2773  -25.9959  -47.3443 H         1 UNK         0.0600 
    205 H205       -5.7833  -23.1965  -47.5429 H         1 UNK         0.3000 
    206 H206       -6.9742  -21.9127  -48.8842 H         1 UNK         0.0600 
    207 H207       -8.5348  -23.8709  -48.9306 H         1 UNK         0.0600 
    208 H208       -8.6233  -22.9262  -50.4079 H         1 UNK         0.0600 
    209 H209       -7.7601  -24.4572  -50.4019 H         1 UNK         0.0600 
    210 H210       -4.2685  -22.1056  -49.4062 H         1 UNK         0.3000 
    211 H211       -2.6957  -21.2680  -50.6373 H         1 UNK         0.0600 
    212 H212       -3.0744  -19.9093  -52.6127 H         1 UNK         0.0600 
    213 H213       -4.3282  -19.5480  -51.4417 H         1 UNK         0.0600 
    214 H214       -4.6888  -20.5631  -52.8419 H         1 UNK         0.0600 
    215 H215       -4.3459  -24.0083  -51.5843 H         1 UNK         0.3000 
    216 H216       -3.2026  -24.7192  -54.0384 H         1 UNK         0.0600 
    217 H217       -4.1278  -26.5816  -51.7951 H         1 UNK         0.0600 
    218 H218       -4.0012  -26.9790  -53.5015 H         1 UNK         0.0600 
    219 H219       -5.1963  -25.8070  -52.9666 H         1 UNK         0.0600 
    220 H220       -1.6959  -24.6875  -50.9339 H         1 UNK         0.3000 
    221 H221        0.4337  -26.5657  -51.3824 H         1 UNK         0.0600 
    222 H222       -0.1923  -25.8329  -49.1082 H         1 UNK         0.0600 
    223 H223        0.1957  -24.1555  -49.4973 H         1 UNK         0.0600 
    224 H224        1.4681  -25.3676  -49.4269 H         1 UNK         0.0600 
    225 H225       -0.1305  -23.2692  -52.4948 H         1 UNK         0.3000 
    226 H226        2.7187  -22.8863  -53.2705 H         1 UNK         0.0600 
    227 H227        1.7163  -20.9905  -52.1163 H         1 UNK         0.0600 
    228 H228        1.9378  -20.5662  -53.8057 H         1 UNK         0.0600 
    229 H229        0.3341  -20.9707  -53.2061 H         1 UNK         0.0600 
    230 H230       -0.5775  -22.4910  -54.7394 H         1 UNK         0.3000 
    231 H231        0.0149  -23.8478  -57.1675 H         1 UNK         0.0600 
    232 H232        0.0331  -20.7672  -57.3061 H         1 UNK         0.0600 
    233 H233        0.0979  -21.8561  -58.6887 H         1 UNK         0.0600 
    234 H234        1.4436  -21.7806  -57.5819 H         1 UNK         0.0600 
    235 H235       -1.8139  -22.4786  -58.8249 H         1 UNK         0.3000 
    236 H236       -4.3865  -23.1181  -57.6925 H         1 UNK         0.0600 
    237 H237       -3.9416  -23.3039  -60.1237 H         1 UNK         0.0600 
    238 H238       -5.2415  -22.1592  -59.8343 H         1 UNK         0.0600 
    239 H239       -3.6315  -21.5713  -60.2320 H         1 UNK         0.0600 
    240 H240       -2.5579  -20.1171  -58.2035 H         1 UNK         0.3000 
    241 H241       -2.6762  -18.0550  -57.4442 H         1 UNK         0.0600 
    242 H242       -6.2261  -17.5222  -58.7828 H         1 UNK         0.3800 
    243 H243       -5.1347  -18.8415  -59.1170 H         1 UNK         0.3800 
    244 H244       -3.9904  -19.3713  -55.0249 H         1 UNK         0.0800 
    245 H245       -3.4028  -17.7346  -55.0284 H         1 UNK         0.0800 
    246 H246       -1.1683  -16.9217  -54.9945 H         1 UNK         0.0800 
    247 H247        0.2895  -17.8466  -54.7766 H         1 UNK         0.0800 
@<TRIPOS>BOND
     1    1    2 1    
     2    1  127 1    
     3    1  128 1    
     4    1  129 1    
     5    2    3 2    
     6    2    4 am   BACKBONE|DICT|INTERRES
     7    4    5 1    
     8    4  130 1    
     9    5    6 1    
    10    5   65 1    
    11    5  131 1    
    12    6    7 1    
    13    6  132 1    
    14    6  133 1    
    15    7    8 1    
    16    8    9 1    
    17    8  134 1    
    18    8  135 1    
    19    9   10 ar   
    20    9   14 ar   
    21   10   11 ar   
    22   10  136 1    
    23   11   12 ar   
    24   11  126 1    
    25   12   13 ar   
    26   12  137 1    
    27   13   14 ar   
    28   13   15 1    
    29   14  138 1    
    30   15   16 1    
    31   15  139 1    
    32   15  140 1    
    33   16   17 1    
    34   17   18 1    
    35   17  141 1    
    36   17  142 1    
    37   18   19 1    
    38   18   67 1    
    39   18  143 1    
    40   19   20 am   BACKBONE|DICT|INTERRES
    41   19  144 1    
    42   20   21 2    
    43   20   22 1    
    44   22   23 1    
    45   22   24 1    
    46   22  145 1    
    47   23  146 1    
    48   23  147 1    
    49   23  148 1    
    50   24   25 am   BACKBONE|DICT|INTERRES
    51   24  149 1    
    52   25   26 2    
    53   25   27 1    
    54   27   28 1    
    55   27   29 1    
    56   27  150 1    
    57   28  151 1    
    58   28  152 1    
    59   28  153 1    
    60   29   30 am   BACKBONE|DICT|INTERRES
    61   29  154 1    
    62   30   31 2    
    63   30   32 1    
    64   32   33 1    
    65   32   34 1    
    66   32  155 1    
    67   33  156 1    
    68   33  157 1    
    69   33  158 1    
    70   34   35 am   BACKBONE|DICT|INTERRES
    71   34  159 1    
    72   35   36 2    
    73   35   37 1    
    74   37   38 1    
    75   37   39 1    
    76   37  160 1    
    77   38  161 1    
    78   38  162 1    
    79   38  163 1    
    80   39   40 am   BACKBONE|DICT|INTERRES
    81   39  164 1    
    82   40   41 2    
    83   40   42 1    
    84   42   43 1    
    85   42   44 1    
    86   42  165 1    
    87   43  166 1    
    88   43  167 1    
    89   43  168 1    
    90   44   45 am   BACKBONE|DICT|INTERRES
    91   44  169 1    
    92   45   46 2    
    93   45   47 1    
    94   47   48 1    
    95   47   49 1    
    96   47  170 1    
    97   48  171 1    
    98   48  172 1    
    99   48  173 1    
   100   49   50 am   BACKBONE|DICT|INTERRES
   101   49  174 1    
   102   50   51 2    
   103   50   52 1    
   104   52   53 1    
   105   52   54 1    
   106   52  175 1    
   107   53  176 1    
   108   53  177 1    
   109   53  178 1    
   110   54   55 am   BACKBONE|DICT|INTERRES
   111   54  179 1    
   112   55   56 2    
   113   55   57 1    
   114   57   58 1    
   115   57   59 1    
   116   57  180 1    
   117   58  181 1    
   118   58  182 1    
   119   58  183 1    
   120   59   60 am   BACKBONE|DICT|INTERRES
   121   59  184 1    
   122   60   61 2    
   123   60   62 1    
   124   62   63 1    
   125   62   64 1    
   126   62  185 1    
   127   63  186 1    
   128   63  187 1    
   129   63  188 1    
   130   64   65 am   BACKBONE|DICT|INTERRES
   131   64  189 1    
   132   65   66 2    
   133   67   68 2    
   134   67   69 am   BACKBONE|DICT|INTERRES
   135   69   70 1    
   136   69  190 1    
   137   70   71 1    
   138   70   72 1    
   139   70  191 1    
   140   71  192 1    
   141   71  193 1    
   142   71  194 1    
   143   72   73 2    
   144   72   74 am   BACKBONE|DICT|INTERRES
   145   74   75 1    
   146   74  195 1    
   147   75   76 1    
   148   75   77 1    
   149   75  196 1    
   150   76  197 1    
   151   76  198 1    
   152   76  199 1    
   153   77   78 2    
   154   77   79 am   BACKBONE|DICT|INTERRES
   155   79   80 1    
   156   79  200 1    
   157   80   81 1    
   158   80   82 1    
   159   80  201 1    
   160   81  202 1    
   161   81  203 1    
   162   81  204 1    
   163   82   83 2    
   164   82   84 am   BACKBONE|DICT|INTERRES
   165   84   85 1    
   166   84  205 1    
   167   85   86 1    
   168   85   87 1    
   169   85  206 1    
   170   86  207 1    
   171   86  208 1    
   172   86  209 1    
   173   87   88 2    
   174   87   89 am   BACKBONE|DICT|INTERRES
   175   89   90 1    
   176   89  210 1    
   177   90   91 1    
   178   90   92 1    
   179   90  211 1    
   180   91  212 1    
   181   91  213 1    
   182   91  214 1    
   183   92   93 2    
   184   92   94 am   BACKBONE|DICT|INTERRES
   185   94   95 1    
   186   94  215 1    
   187   95   96 1    
   188   95   97 1    
   189   95  216 1    
   190   96  217 1    
   191   96  218 1    
   192   96  219 1    
   193   97   98 2    
   194   97   99 am   BACKBONE|DICT|INTERRES
   195   99  100 1    
   196   99  220 1    
   197  100  101 1    
   198  100  102 1    
   199  100  221 1    
   200  101  222 1    
   201  101  223 1    
   202  101  224 1    
   203  102  103 2    
   204  102  104 am   BACKBONE|DICT|INTERRES
   205  104  105 1    
   206  104  225 1    
   207  105  106 1    
   208  105  107 1    
   209  105  226 1    
   210  106  227 1    
   211  106  228 1    
   212  106  229 1    
   213  107  108 2    
   214  107  109 am   BACKBONE|DICT|INTERRES
   215  109  110 1    
   216  109  230 1    
   217  110  111 1    
   218  110  112 1    
   219  110  231 1    
   220  111  232 1    
   221  111  233 1    
   222  111  234 1    
   223  112  113 2    
   224  112  114 am   BACKBONE|DICT|INTERRES
   225  114  115 1    
   226  114  235 1    
   227  115  116 1    
   228  115  117 1    
   229  115  236 1    
   230  116  237 1    
   231  116  238 1    
   232  116  239 1    
   233  117  118 2    
   234  117  119 am   BACKBONE|DICT|INTERRES
   235  119  120 1    
   236  119  240 1    
   237  120  121 1    
   238  120  124 1    
   239  120  241 1    
   240  121  122 am   BACKBONE|DICT|INTERRES
   241  121  123 2    
   242  122  242 1    
   243  122  243 1    
   244  124  125 1    
   245  124  244 1    
   246  124  245 1    
   247  125  126 1    
   248  126  246 1    
   249  126  247 1    
@<TRIPOS>SUBSTRUCTURE
     1 UNK         1 GROUP             0       ****    0 ROOT    
