@<TRIPOS>MOLECULE
3R540
247   249    1
SMALL
USER_CHARGES


@<TRIPOS>ATOM
      1 CA         -4.4898  -10.9087  -46.2999 C.3       0 UNK        -0.1800 
      2 C          -3.0244  -11.1949  -46.0085 C.2       0 UNK         0.5000 
      3 O          -2.1832  -10.3126  -46.1756 O.2       0 UNK        -0.5000 
      4 N          -2.7163  -12.4172  -45.5538 N.am      1 UNK        -0.5000 
      5 CA         -1.3595  -12.9116  -45.2696 C.3       1 UNK         0.1400 
      6 C6         -1.3465  -14.4210  -44.9278 C.3       23 UNK        -0.0398 
      7 S7         -2.1149  -15.4471  -46.2271 S.3       23 UNK        -0.2404 
      8 C8         -0.6742  -15.7751  -47.2824 C.3       23 UNK        -0.0205 
      9 C9         -1.0624  -16.5616  -48.5233 C.ar      23 UNK        -0.0193 
     10 C10        -1.4485  -15.8913  -49.6878 C.ar      23 UNK        -0.1150 
     11 C11        -1.7881  -16.6069  -50.8402 C.ar      23 UNK        -0.0193 
     12 C12        -1.7389  -18.0023  -50.8187 C.ar      23 UNK        -0.1150 
     13 C13        -1.3568  -18.6850  -49.6609 C.ar      23 UNK        -0.0193 
     14 C14        -1.0217  -17.9587  -48.5153 C.ar      23 UNK        -0.1150 
     15 C15        -1.2863  -20.2032  -49.6635 C.3       23 UNK        -0.0205 
     16 S16        -2.8240  -20.9541  -49.0381 S.3       23 UNK        -0.2404 
     17 C17        -2.3582  -21.2894  -47.3104 C.3       23 UNK        -0.0398 
     18 CA         -1.7679  -22.7171  -47.1478 C.3       11 UNK         0.1400 
     19 N          -0.4489  -22.7044  -46.5124 N.am      11 UNK        -0.5000 
     20 C           0.3616  -23.7661  -46.4041 C.2       10 UNK         0.5000 
     21 O           0.1106  -24.8705  -46.8829 O.2       10 UNK        -0.5000 
     22 CA          1.6385  -23.5746  -45.5692 C.3       10 UNK         0.1400 
     23 CB          2.7703  -22.9762  -46.4184 C.3       10 UNK        -0.1800 
     24 N           1.3932  -22.7325  -44.3977 N.am      10 UNK        -0.5000 
     25 C           0.6594  -23.1112  -43.3414 C.2       9 UNK         0.5000 
     26 O           0.1660  -24.2328  -43.2203 O.2       9 UNK        -0.5000 
     27 CA          0.3930  -22.0419  -42.2657 C.3       9 UNK         0.1400 
     28 CB          1.5774  -21.9434  -41.2931 C.3       9 UNK        -0.1800 
     29 N           0.1222  -20.7207  -42.8367 N.am      9 UNK        -0.5000 
     30 C          -0.9582  -20.4186  -43.5710 C.2       8 UNK         0.5000 
     31 O          -1.8576  -21.2184  -43.8249 O.2       8 UNK        -0.5000 
     32 CA         -1.0206  -18.9995  -44.1668 C.3       8 UNK         0.1400 
     33 CB         -1.6345  -18.0235  -43.1531 C.3       8 UNK        -0.1800 
     34 N           0.2791  -18.4851  -44.6075 N.am      8 UNK        -0.5000 
     35 C           1.0964  -19.0744  -45.4926 C.2       7 UNK         0.5000 
     36 O           0.8303  -20.1445  -46.0391 O.2       7 UNK        -0.5000 
     37 CA          2.4224  -18.3641  -45.8335 C.3       7 UNK         0.1400 
     38 CB          2.5942  -18.2008  -47.3531 C.3       7 UNK        -0.1800 
     39 N           2.5627  -17.0506  -45.2016 N.am      7 UNK        -0.5000 
     40 C           2.9496  -16.8189  -43.9422 C.2       6 UNK         0.5000 
     41 O           3.2096  -17.7200  -43.1438 O.2       6 UNK        -0.5000 
     42 CA          3.0471  -15.3358  -43.5133 C.3       6 UNK         0.1400 
     43 CB          3.7466  -15.1584  -42.1538 C.3       6 UNK        -0.1800 
     44 N           3.7254  -14.4929  -44.5039 N.am      6 UNK        -0.5000 
     45 C           3.1885  -14.0448  -45.6447 C.2       5 UNK         0.5000 
     46 O           2.0574  -14.3494  -46.0314 O.2       5 UNK        -0.5000 
     47 CA          4.0815  -13.1645  -46.5338 C.3       5 UNK         0.1400 
     48 CB          4.6524  -13.9880  -47.6987 C.3       5 UNK        -0.1800 
     49 N           3.3077  -12.0483  -47.0705 N.am      5 UNK        -0.5000 
     50 C           2.9696  -10.9616  -46.3661 C.2       4 UNK         0.5000 
     51 O           3.4159  -10.7174  -45.2421 O.2       4 UNK        -0.5000 
     52 CA          1.9837   -9.9776  -47.0215 C.3       4 UNK         0.1400 
     53 CB          1.0906  -10.6121  -48.1087 C.3       4 UNK        -0.1800 
     54 N           1.1388   -9.3965  -45.9836 N.am      4 UNK        -0.5000 
     55 C           0.7183   -8.1267  -45.9373 C.2       3 UNK         0.5000 
     56 O           1.0194   -7.2845  -46.7852 O.2       3 UNK        -0.5000 
     57 CA         -0.1938   -7.7217  -44.7599 C.3       3 UNK         0.1400 
     58 CB         -1.4112   -6.9150  -45.2454 C.3       3 UNK        -0.1800 
     59 N          -0.6800   -8.8903  -44.0257 N.am      3 UNK        -0.5000 
     60 C          -0.2971   -9.2566  -42.7951 C.2       2 UNK         0.5000 
     61 O           0.4957   -8.6132  -42.1067 O.2       2 UNK        -0.5000 
     62 CA         -0.8903  -10.5669  -42.2324 C.3       2 UNK         0.1400 
     63 CB         -2.0287  -10.2602  -41.2472 C.3       2 UNK        -0.1800 
     64 N          -1.3931  -11.4784  -43.2639 N.am      2 UNK        -0.5000 
     65 C          -0.6313  -12.1059  -44.1713 C.2       1 UNK         0.5000 
     66 O           0.5953  -12.0266  -44.1897 O.2       1 UNK        -0.5000 
     67 C          -2.7438  -23.6687  -46.4264 C.2       11 UNK         0.5000 
     68 O          -3.4212  -24.4566  -47.0859 O.2       11 UNK        -0.5000 
     69 N          -2.7600  -23.6153  -45.0871 N.am      12 UNK        -0.5000 
     70 CA         -3.5326  -24.5091  -44.2248 C.3       12 UNK         0.1400 
     71 CB         -3.4518  -24.0236  -42.7700 C.3       12 UNK        -0.1800 
     72 C          -3.0866  -25.9776  -44.3424 C.2       12 UNK         0.5000 
     73 O          -3.9401  -26.8580  -44.4519 O.2       12 UNK        -0.5000 
     74 N          -1.7666  -26.2155  -44.3764 N.am      13 UNK        -0.5000 
     75 CA         -1.1664  -27.5360  -44.5974 C.3       13 UNK         0.1400 
     76 CB          0.3521  -27.4545  -44.3825 C.3       13 UNK        -0.1800 
     77 C          -1.4933  -28.1236  -45.9858 C.2       13 UNK         0.5000 
     78 O          -1.6907  -29.3329  -46.1049 O.2       13 UNK        -0.5000 
     79 N          -1.5944  -27.2507  -46.9966 N.am      14 UNK        -0.5000 
     80 CA         -2.0344  -27.5646  -48.3569 C.3       14 UNK         0.1400 
     81 CB         -1.4777  -26.4958  -49.3140 C.3       14 UNK        -0.1800 
     82 C          -3.5681  -27.6767  -48.5014 C.2       14 UNK         0.5000 
     83 O          -4.0449  -27.8653  -49.6204 O.2       14 UNK        -0.5000 
     84 N          -4.3224  -27.5249  -47.4008 N.am      15 UNK        -0.5000 
     85 CA         -5.7884  -27.5570  -47.3188 C.3       15 UNK         0.1400 
     86 CB         -6.3154  -28.9802  -47.5963 C.3       15 UNK        -0.1800 
     87 C          -6.4661  -26.4807  -48.1950 C.2       15 UNK         0.5000 
     88 O          -7.5276  -26.7254  -48.7704 O.2       15 UNK        -0.5000 
     89 N          -5.8128  -25.3140  -48.2930 N.am      16 UNK        -0.5000 
     90 CA         -6.1642  -24.1375  -49.0911 C.3       16 UNK         0.1400 
     91 CB         -7.5271  -23.5544  -48.6661 C.3       16 UNK        -0.1800 
     92 C          -6.0600  -24.3402  -50.6173 C.2       16 UNK         0.5000 
     93 O          -6.4554  -23.4441  -51.3619 O.2       16 UNK        -0.5000 
     94 N          -5.4872  -25.4619  -51.0838 N.am      17 UNK        -0.5000 
     95 CA         -5.2548  -25.7229  -52.5105 C.3       17 UNK         0.1400 
     96 CB         -4.8453  -27.1892  -52.7084 C.3       17 UNK        -0.1800 
     97 C          -4.1972  -24.7815  -53.1197 C.2       17 UNK         0.5000 
     98 O          -4.2744  -24.4511  -54.3033 O.2       17 UNK        -0.5000 
     99 N          -3.2510  -24.3360  -52.2822 N.am      18 UNK        -0.5000 
    100 CA        -2.1996  -23.3810  -52.6260 C.3       18 UNK         0.1400 
    101 CB        -1.0859  -23.4745  -51.5715 C.3       18 UNK        -0.1800 
    102 C         -2.6984  -21.9283  -52.7657 C.2       18 UNK         0.5000 
    103 O         -1.9416  -21.0908  -53.2588 O.2       18 UNK        -0.5000 
    104 N         -3.9416  -21.6370  -52.3485 N.am      19 UNK        -0.5000 
    105 CA        -4.5374  -20.2966  -52.3842 C.3       19 UNK         0.1400 
    106 CB        -5.8912  -20.3063  -51.6611 C.3       19 UNK        -0.1800 
    107 C         -4.6895  -19.7372  -53.8102 C.2       19 UNK         0.5000 
    108 O         -4.5460  -18.5313  -54.0117 O.2       19 UNK        -0.5000 
    109 N         -4.9478  -20.6327  -54.7728 N.am      20 UNK        -0.5000 
    110 CA        -5.0312  -20.3190  -56.1983 C.3       20 UNK         0.1400 
    111 CB        -5.7857  -21.4526  -56.9099 C.3       20 UNK        -0.1800 
    112 C         -3.6497  -20.1032  -56.8464 C.2       20 UNK         0.5000 
    113 O         -3.5642  -19.4084  -57.8597 O.2       20 UNK        -0.5000 
    114 N         -2.6019  -20.7067  -56.2681 N.am      21 UNK        -0.5000 
    115 CA        -1.2226  -20.5963  -56.7365 C.3       21 UNK         0.1400 
    116 CB        -0.4348  -21.8539  -56.3325 C.3       21 UNK        -0.1800 
    117 C         -0.5565  -19.3214  -56.1967 C.2       21 UNK         0.5000 
    118 O         -0.0266  -18.5366  -56.9841 O.2       21 UNK        -0.5000 
    119 N         -0.6125  -19.1341  -54.8695 N.am      22 UNK        -0.5000 
    120 CA        -0.0417  -17.9855  -54.1428 C.3       22 UNK         0.1400 
    121 C          1.5137  -17.8655  -54.2427 C.2       22 UNK         0.5000 
    122 N          2.2359  -18.9633  -54.4354 N.am      22 UNK        -0.7600 
    123 O          2.0834  -16.7833  -54.1339 O.2       22 UNK        -0.5000 
    124 C124       -0.8145  -16.6728  -54.4602 C.3       23 UNK        -0.0398 
    125 S125       -0.7686  -15.4251  -53.1244 S.3       23 UNK        -0.2404 
    126 C126       -2.2096  -15.8702  -52.1025 C.3       23 UNK        -0.0205 
    127 H127       -4.6161  -10.6357  -47.3475 H         1 UNK         0.0600 
    128 H128       -4.8386  -10.0786  -45.6856 H         1 UNK         0.0600 
    129 H129       -5.1207  -11.7738  -46.0948 H         1 UNK         0.0600 
    130 H130       -3.4521  -13.1018  -45.4497 H         1 UNK         0.3000 
    131 H131       -0.7779  -12.7763  -46.1833 H         1 UNK         0.0600 
    132 H132       -1.8863  -14.6005  -43.9966 H         1 UNK         0.0800 
    133 H133       -0.3267  -14.7716  -44.7589 H         1 UNK         0.0800 
    134 H134        0.0726  -16.3215  -46.7076 H         1 UNK         0.0800 
    135 H135       -0.2100  -14.8312  -47.5722 H         1 UNK         0.0800 
    136 H136       -1.4810  -14.8108  -49.6985 H         1 UNK         0.1150 
    137 H137       -1.9873  -18.5572  -51.7107 H         1 UNK         0.1150 
    138 H138       -0.7251  -18.4800  -47.6187 H         1 UNK         0.1150 
    139 H139       -1.1084  -20.5573  -50.6785 H         1 UNK         0.0800 
    140 H140       -0.4292  -20.5428  -49.0793 H         1 UNK         0.0800 
    141 H141       -3.2374  -21.1275  -46.6836 H         1 UNK         0.0800 
    142 H142       -1.6476  -20.5292  -46.9898 H         1 UNK         0.0800 
    143 H143       -1.6038  -23.1501  -48.1364 H         1 UNK         0.0600 
    144 H144       -0.1251  -21.8172  -46.1388 H         1 UNK         0.3000 
    145 H145        1.9622  -24.5576  -45.2211 H         1 UNK         0.0600 
    146 H146        3.6849  -22.8669  -45.8357 H         1 UNK         0.0600 
    147 H147        3.0006  -23.6230  -47.2659 H         1 UNK         0.0600 
    148 H148        2.5086  -21.9970  -46.8191 H         1 UNK         0.0600 
    149 H149        1.7106  -21.7760  -44.4526 H         1 UNK         0.3000 
    150 H150       -0.4879  -22.3530  -41.7000 H         1 UNK         0.0600 
    151 H151        1.7932  -22.9128  -40.8418 H         1 UNK         0.0600 
    152 H152        1.3633  -21.2486  -40.4808 H         1 UNK         0.0600 
    153 H153        2.4851  -21.6046  -41.7942 H         1 UNK         0.0600 
    154 H154        0.8176  -20.0044  -42.6848 H         1 UNK         0.3000 
    155 H155       -1.6729  -19.0360  -45.0412 H         1 UNK         0.0600 
    156 H156       -1.0009  -17.9024  -42.2737 H         1 UNK         0.0600 
    157 H157       -2.6083  -18.3768  -42.8110 H         1 UNK         0.0600 
    158 H158       -1.7874  -17.0405  -43.5952 H         1 UNK         0.0600 
    159 H159        0.5802  -17.6130  -44.2015 H         1 UNK         0.3000 
    160 H160        3.2249  -19.0119  -45.4751 H         1 UNK         0.0600 
    161 H161        1.8354  -17.5465  -47.7813 H         1 UNK         0.0600 
    162 H162        2.5254  -19.1614  -47.8654 H         1 UNK         0.0600 
    163 H163        3.5699  -17.7780  -47.5933 H         1 UNK         0.0600 
    164 H164        2.3419  -16.2395  -45.7720 H         1 UNK         0.3000 
    165 H165        2.0227  -14.9736  -43.4029 H         1 UNK         0.0600 
    166 H166        3.7606  -14.1109  -41.8518 H         1 UNK         0.0600 
    167 H167        3.2285  -15.7111  -41.3690 H         1 UNK         0.0600 
    168 H168        4.7772  -15.5142  -42.1823 H         1 UNK         0.0600 
    169 H169        4.6762  -14.2342  -44.2828 H         1 UNK         0.3000 
    170 H170        4.9131  -12.7747  -45.9427 H         1 UNK         0.0600 
    171 H171        5.2503  -14.8226  -47.3302 H         1 UNK         0.0600 
    172 H172        3.8620  -14.4033  -48.3256 H         1 UNK         0.0600 
    173 H173        5.2987  -13.3801  -48.3320 H         1 UNK         0.0600 
    174 H174        2.8717  -12.1983  -47.9681 H         1 UNK         0.3000 
    175 H175        2.5915   -9.1962  -47.4817 H         1 UNK         0.0600 
    176 H176        0.5337  -11.4667  -47.7234 H         1 UNK         0.0600 
    177 H177        0.3651   -9.8923  -48.4883 H         1 UNK         0.0600 
    178 H178        1.6778  -10.9493  -48.9633 H         1 UNK         0.0600 
    179 H179        0.9160  -10.0167  -45.2143 H         1 UNK         0.3000 
    180 H180        0.3993   -7.0786  -44.1070 H         1 UNK         0.0600 
    181 H181       -2.0501   -6.6263  -44.4107 H         1 UNK         0.0600 
    182 H182       -2.0171   -7.4879  -45.9485 H         1 UNK         0.0600 
    183 H183       -1.1026   -5.9974  -45.7476 H         1 UNK         0.0600 
    184 H184       -1.3067   -9.4939  -44.5493 H         1 UNK         0.3000 
    185 H185       -0.0939  -11.0788  -41.6881 H         1 UNK         0.0600 
    186 H186       -2.4067  -11.1717  -40.7839 H         1 UNK         0.0600 
    187 H187       -1.6852   -9.6075  -40.4435 H         1 UNK         0.0600 
    188 H188       -2.8638   -9.7613  -41.7407 H         1 UNK         0.0600 
    189 H189       -2.3954  -11.5828  -43.3271 H         1 UNK         0.3000 
    190 H190       -2.2214  -22.8901  -44.6202 H         1 UNK         0.3000 
    191 H191       -4.5760  -24.4540  -44.5421 H         1 UNK         0.0600 
    192 H192       -4.0436  -24.6612  -42.1120 H         1 UNK         0.0600 
    193 H193       -3.8369  -23.0084  -42.6722 H         1 UNK         0.0600 
    194 H194       -2.4272  -24.0285  -42.3981 H         1 UNK         0.0600 
    195 H195       -1.1255  -25.4422  -44.2308 H         1 UNK         0.3000 
    196 H196       -1.5778  -28.2151  -43.8479 H         1 UNK         0.0600 
    197 H197        0.8259  -26.7874  -45.1021 H         1 UNK         0.0600 
    198 H198        0.5904  -27.0919  -43.3824 H         1 UNK         0.0600 
    199 H199        0.8145  -28.4361  -44.4919 H         1 UNK         0.0600 
    200 H200       -1.3422  -26.2831  -46.8222 H         1 UNK         0.3000 
    201 H201       -1.6136  -28.5294  -48.6463 H         1 UNK         0.0600 
    202 H202       -1.8836  -25.5086  -49.0935 H         1 UNK         0.0600 
    203 H203       -1.7209  -26.7274  -50.3518 H         1 UNK         0.0600 
    204 H204       -0.3916  -26.4320  -49.2449 H         1 UNK         0.0600 
    205 H205       -3.8511  -27.3352  -46.5245 H         1 UNK         0.3000 
    206 H206       -6.0410  -27.3079  -46.2874 H         1 UNK         0.0600 
    207 H207       -5.8257  -29.7129  -46.9548 H         1 UNK         0.0600 
    208 H208       -7.3866  -29.0457  -47.4026 H         1 UNK         0.0600 
    209 H209       -6.1516  -29.2784  -48.6323 H         1 UNK         0.0600 
    210 H210       -4.9330  -25.2203  -47.7871 H         1 UNK         0.3000 
    211 H211       -5.4075  -23.3899  -48.8485 H         1 UNK         0.0600 
    212 H212       -7.7017  -22.5864  -49.1372 H         1 UNK         0.0600 
    213 H213       -7.5713  -23.4006  -47.5879 H         1 UNK         0.0600 
    214 H214       -8.3546  -24.2056  -48.9483 H         1 UNK         0.0600 
    215 H215       -5.1811  -26.1756  -50.4323 H         1 UNK         0.3000 
    216 H216       -6.1941  -25.5576  -53.0424 H         1 UNK         0.0600 
    217 H217       -3.8793  -27.4032  -52.2499 H         1 UNK         0.0600 
    218 H218       -4.7633  -27.4301  -53.7689 H         1 UNK         0.0600 
    219 H219       -5.5804  -27.8680  -52.2754 H         1 UNK         0.0600 
    220 H220       -3.2757  -24.6589  -51.3268 H         1 UNK         0.3000 
    221 H221       -1.7765  -23.6673  -53.5911 H         1 UNK         0.0600 
    222 H222       -0.6552  -24.4754  -51.5416 H         1 UNK         0.0600 
    223 H223       -1.4555  -23.2398  -50.5737 H         1 UNK         0.0600 
    224 H224       -0.2734  -22.7814  -51.7934 H         1 UNK         0.0600 
    225 H225       -4.5225  -22.3761  -51.9758 H         1 UNK         0.3000 
    226 H226       -3.8795  -19.6288  -51.8312 H         1 UNK         0.0600 
    227 H227       -6.6231  -20.9224  -52.1843 H         1 UNK         0.0600 
    228 H228       -5.7940  -20.6864  -50.6438 H         1 UNK         0.0600 
    229 H229       -6.3020  -19.2983  -51.5933 H         1 UNK         0.0600 
    230 H230       -5.0493  -21.6036  -54.5123 H         1 UNK         0.3000 
    231 H231       -5.6038  -19.3972  -56.3213 H         1 UNK         0.0600 
    232 H232       -5.2682  -22.4075  -56.8063 H         1 UNK         0.0600 
    233 H233       -5.8861  -21.2468  -57.9764 H         1 UNK         0.0600 
    234 H234       -6.7917  -21.5707  -56.5067 H         1 UNK         0.0600 
    235 H235       -2.7478  -21.2025  -55.4007 H         1 UNK         0.3000 
    236 H236       -1.2190  -20.5425  -57.8275 H         1 UNK         0.0600 
    237 H237       -0.8857  -22.7517  -56.7556 H         1 UNK         0.0600 
    238 H238        0.5911  -21.8028  -56.6993 H         1 UNK         0.0600 
    239 H239       -0.3886  -21.9827  -55.2512 H         1 UNK         0.0600 
    240 H240       -1.0713  -19.8384  -54.2953 H         1 UNK         0.3000 
    241 H241       -0.2133  -18.2186  -53.0946 H         1 UNK         0.0600 
    242 H242        3.2392  -18.8913  -54.4984 H         1 UNK         0.3800 
    243 H243        1.7907  -19.8626  -54.5225 H         1 UNK         0.3800 
    244 H244       -1.8610  -16.8950  -54.6741 H         1 UNK         0.0800 
    245 H245       -0.4263  -16.2178  -55.3727 H         1 UNK         0.0800 
    246 H246       -2.7386  -14.9557  -51.8302 H         1 UNK         0.0800 
    247 H247       -2.9220  -16.4686  -52.6725 H         1 UNK         0.0800 
@<TRIPOS>BOND
     1    1    2 1    
     2    1  127 1    
     3    1  128 1    
     4    1  129 1    
     5    2    3 2    
     6    2    4 am   BACKBONE|DICT|INTERRES
     7    4    5 1    
     8    4  130 1    
     9    5    6 1    
    10    5   65 1    
    11    5  131 1    
    12    6    7 1    
    13    6  132 1    
    14    6  133 1    
    15    7    8 1    
    16    8    9 1    
    17    8  134 1    
    18    8  135 1    
    19    9   10 ar   
    20    9   14 ar   
    21   10   11 ar   
    22   10  136 1    
    23   11   12 ar   
    24   11  126 1    
    25   12   13 ar   
    26   12  137 1    
    27   13   14 ar   
    28   13   15 1    
    29   14  138 1    
    30   15   16 1    
    31   15  139 1    
    32   15  140 1    
    33   16   17 1    
    34   17   18 1    
    35   17  141 1    
    36   17  142 1    
    37   18   19 1    
    38   18   67 1    
    39   18  143 1    
    40   19   20 am   BACKBONE|DICT|INTERRES
    41   19  144 1    
    42   20   21 2    
    43   20   22 1    
    44   22   23 1    
    45   22   24 1    
    46   22  145 1    
    47   23  146 1    
    48   23  147 1    
    49   23  148 1    
    50   24   25 am   BACKBONE|DICT|INTERRES
    51   24  149 1    
    52   25   26 2    
    53   25   27 1    
    54   27   28 1    
    55   27   29 1    
    56   27  150 1    
    57   28  151 1    
    58   28  152 1    
    59   28  153 1    
    60   29   30 am   BACKBONE|DICT|INTERRES
    61   29  154 1    
    62   30   31 2    
    63   30   32 1    
    64   32   33 1    
    65   32   34 1    
    66   32  155 1    
    67   33  156 1    
    68   33  157 1    
    69   33  158 1    
    70   34   35 am   BACKBONE|DICT|INTERRES
    71   34  159 1    
    72   35   36 2    
    73   35   37 1    
    74   37   38 1    
    75   37   39 1    
    76   37  160 1    
    77   38  161 1    
    78   38  162 1    
    79   38  163 1    
    80   39   40 am   BACKBONE|DICT|INTERRES
    81   39  164 1    
    82   40   41 2    
    83   40   42 1    
    84   42   43 1    
    85   42   44 1    
    86   42  165 1    
    87   43  166 1    
    88   43  167 1    
    89   43  168 1    
    90   44   45 am   BACKBONE|DICT|INTERRES
    91   44  169 1    
    92   45   46 2    
    93   45   47 1    
    94   47   48 1    
    95   47   49 1    
    96   47  170 1    
    97   48  171 1    
    98   48  172 1    
    99   48  173 1    
   100   49   50 am   BACKBONE|DICT|INTERRES
   101   49  174 1    
   102   50   51 2    
   103   50   52 1    
   104   52   53 1    
   105   52   54 1    
   106   52  175 1    
   107   53  176 1    
   108   53  177 1    
   109   53  178 1    
   110   54   55 am   BACKBONE|DICT|INTERRES
   111   54  179 1    
   112   55   56 2    
   113   55   57 1    
   114   57   58 1    
   115   57   59 1    
   116   57  180 1    
   117   58  181 1    
   118   58  182 1    
   119   58  183 1    
   120   59   60 am   BACKBONE|DICT|INTERRES
   121   59  184 1    
   122   60   61 2    
   123   60   62 1    
   124   62   63 1    
   125   62   64 1    
   126   62  185 1    
   127   63  186 1    
   128   63  187 1    
   129   63  188 1    
   130   64   65 am   BACKBONE|DICT|INTERRES
   131   64  189 1    
   132   65   66 2    
   133   67   68 2    
   134   67   69 am   BACKBONE|DICT|INTERRES
   135   69   70 1    
   136   69  190 1    
   137   70   71 1    
   138   70   72 1    
   139   70  191 1    
   140   71  192 1    
   141   71  193 1    
   142   71  194 1    
   143   72   73 2    
   144   72   74 am   BACKBONE|DICT|INTERRES
   145   74   75 1    
   146   74  195 1    
   147   75   76 1    
   148   75   77 1    
   149   75  196 1    
   150   76  197 1    
   151   76  198 1    
   152   76  199 1    
   153   77   78 2    
   154   77   79 am   BACKBONE|DICT|INTERRES
   155   79   80 1    
   156   79  200 1    
   157   80   81 1    
   158   80   82 1    
   159   80  201 1    
   160   81  202 1    
   161   81  203 1    
   162   81  204 1    
   163   82   83 2    
   164   82   84 am   BACKBONE|DICT|INTERRES
   165   84   85 1    
   166   84  205 1    
   167   85   86 1    
   168   85   87 1    
   169   85  206 1    
   170   86  207 1    
   171   86  208 1    
   172   86  209 1    
   173   87   88 2    
   174   87   89 am   BACKBONE|DICT|INTERRES
   175   89   90 1    
   176   89  210 1    
   177   90   91 1    
   178   90   92 1    
   179   90  211 1    
   180   91  212 1    
   181   91  213 1    
   182   91  214 1    
   183   92   93 2    
   184   92   94 am   BACKBONE|DICT|INTERRES
   185   94   95 1    
   186   94  215 1    
   187   95   96 1    
   188   95   97 1    
   189   95  216 1    
   190   96  217 1    
   191   96  218 1    
   192   96  219 1    
   193   97   98 2    
   194   97   99 am   BACKBONE|DICT|INTERRES
   195   99  100 1    
   196   99  220 1    
   197  100  101 1    
   198  100  102 1    
   199  100  221 1    
   200  101  222 1    
   201  101  223 1    
   202  101  224 1    
   203  102  103 2    
   204  102  104 am   BACKBONE|DICT|INTERRES
   205  104  105 1    
   206  104  225 1    
   207  105  106 1    
   208  105  107 1    
   209  105  226 1    
   210  106  227 1    
   211  106  228 1    
   212  106  229 1    
   213  107  108 2    
   214  107  109 am   BACKBONE|DICT|INTERRES
   215  109  110 1    
   216  109  230 1    
   217  110  111 1    
   218  110  112 1    
   219  110  231 1    
   220  111  232 1    
   221  111  233 1    
   222  111  234 1    
   223  112  113 2    
   224  112  114 am   BACKBONE|DICT|INTERRES
   225  114  115 1    
   226  114  235 1    
   227  115  116 1    
   228  115  117 1    
   229  115  236 1    
   230  116  237 1    
   231  116  238 1    
   232  116  239 1    
   233  117  118 2    
   234  117  119 am   BACKBONE|DICT|INTERRES
   235  119  120 1    
   236  119  240 1    
   237  120  121 1    
   238  120  124 1    
   239  120  241 1    
   240  121  122 am   BACKBONE|DICT|INTERRES
   241  121  123 2    
   242  122  242 1    
   243  122  243 1    
   244  124  125 1    
   245  124  244 1    
   246  124  245 1    
   247  125  126 1    
   248  126  246 1    
   249  126  247 1    
@<TRIPOS>SUBSTRUCTURE
     1 UNK         1 GROUP             0       ****    0 ROOT    
