@<TRIPOS>MOLECULE
3R540
247   249    1
SMALL
USER_CHARGES


@<TRIPOS>ATOM
      1 CA         -2.9697   -8.5039  -48.8574 C.3       0 UNK        -0.1800 
      2 C          -2.5941   -9.9755  -48.9614 C.2       0 UNK         0.5000 
      3 O          -3.1292  -10.6843  -49.8136 O.2       0 UNK        -0.5000 
      4 N          -1.6793  -10.4326  -48.0995 N.am      1 UNK        -0.5000 
      5 CA         -1.1983  -11.8179  -48.0324 C.3       1 UNK         0.1400 
      6 C6         -2.0415  -12.6660  -47.0426 C.3       23 UNK        -0.0398 
      7 S7         -2.0861  -14.4410  -47.4685 S.3       23 UNK        -0.2404 
      8 C8         -3.8090  -14.8585  -47.0511 C.3       23 UNK        -0.0205 
      9 C9         -4.0663  -16.3597  -47.0904 C.ar      23 UNK        -0.0193 
     10 C10        -3.9047  -17.0720  -48.2820 C.ar      23 UNK        -0.1150 
     11 C11        -4.1608  -18.4449  -48.3309 C.ar      23 UNK        -0.0193 
     12 C12        -4.5840  -19.1070  -47.1755 C.ar      23 UNK        -0.1150 
     13 C13        -4.7498  -18.4108  -45.9767 C.ar      23 UNK        -0.0193 
     14 C14        -4.4904  -17.0361  -45.9417 C.ar      23 UNK        -0.1150 
     15 C15        -5.2331  -19.1317  -44.7255 C.3       23 UNK        -0.0205 
     16 S16        -3.9303  -19.2192  -43.4580 S.3       23 UNK        -0.2404 
     17 C17        -3.4207  -20.9723  -43.4285 C.3       23 UNK        -0.0398 
     18 CA         -2.9947  -21.6250  -44.7713 C.3       11 UNK         0.1400 
     19 N          -1.9429  -20.8994  -45.4924 N.am      11 UNK        -0.5000 
     20 C          -1.4971  -21.2282  -46.7159 C.2       10 UNK         0.5000 
     21 O          -1.9864  -22.1283  -47.4003 O.2       10 UNK        -0.5000 
     22 CA         -0.2605  -20.4792  -47.2463 C.3       10 UNK         0.1400 
     23 CB         -0.6413  -19.1280  -47.8679 C.3       10 UNK        -0.1800 
     24 N           0.7615  -20.2868  -46.2175 N.am      10 UNK        -0.5000 
     25 C           1.4551  -21.2814  -45.6460 C.2       9 UNK         0.5000 
     26 O           1.3315  -22.4650  -45.9600 O.2       9 UNK        -0.5000 
     27 CA          2.4235  -20.9007  -44.5098 C.3       9 UNK         0.1400 
     28 CB          3.7652  -20.4103  -45.0735 C.3       9 UNK        -0.1800 
     29 N           1.8711  -19.8934  -43.6039 N.am      9 UNK        -0.5000 
     30 C           0.7878  -20.0796  -42.8358 C.2       8 UNK         0.5000 
     31 O           0.1700  -21.1423  -42.7679 O.2       8 UNK        -0.5000 
     32 CA          0.2687  -18.8576  -42.0567 C.3       8 UNK         0.1400 
     33 CB          1.0808  -18.6434  -40.7711 C.3       8 UNK        -0.1800 
     34 N           0.2644  -17.6280  -42.8517 N.am      8 UNK        -0.5000 
     35 C          -0.3977  -17.4770  -44.0089 C.2       7 UNK         0.5000 
     36 O          -1.0687  -18.3619  -44.5317 O.2       7 UNK        -0.5000 
     37 CA         -0.2259  -16.1410  -44.7434 C.3       7 UNK         0.1400 
     38 CB         -0.9880  -15.0173  -44.0251 C.3       7 UNK        -0.1800 
     39 N           1.1804  -15.7771  -44.8887 N.am      7 UNK        -0.5000 
     40 C           2.0952  -16.4981  -45.5514 C.2       6 UNK         0.5000 
     41 O           1.8423  -17.5297  -46.1729 O.2       6 UNK        -0.5000 
     42 CA          3.5532  -16.0217  -45.4441 C.3       6 UNK         0.1400 
     43 CB          3.8390  -14.8755  -46.4258 C.3       6 UNK        -0.1800 
     44 N           3.8889  -15.6049  -44.0823 N.am      6 UNK        -0.5000 
     45 C           3.9625  -16.4356  -43.0322 C.2       5 UNK         0.5000 
     46 O           3.7967  -17.6532  -43.1077 O.2       5 UNK        -0.5000 
     47 CA          4.2333  -15.7884  -41.6620 C.3       5 UNK         0.1400 
     48 CB          5.7381  -15.5557  -41.4602 C.3       5 UNK        -0.1800 
     49 N           3.5189  -14.5221  -41.4917 N.am      5 UNK        -0.5000 
     50 C           2.1879  -14.4171  -41.3702 C.2       4 UNK         0.5000 
     51 O           1.4252  -15.3828  -41.3504 O.2       4 UNK        -0.5000 
     52 CA          1.6114  -12.9889  -41.3095 C.3       4 UNK         0.1400 
     53 CB          1.6558  -12.4470  -39.8731 C.3       4 UNK        -0.1800 
     54 N           2.2935  -12.0505  -42.2084 N.am      4 UNK        -0.5000 
     55 C           2.3254  -12.1788  -43.5409 C.2       3 UNK         0.5000 
     56 O           1.7917  -13.1107  -44.1432 O.2       3 UNK        -0.5000 
     57 CA          3.1263  -11.1319  -44.3242 C.3       3 UNK         0.1400 
     58 CB          4.6362  -11.4214  -44.2125 C.3       3 UNK        -0.1800 
     59 N           2.7095  -11.1703  -45.7234 N.am      3 UNK        -0.5000 
     60 C           2.9682  -10.2450  -46.6508 C.2       2 UNK         0.5000 
     61 O           3.5769   -9.2001  -46.4159 O.2       2 UNK        -0.5000 
     62 CA          2.4661  -10.5150  -48.0836 C.3       2 UNK         0.1400 
     63 CB          3.3058  -11.6045  -48.7794 C.3       2 UNK        -0.1800 
     64 N           1.0255  -10.7856  -48.1914 N.am      2 UNK        -0.5000 
     65 C           0.3226  -11.8416  -47.7503 C.2       1 UNK         0.5000 
     66 O           0.8282  -12.7856  -47.1448 O.2       1 UNK        -0.5000 
     67 C          -2.5809  -23.0905  -44.5154 C.2       11 UNK         0.5000 
     68 O          -3.3509  -24.0005  -44.8285 O.2       11 UNK        -0.5000 
     69 N          -1.3634  -23.2841  -43.9811 N.am      12 UNK        -0.5000 
     70 CA         -0.7761  -24.5835  -43.6389 C.3       12 UNK         0.1400 
     71 CB          0.5573  -24.3713  -42.9075 C.3       12 UNK        -0.1800 
     72 C          -0.5859  -25.5243  -44.8421 C.2       12 UNK         0.5000 
     73 O          -0.6816  -26.7401  -44.6760 O.2       12 UNK        -0.5000 
     74 N          -0.3949  -24.9584  -46.0409 N.am      13 UNK        -0.5000 
     75 CA         -0.3559  -25.6557  -47.3304 C.3       13 UNK         0.1400 
     76 CB          0.3837  -24.7646  -48.3449 C.3       13 UNK        -0.1800 
     77 C          -1.7549  -26.0816  -47.8411 C.2       13 UNK         0.5000 
     78 O          -1.9769  -26.1149  -49.0528 O.2       13 UNK        -0.5000 
     79 N          -2.6776  -26.3784  -46.9127 N.am      14 UNK        -0.5000 
     80 CA         -4.0840  -26.7397  -47.1101 C.3       14 UNK         0.1400 
     81 CB         -4.1950  -28.1631  -47.6922 C.3       14 UNK        -0.1800 
     82 C          -4.8555  -25.6730  -47.9136 C.2       14 UNK         0.5000 
     83 O          -5.5843  -26.0063  -48.8493 O.2       14 UNK        -0.5000 
     84 N          -4.6413  -24.4035  -47.5331 N.am      15 UNK        -0.5000 
     85 CA         -5.0953  -23.1864  -48.2130 C.3       15 UNK         0.1400 
     86 CB         -6.6243  -23.0232  -48.0989 C.3       15 UNK        -0.1800 
     87 C          -4.5722  -23.1158  -49.6625 C.2       15 UNK         0.5000 
     88 O          -5.3599  -23.0229  -50.6054 O.2       15 UNK        -0.5000 
     89 N          -3.2382  -23.1976  -49.7866 N.am      16 UNK        -0.5000 
     90 CA         -2.4396  -23.2166  -51.0161 C.3       16 UNK         0.1400 
     91 CB         -2.2948  -21.7882  -51.5757 C.3       16 UNK        -0.1800 
     92 C          -2.9628  -24.2198  -52.0643 C.2       16 UNK         0.5000 
     93 O          -3.2619  -23.8312  -53.1963 O.2       16 UNK        -0.5000 
     94 N          -3.0968  -25.4879  -51.6522 N.am      17 UNK        -0.5000 
     95 CA         -3.6351  -26.5828  -52.4613 C.3       17 UNK         0.1400 
     96 CB         -3.6456  -27.8744  -51.6336 C.3       17 UNK        -0.1800 
     97 C          -2.8687  -26.7829  -53.7817 C.2       17 UNK         0.5000 
     98 O          -1.6378  -26.7102  -53.7943 O.2       17 UNK        -0.5000 
     99 N          -3.6239  -26.9853  -54.8697 N.am      18 UNK        -0.5000 
    100 CA        -3.2093  -27.0872  -56.2772 C.3       18 UNK         0.1400 
    101 CB        -2.2131  -28.2420  -56.4974 C.3       18 UNK        -0.1800 
    102 C         -2.6859  -25.7705  -56.8913 C.2       18 UNK         0.5000 
    103 O         -2.9398  -25.5210  -58.0704 O.2       18 UNK        -0.5000 
    104 N         -1.9855  -24.9480  -56.1005 N.am      19 UNK        -0.5000 
    105 CA        -1.4703  -23.6372  -56.4929 C.3       19 UNK         0.1400 
    106 CB        -0.4231  -23.1757  -55.4668 C.3       19 UNK        -0.1800 
    107 C         -2.5824  -22.5838  -56.6438 C.2       19 UNK         0.5000 
    108 O         -2.5442  -21.8013  -57.5940 O.2       19 UNK        -0.5000 
    109 N         -3.5407  -22.5862  -55.7023 N.am      20 UNK        -0.5000 
    110 CA        -4.6722  -21.6580  -55.5781 C.3       20 UNK         0.1400 
    111 CB        -5.6812  -21.8719  -56.7252 C.3       20 UNK        -0.1800 
    112 C         -4.2158  -20.1894  -55.4325 C.2       20 UNK         0.5000 
    113 O         -4.7919  -19.2879  -56.0432 O.2       20 UNK        -0.5000 
    114 N         -3.1547  -19.9889  -54.6400 N.am      21 UNK        -0.5000 
    115 CA        -2.4347  -18.7221  -54.4942 C.3       21 UNK         0.1400 
    116 CB        -1.0294  -19.0265  -53.9483 C.3       21 UNK        -0.1800 
    117 C         -3.1400  -17.6729  -53.6103 C.2       21 UNK         0.5000 
    118 O         -2.6686  -16.5361  -53.5528 O.2       21 UNK        -0.5000 
    119 N         -4.2151  -18.0620  -52.9124 N.am      22 UNK        -0.5000 
    120 CA        -4.9723  -17.2049  -51.9859 C.3       22 UNK         0.1400 
    121 C         -5.6379  -15.9792  -52.6750 C.2       22 UNK         0.5000 
    122 N         -5.6743  -14.8295  -52.0147 N.am      22 UNK        -0.7600 
    123 O         -6.1649  -16.0739  -53.7812 O.2       22 UNK        -0.5000 
    124 C124       -6.0363  -17.9966  -51.1781 C.3       23 UNK        -0.0398 
    125 S125       -5.5028  -19.5989  -50.4797 S.3       23 UNK        -0.2404 
    126 C126       -3.9452  -19.2266  -49.6158 C.3       23 UNK        -0.0205 
    127 H127       -2.4205   -7.9993  -48.0620 H         1 UNK         0.0600 
    128 H128       -4.0352   -8.4026  -48.6515 H         1 UNK         0.0600 
    129 H129       -2.7530   -7.9941  -49.7962 H         1 UNK         0.0600 
    130 H130       -1.2891   -9.8048  -47.4093 H         1 UNK         0.3000 
    131 H131       -1.2997  -12.2579  -49.0269 H         1 UNK         0.0600 
    132 H132       -3.0712  -12.3058  -47.0445 H         1 UNK         0.0800 
    133 H133       -1.6924  -12.5397  -46.0176 H         1 UNK         0.0800 
    134 H134       -4.0389  -14.4607  -46.0614 H         1 UNK         0.0800 
    135 H135       -4.4812  -14.3612  -47.7516 H         1 UNK         0.0800 
    136 H136       -3.5618  -16.5521  -49.1636 H         1 UNK         0.1150 
    137 H137       -4.7844  -20.1661  -47.2120 H         1 UNK         0.1150 
    138 H138       -4.6208  -16.4957  -45.0147 H         1 UNK         0.1150 
    139 H139       -6.0800  -18.5824  -44.3123 H         1 UNK         0.0800 
    140 H140       -5.6088  -20.1284  -44.9590 H         1 UNK         0.0800 
    141 H141       -4.2465  -21.5361  -42.9904 H         1 UNK         0.0800 
    142 H142       -2.6043  -21.0378  -42.7071 H         1 UNK         0.0800 
    143 H143       -3.8677  -21.6506  -45.4242 H         1 UNK         0.0600 
    144 H144       -1.5389  -20.0893  -45.0249 H         1 UNK         0.3000 
    145 H145        0.1822  -21.0922  -48.0341 H         1 UNK         0.0600 
    146 H146       -1.1860  -18.4934  -47.1685 H         1 UNK         0.0600 
    147 H147        0.2411  -18.5806  -48.1989 H         1 UNK         0.0600 
    148 H148       -1.2730  -19.2728  -48.7424 H         1 UNK         0.0600 
    149 H149        0.9380  -19.3306  -45.9255 H         1 UNK         0.3000 
    150 H150        2.6154  -21.8015  -43.9239 H         1 UNK         0.0600 
    151 H151        4.2070  -21.1565  -45.7350 H         1 UNK         0.0600 
    152 H152        4.4814  -20.2185  -44.2743 H         1 UNK         0.0600 
    153 H153        3.6505  -19.4899  -45.6463 H         1 UNK         0.0600 
    154 H154        2.3432  -18.9953  -43.5774 H         1 UNK         0.3000 
    155 H155       -0.7657  -19.0647  -41.7747 H         1 UNK         0.0600 
    156 H156        1.0866  -19.5451  -40.1575 H         1 UNK         0.0600 
    157 H157        0.6566  -17.8415  -40.1666 H         1 UNK         0.0600 
    158 H158        2.1177  -18.3858  -40.9880 H         1 UNK         0.0600 
    159 H159        0.7834  -16.8402  -42.4745 H         1 UNK         0.3000 
    160 H160       -0.6397  -16.2574  -45.7459 H         1 UNK         0.0600 
    161 H161       -0.8364  -14.0615  -44.5238 H         1 UNK         0.0600 
    162 H162       -0.6671  -14.9024  -42.9902 H         1 UNK         0.0600 
    163 H163       -2.0596  -15.2197  -44.0192 H         1 UNK         0.0600 
    164 H164        1.4650  -14.8951  -44.4691 H         1 UNK         0.3000 
    165 H165        4.1988  -16.8619  -45.7087 H         1 UNK         0.0600 
    166 H166        3.2262  -14.0003  -46.2139 H         1 UNK         0.0600 
    167 H167        4.8848  -14.5710  -46.3872 H         1 UNK         0.0600 
    168 H168        3.6253  -15.1801  -47.4510 H         1 UNK         0.0600 
    169 H169        3.9866  -14.6145  -43.9223 H         1 UNK         0.3000 
    170 H170        3.8893  -16.4818  -40.8916 H         1 UNK         0.0600 
    171 H171        6.1396  -14.8490  -42.1876 H         1 UNK         0.0600 
    172 H172        5.9464  -15.1667  -40.4634 H         1 UNK         0.0600 
    173 H173        6.2941  -16.4882  -41.5668 H         1 UNK         0.0600 
    174 H174        4.0718  -13.6780  -41.4954 H         1 UNK         0.3000 
    175 H175        0.5656  -13.0450  -41.6191 H         1 UNK         0.0600 
    176 H176        2.6798  -12.3349  -39.5148 H         1 UNK         0.0600 
    177 H177        1.1666  -11.4752  -39.8030 H         1 UNK         0.0600 
    178 H178        1.1393  -13.1193  -39.1866 H         1 UNK         0.0600 
    179 H179        2.7602  -11.2663  -41.7755 H         1 UNK         0.3000 
    180 H180        2.9037  -10.1459  -43.9117 H         1 UNK         0.0600 
    181 H181        4.8922  -12.3879  -44.6484 H         1 UNK         0.0600 
    182 H182        4.9620  -11.4324  -43.1718 H         1 UNK         0.0600 
    183 H183        5.2272  -10.6608  -44.7224 H         1 UNK         0.0600 
    184 H184        2.1413  -11.9771  -45.9805 H         1 UNK         0.3000 
    185 H185        2.6255   -9.5908  -48.6415 H         1 UNK         0.0600 
    186 H186        3.0129  -11.7198  -49.8229 H         1 UNK         0.0600 
    187 H187        4.3652  -11.3456  -48.7658 H         1 UNK         0.0600 
    188 H188        3.2045  -12.5753  -48.2952 H         1 UNK         0.0600 
    189 H189        0.5025  -10.0682  -48.6740 H         1 UNK         0.3000 
    190 H190       -0.8036  -22.4700  -43.7382 H         1 UNK         0.3000 
    191 H191       -1.4639  -25.0773  -42.9496 H         1 UNK         0.0600 
    192 H192        1.2789  -23.8473  -43.5341 H         1 UNK         0.0600 
    193 H193        0.4196  -23.7906  -41.9954 H         1 UNK         0.0600 
    194 H194        1.0030  -25.3245  -42.6201 H         1 UNK         0.0600 
    195 H195       -0.2877  -23.9515  -46.0757 H         1 UNK         0.3000 
    196 H196        0.2247  -26.5719  -47.2078 H         1 UNK         0.0600 
    197 H197        1.3815  -24.5082  -47.9885 H         1 UNK         0.0600 
    198 H198       -0.1536  -23.8337  -48.5267 H         1 UNK         0.0600 
    199 H199        0.5052  -25.2698  -49.3039 H         1 UNK         0.0600 
    200 H200       -2.3781  -26.3265  -45.9477 H         1 UNK         0.3000 
    201 H201       -4.5412  -26.7548  -46.1196 H         1 UNK         0.0600 
    202 H202       -5.2362  -28.4523  -47.8391 H         1 UNK         0.0600 
    203 H203       -3.7493  -28.8944  -47.0180 H         1 UNK         0.0600 
    204 H204       -3.6874  -28.2491  -48.6514 H         1 UNK         0.0600 
    205 H205       -4.0322  -24.2574  -46.7340 H         1 UNK         0.3000 
    206 H206       -4.6395  -22.3534  -47.6809 H         1 UNK         0.0600 
    207 H207       -6.9448  -23.0361  -47.0573 H         1 UNK         0.0600 
    208 H208       -7.1595  -23.8138  -48.6254 H         1 UNK         0.0600 
    209 H209       -6.9438  -22.0718  -48.5260 H         1 UNK         0.0600 
    210 H210       -2.7021  -23.2206  -48.9251 H         1 UNK         0.3000 
    211 H211       -1.4444  -23.5624  -50.7340 H         1 UNK         0.0600 
    212 H212       -1.8266  -21.1270  -50.8470 H         1 UNK         0.0600 
    213 H213       -1.6639  -21.7820  -52.4644 H         1 UNK         0.0600 
    214 H214       -3.2609  -21.3631  -51.8493 H         1 UNK         0.0600 
    215 H215       -2.7992  -25.7240  -50.7081 H         1 UNK         0.3000 
    216 H216       -4.6690  -26.3237  -52.6983 H         1 UNK         0.0600 
    217 H217       -3.9762  -28.7250  -52.2310 H         1 UNK         0.0600 
    218 H218       -2.6556  -28.1094  -51.2405 H         1 UNK         0.0600 
    219 H219       -4.3333  -27.7846  -50.7938 H         1 UNK         0.0600 
    220 H220       -4.6257  -27.0002  -54.7363 H         1 UNK         0.3000 
    221 H221       -4.1183  -27.3384  -56.8262 H         1 UNK         0.0600 
    222 H222       -1.2501  -28.0494  -56.0243 H         1 UNK         0.0600 
    223 H223       -2.6017  -29.1800  -56.1008 H         1 UNK         0.0600 
    224 H224       -2.0249  -28.3921  -57.5612 H         1 UNK         0.0600 
    225 H225       -1.8027  -25.2532  -55.1506 H         1 UNK         0.3000 
    226 H226       -0.9740  -23.7402  -57.4603 H         1 UNK         0.0600 
    227 H227        0.4145  -23.8718  -55.4202 H         1 UNK         0.0600 
    228 H228       -0.0190  -22.1980  -55.7326 H         1 UNK         0.0600 
    229 H229       -0.8460  -23.0959  -54.4651 H         1 UNK         0.0600 
    230 H230       -3.4401  -23.2380  -54.9254 H         1 UNK         0.3000 
    231 H231       -5.1751  -21.9144  -54.6443 H         1 UNK         0.0600 
    232 H232       -6.5810  -21.2756  -56.5701 H         1 UNK         0.0600 
    233 H233       -5.9905  -22.9152  -56.7870 H         1 UNK         0.0600 
    234 H234       -5.2635  -21.5884  -57.6916 H         1 UNK         0.0600 
    235 H235       -2.7508  -20.7917  -54.1815 H         1 UNK         0.3000 
    236 H236       -2.3220  -18.2807  -55.4867 H         1 UNK         0.0600 
    237 H237       -0.5071  -19.7492  -54.5756 H         1 UNK         0.0600 
    238 H238       -0.4175  -18.1240  -53.9195 H         1 UNK         0.0600 
    239 H239       -1.0688  -19.4243  -52.9340 H         1 UNK         0.0600 
    240 H240       -4.5480  -19.0076  -53.0214 H         1 UNK         0.3000 
    241 H241       -4.2414  -16.8103  -51.2811 H         1 UNK         0.0600 
    242 H242       -6.1184  -14.0339  -52.4466 H         1 UNK         0.3800 
    243 H243       -5.2568  -14.7246  -51.1034 H         1 UNK         0.3800 
    244 H244       -6.4093  -17.3836  -50.3557 H         1 UNK         0.0800 
    245 H245       -6.9021  -18.2083  -51.8082 H         1 UNK         0.0800 
    246 H246       -3.2512  -18.7116  -50.2802 H         1 UNK         0.0800 
    247 H247       -3.4675  -20.1739  -49.3648 H         1 UNK         0.0800 
@<TRIPOS>BOND
     1    1    2 1    
     2    1  127 1    
     3    1  128 1    
     4    1  129 1    
     5    2    3 2    
     6    2    4 am   BACKBONE|DICT|INTERRES
     7    4    5 1    
     8    4  130 1    
     9    5    6 1    
    10    5   65 1    
    11    5  131 1    
    12    6    7 1    
    13    6  132 1    
    14    6  133 1    
    15    7    8 1    
    16    8    9 1    
    17    8  134 1    
    18    8  135 1    
    19    9   10 ar   
    20    9   14 ar   
    21   10   11 ar   
    22   10  136 1    
    23   11   12 ar   
    24   11  126 1    
    25   12   13 ar   
    26   12  137 1    
    27   13   14 ar   
    28   13   15 1    
    29   14  138 1    
    30   15   16 1    
    31   15  139 1    
    32   15  140 1    
    33   16   17 1    
    34   17   18 1    
    35   17  141 1    
    36   17  142 1    
    37   18   19 1    
    38   18   67 1    
    39   18  143 1    
    40   19   20 am   BACKBONE|DICT|INTERRES
    41   19  144 1    
    42   20   21 2    
    43   20   22 1    
    44   22   23 1    
    45   22   24 1    
    46   22  145 1    
    47   23  146 1    
    48   23  147 1    
    49   23  148 1    
    50   24   25 am   BACKBONE|DICT|INTERRES
    51   24  149 1    
    52   25   26 2    
    53   25   27 1    
    54   27   28 1    
    55   27   29 1    
    56   27  150 1    
    57   28  151 1    
    58   28  152 1    
    59   28  153 1    
    60   29   30 am   BACKBONE|DICT|INTERRES
    61   29  154 1    
    62   30   31 2    
    63   30   32 1    
    64   32   33 1    
    65   32   34 1    
    66   32  155 1    
    67   33  156 1    
    68   33  157 1    
    69   33  158 1    
    70   34   35 am   BACKBONE|DICT|INTERRES
    71   34  159 1    
    72   35   36 2    
    73   35   37 1    
    74   37   38 1    
    75   37   39 1    
    76   37  160 1    
    77   38  161 1    
    78   38  162 1    
    79   38  163 1    
    80   39   40 am   BACKBONE|DICT|INTERRES
    81   39  164 1    
    82   40   41 2    
    83   40   42 1    
    84   42   43 1    
    85   42   44 1    
    86   42  165 1    
    87   43  166 1    
    88   43  167 1    
    89   43  168 1    
    90   44   45 am   BACKBONE|DICT|INTERRES
    91   44  169 1    
    92   45   46 2    
    93   45   47 1    
    94   47   48 1    
    95   47   49 1    
    96   47  170 1    
    97   48  171 1    
    98   48  172 1    
    99   48  173 1    
   100   49   50 am   BACKBONE|DICT|INTERRES
   101   49  174 1    
   102   50   51 2    
   103   50   52 1    
   104   52   53 1    
   105   52   54 1    
   106   52  175 1    
   107   53  176 1    
   108   53  177 1    
   109   53  178 1    
   110   54   55 am   BACKBONE|DICT|INTERRES
   111   54  179 1    
   112   55   56 2    
   113   55   57 1    
   114   57   58 1    
   115   57   59 1    
   116   57  180 1    
   117   58  181 1    
   118   58  182 1    
   119   58  183 1    
   120   59   60 am   BACKBONE|DICT|INTERRES
   121   59  184 1    
   122   60   61 2    
   123   60   62 1    
   124   62   63 1    
   125   62   64 1    
   126   62  185 1    
   127   63  186 1    
   128   63  187 1    
   129   63  188 1    
   130   64   65 am   BACKBONE|DICT|INTERRES
   131   64  189 1    
   132   65   66 2    
   133   67   68 2    
   134   67   69 am   BACKBONE|DICT|INTERRES
   135   69   70 1    
   136   69  190 1    
   137   70   71 1    
   138   70   72 1    
   139   70  191 1    
   140   71  192 1    
   141   71  193 1    
   142   71  194 1    
   143   72   73 2    
   144   72   74 am   BACKBONE|DICT|INTERRES
   145   74   75 1    
   146   74  195 1    
   147   75   76 1    
   148   75   77 1    
   149   75  196 1    
   150   76  197 1    
   151   76  198 1    
   152   76  199 1    
   153   77   78 2    
   154   77   79 am   BACKBONE|DICT|INTERRES
   155   79   80 1    
   156   79  200 1    
   157   80   81 1    
   158   80   82 1    
   159   80  201 1    
   160   81  202 1    
   161   81  203 1    
   162   81  204 1    
   163   82   83 2    
   164   82   84 am   BACKBONE|DICT|INTERRES
   165   84   85 1    
   166   84  205 1    
   167   85   86 1    
   168   85   87 1    
   169   85  206 1    
   170   86  207 1    
   171   86  208 1    
   172   86  209 1    
   173   87   88 2    
   174   87   89 am   BACKBONE|DICT|INTERRES
   175   89   90 1    
   176   89  210 1    
   177   90   91 1    
   178   90   92 1    
   179   90  211 1    
   180   91  212 1    
   181   91  213 1    
   182   91  214 1    
   183   92   93 2    
   184   92   94 am   BACKBONE|DICT|INTERRES
   185   94   95 1    
   186   94  215 1    
   187   95   96 1    
   188   95   97 1    
   189   95  216 1    
   190   96  217 1    
   191   96  218 1    
   192   96  219 1    
   193   97   98 2    
   194   97   99 am   BACKBONE|DICT|INTERRES
   195   99  100 1    
   196   99  220 1    
   197  100  101 1    
   198  100  102 1    
   199  100  221 1    
   200  101  222 1    
   201  101  223 1    
   202  101  224 1    
   203  102  103 2    
   204  102  104 am   BACKBONE|DICT|INTERRES
   205  104  105 1    
   206  104  225 1    
   207  105  106 1    
   208  105  107 1    
   209  105  226 1    
   210  106  227 1    
   211  106  228 1    
   212  106  229 1    
   213  107  108 2    
   214  107  109 am   BACKBONE|DICT|INTERRES
   215  109  110 1    
   216  109  230 1    
   217  110  111 1    
   218  110  112 1    
   219  110  231 1    
   220  111  232 1    
   221  111  233 1    
   222  111  234 1    
   223  112  113 2    
   224  112  114 am   BACKBONE|DICT|INTERRES
   225  114  115 1    
   226  114  235 1    
   227  115  116 1    
   228  115  117 1    
   229  115  236 1    
   230  116  237 1    
   231  116  238 1    
   232  116  239 1    
   233  117  118 2    
   234  117  119 am   BACKBONE|DICT|INTERRES
   235  119  120 1    
   236  119  240 1    
   237  120  121 1    
   238  120  124 1    
   239  120  241 1    
   240  121  122 am   BACKBONE|DICT|INTERRES
   241  121  123 2    
   242  122  242 1    
   243  122  243 1    
   244  124  125 1    
   245  124  244 1    
   246  124  245 1    
   247  125  126 1    
   248  126  246 1    
   249  126  247 1    
@<TRIPOS>SUBSTRUCTURE
     1 UNK         1 GROUP             0       ****    0 ROOT    
