@<TRIPOS>MOLECULE
3R540
247   249    1
SMALL
USER_CHARGES


@<TRIPOS>ATOM
      1 CA          4.6094  -12.4435  -46.8527 C.3       0 UNK        -0.1800 
      2 C           3.1375  -12.7668  -46.6486 C.2       0 UNK         0.5000 
      3 O           2.6445  -12.6937  -45.5237 O.2       0 UNK        -0.5000 
      4 N           2.4261  -13.1072  -47.7308 N.am      1 UNK        -0.5000 
      5 CA          1.0147  -13.5240  -47.7357 C.3       1 UNK         0.1400 
      6 C6          0.5558  -14.0200  -49.1293 C.3       23 UNK        -0.0398 
      7 S7          1.6525  -15.2936  -49.8402 S.3       23 UNK        -0.2404 
      8 C8          0.6774  -16.8070  -49.5923 C.3       23 UNK        -0.0205 
      9 C9          1.3575  -17.9884  -50.2633 C.ar      23 UNK        -0.0193 
     10 C10         1.0314  -18.3368  -51.5782 C.ar      23 UNK        -0.1150 
     11 C11         1.6750  -19.4070  -52.2072 C.ar      23 UNK        -0.0193 
     12 C12         2.6451  -20.1305  -51.5103 C.ar      23 UNK        -0.1150 
     13 C13         2.9810  -19.7905  -50.1984 C.ar      23 UNK        -0.0193 
     14 C14         2.3340  -18.7171  -49.5786 C.ar      23 UNK        -0.1150 
     15 C15         4.0608  -20.5762  -49.4720 C.3       23 UNK        -0.0205 
     16 S16         3.4179  -22.1388  -48.7990 S.3       23 UNK        -0.2404 
     17 C17         2.5375  -21.5306  -47.3268 C.3       23 UNK        -0.0398 
     18 CA          1.2728  -22.3454  -46.9807 C.3       11 UNK         0.1400 
     19 N           0.9141  -22.1633  -45.5738 N.am      11 UNK        -0.5000 
     20 C          -0.0085  -22.8759  -44.9166 C.2       10 UNK         0.5000 
     21 O          -0.6397  -23.8061  -45.4171 O.2       10 UNK        -0.5000 
     22 CA         -0.2992  -22.4480  -43.4675 C.3       10 UNK         0.1400 
     23 CB          0.7150  -23.0810  -42.5038 C.3       10 UNK        -0.1800 
     24 N          -0.2988  -20.9931  -43.2990 N.am      10 UNK        -0.5000 
     25 C          -1.1810  -20.1632  -43.8755 C.2       9 UNK         0.5000 
     26 O          -2.1065  -20.5423  -44.5914 O.2       9 UNK        -0.5000 
     27 CA         -0.9654  -18.6550  -43.6581 C.3       9 UNK         0.1400 
     28 CB         -1.3346  -18.2573  -42.2195 C.3       9 UNK        -0.1800 
     29 N           0.4072  -18.2449  -43.9542 N.am      9 UNK        -0.5000 
     30 C           1.0122  -18.3670  -45.1449 C.2       8 UNK         0.5000 
     31 O           0.4502  -18.7677  -46.1624 O.2       8 UNK        -0.5000 
     32 CA          2.5186  -18.0565  -45.1980 C.3       8 UNK         0.1400 
     33 CB          2.7978  -16.6087  -45.6296 C.3       8 UNK        -0.1800 
     34 N           3.1935  -18.3556  -43.9330 N.am      8 UNK        -0.5000 
     35 C           3.4055  -19.6043  -43.4935 C.2       7 UNK         0.5000 
     36 O           3.0434  -20.6115  -44.1036 O.2       7 UNK        -0.5000 
     37 CA          4.1167  -19.7533  -42.1382 C.3       7 UNK         0.1400 
     38 CB          5.5692  -19.2565  -42.2168 C.3       7 UNK        -0.1800 
     39 N           3.4283  -19.0784  -41.0362 N.am      7 UNK        -0.5000 
     40 C           2.2044  -19.4002  -40.5895 C.2       6 UNK         0.5000 
     41 O           1.4756  -20.2284  -41.1330 O.2       6 UNK        -0.5000 
     42 CA          1.7079  -18.6791  -39.3269 C.3       6 UNK         0.1400 
     43 CB          2.3920  -19.2432  -38.0713 C.3       6 UNK        -0.1800 
     44 N           1.9651  -17.2444  -39.4224 N.am      6 UNK        -0.5000 
     45 C           1.0210  -16.2978  -39.4522 C.2       5 UNK         0.5000 
     46 O          -0.1784  -16.5132  -39.2676 O.2       5 UNK        -0.5000 
     47 CA          1.4808  -14.8600  -39.7769 C.3       5 UNK         0.1400 
     48 CB          3.0148  -14.6722  -39.8104 C.3       5 UNK        -0.1800 
     49 N           0.8943  -14.3859  -41.0324 N.am      5 UNK        -0.5000 
     50 C           0.9475  -14.9813  -42.2318 C.2       4 UNK         0.5000 
     51 O           1.5423  -16.0389  -42.4472 O.2       4 UNK        -0.5000 
     52 CA          0.2409  -14.2643  -43.3974 C.3       4 UNK         0.1400 
     53 CB         -1.2904  -14.4114  -43.3313 C.3       4 UNK        -0.1800 
     54 N           0.6419  -12.8635  -43.5480 N.am      4 UNK        -0.5000 
     55 C           0.3845  -11.8089  -42.7607 C.2       3 UNK         0.5000 
     56 O          -0.2597  -11.8654  -41.7123 O.2       3 UNK        -0.5000 
     57 CA          0.9446  -10.4594  -43.2401 C.3       3 UNK         0.1400 
     58 CB          2.4206  -10.3118  -42.8388 C.3       3 UNK        -0.1800 
     59 N           0.8187  -10.3292  -44.6921 N.am      3 UNK        -0.5000 
     60 C          -0.2889   -9.9062  -45.3175 C.2       2 UNK         0.5000 
     61 O          -1.2818   -9.4707  -44.7333 O.2       2 UNK        -0.5000 
     62 CA         -0.2965   -9.9972  -46.8559 C.3       2 UNK         0.1400 
     63 CB          0.2887   -8.7191  -47.4757 C.3       2 UNK        -0.1800 
     64 N           0.4411  -11.1569  -47.3602 N.am      2 UNK        -0.5000 
     65 C           0.0482  -12.4324  -47.2240 C.2       1 UNK         0.5000 
     66 O          -1.0196  -12.7661  -46.7109 O.2       1 UNK        -0.5000 
     67 C           0.0858  -22.0409  -47.9247 C.2       11 UNK         0.5000 
     68 O          -0.1820  -22.8248  -48.8357 O.2       11 UNK        -0.5000 
     69 N          -0.6472  -20.9503  -47.6534 N.am      12 UNK        -0.5000 
     70 CA         -1.8828  -20.5958  -48.3512 C.3       12 UNK         0.1400 
     71 CB         -2.2995  -19.1646  -47.9849 C.3       12 UNK        -0.1800 
     72 C          -3.0251  -21.5862  -48.0648 C.2       12 UNK         0.5000 
     73 O          -3.7437  -21.9576  -48.9927 O.2       12 UNK        -0.5000 
     74 N          -3.1627  -22.0267  -46.8048 N.am      13 UNK        -0.5000 
     75 CA         -4.1384  -23.0319  -46.3697 C.3       13 UNK         0.1400 
     76 CB         -4.0993  -23.1869  -44.8433 C.3       13 UNK        -0.1800 
     77 C          -3.9489  -24.3924  -47.0646 C.2       13 UNK         0.5000 
     78 O          -4.9376  -25.0110  -47.4586 O.2       13 UNK        -0.5000 
     79 N          -2.6871  -24.7966  -47.2692 N.am      14 UNK        -0.5000 
     80 CA         -2.2978  -25.9787  -48.0436 C.3       14 UNK         0.1400 
     81 CB         -0.7947  -26.2351  -47.8591 C.3       14 UNK        -0.1800 
     82 C          -2.6593  -25.8818  -49.5417 C.2       14 UNK         0.5000 
     83 O          -2.8478  -26.9152  -50.1834 O.2       14 UNK        -0.5000 
     84 N          -2.8044  -24.6538  -50.0581 N.am      15 UNK        -0.5000 
     85 CA         -3.3075  -24.3367  -51.3957 C.3       15 UNK         0.1400 
     86 CB         -2.4999  -23.1589  -51.9672 C.3       15 UNK        -0.1800 
     87 C          -4.8251  -24.0479  -51.3764 C.2       15 UNK         0.5000 
     88 O          -5.3080  -23.2415  -52.1756 O.2       15 UNK        -0.5000 
     89 N          -5.5507  -24.7002  -50.4555 N.am      16 UNK        -0.5000 
     90 CA         -7.0012  -24.6412  -50.2490 C.3       16 UNK         0.1400 
     91 CB         -7.7424  -25.2396  -51.4638 C.3       16 UNK        -0.1800 
     92 C          -7.5031  -23.2359  -49.8562 C.2       16 UNK         0.5000 
     93 O          -8.5723  -22.8187  -50.2991 O.2       16 UNK        -0.5000 
     94 N          -6.7058  -22.5305  -49.0404 N.am      17 UNK        -0.5000 
     95 CA         -6.8675  -21.1265  -48.6388 C.3       17 UNK         0.1400 
     96 CB         -8.1678  -20.9066  -47.8375 C.3       17 UNK        -0.1800 
     97 C          -6.7092  -20.1790  -49.8448 C.2       17 UNK         0.5000 
     98 O          -7.5115  -19.2631  -50.0329 O.2       17 UNK        -0.5000 
     99 N          -5.6667  -20.4514  -50.6442 N.am      18 UNK        -0.5000 
    100 CA        -5.3015  -19.7926  -51.9011 C.3       18 UNK         0.1400 
    101 CB        -4.8054  -18.3566  -51.6368 C.3       18 UNK        -0.1800 
    102 C         -6.4079  -19.8751  -52.9766 C.2       18 UNK         0.5000 
    103 O         -6.6265  -18.9141  -53.7165 O.2       18 UNK        -0.5000 
    104 N         -7.0824  -21.0302  -53.0426 N.am      19 UNK        -0.5000 
    105 CA        -8.0987  -21.3486  -54.0482 C.3       19 UNK         0.1400 
    106 CB        -9.3209  -21.9731  -53.3597 C.3       19 UNK        -0.1800 
    107 C         -7.5531  -22.2904  -55.1369 C.2       19 UNK         0.5000 
    108 O         -8.1651  -22.3868  -56.2021 O.2       19 UNK        -0.5000 
    109 N         -6.4244  -22.9631  -54.8652 N.am      20 UNK        -0.5000 
    110 CA        -5.6844  -23.7879  -55.8193 C.3       20 UNK         0.1400 
    111 CB        -4.9556  -24.9058  -55.0467 C.3       20 UNK        -0.1800 
    112 C         -4.7429  -22.9120  -56.6780 C.2       20 UNK         0.5000 
    113 O         -5.1118  -21.7968  -57.0534 O.2       20 UNK        -0.5000 
    114 N         -3.5322  -23.4102  -56.9691 N.am      21 UNK        -0.5000 
    115 CA        -2.5121  -22.7508  -57.7960 C.3       21 UNK         0.1400 
    116 CB        -1.3004  -23.6859  -57.9304 C.3       21 UNK        -0.1800 
    117 C         -2.0656  -21.3651  -57.2835 C.2       21 UNK         0.5000 
    118 O         -1.6724  -20.5193  -58.0880 O.2       21 UNK        -0.5000 
    119 N         -2.1569  -21.1559  -55.9650 N.am      22 UNK        -0.5000 
    120 CA        -1.9111  -19.8689  -55.2955 C.3       22 UNK         0.1400 
    121 C         -3.1082  -18.8753  -55.3641 C.2       22 UNK         0.5000 
    122 N         -4.2664  -19.2461  -55.8965 N.am      22 UNK        -0.7600 
    123 O         -2.9793  -17.7356  -54.9274 O.2       22 UNK        -0.5000 
    124 C124       -1.4385  -20.0655  -53.8321 C.3       23 UNK        -0.0398 
    125 S125        0.0798  -21.0721  -53.7339 S.3       23 UNK        -0.2404 
    126 C126        1.3536  -19.7776  -53.6458 C.3       23 UNK        -0.0205 
    127 H127        5.2254  -13.1252  -46.2664 H         1 UNK         0.0600 
    128 H128        4.8182  -11.4253  -46.5247 H         1 UNK         0.0600 
    129 H129        4.9028  -12.5327  -47.8989 H         1 UNK         0.0600 
    130 H130        2.8894  -13.1588  -48.6273 H         1 UNK         0.3000 
    131 H131        0.9307  -14.3619  -47.0407 H         1 UNK         0.0600 
    132 H132       -0.4628  -14.4095  -49.0796 H         1 UNK         0.0800 
    133 H133        0.5242  -13.1881  -49.8355 H         1 UNK         0.0800 
    134 H134        0.5591  -16.9966  -48.5239 H         1 UNK         0.0800 
    135 H135       -0.3257  -16.6733  -50.0004 H         1 UNK         0.0800 
    136 H136        0.2890  -17.7637  -52.1150 H         1 UNK         0.1150 
    137 H137        3.1446  -20.9594  -51.9922 H         1 UNK         0.1150 
    138 H138        2.5965  -18.4358  -48.5688 H         1 UNK         0.1150 
    139 H139        4.8727  -20.8007  -50.1654 H         1 UNK         0.0800 
    140 H140        4.5030  -19.9811  -48.6713 H         1 UNK         0.0800 
    141 H141        2.2917  -20.4751  -47.4298 H         1 UNK         0.0800 
    142 H142        3.2547  -21.5909  -46.5079 H         1 UNK         0.0800 
    143 H143        1.5134  -23.4043  -47.0992 H         1 UNK         0.0600 
    144 H144        1.4220  -21.4488  -45.0633 H         1 UNK         0.3000 
    145 H145       -1.2919  -22.8153  -43.2021 H         1 UNK         0.0600 
    146 H146        0.4630  -22.8589  -41.4667 H         1 UNK         0.0600 
    147 H147        0.7313  -24.1665  -42.6094 H         1 UNK         0.0600 
    148 H148        1.7263  -22.7158  -42.6870 H         1 UNK         0.0600 
    149 H149        0.4221  -20.6103  -42.6926 H         1 UNK         0.3000 
    150 H150       -1.6249  -18.1176  -44.3426 H         1 UNK         0.0600 
    151 H151       -2.3838  -18.4738  -42.0154 H         1 UNK         0.0600 
    152 H152       -1.1826  -17.1947  -42.0400 H         1 UNK         0.0600 
    153 H153       -0.7430  -18.7976  -41.4816 H         1 UNK         0.0600 
    154 H154        0.9423  -17.8439  -43.1920 H         1 UNK         0.3000 
    155 H155        2.9484  -18.7034  -45.9649 H         1 UNK         0.0600 
    156 H156        2.2711  -16.3680  -46.5537 H         1 UNK         0.0600 
    157 H157        2.4919  -15.8867  -44.8757 H         1 UNK         0.0600 
    158 H158        3.8605  -16.4561  -45.8174 H         1 UNK         0.0600 
    159 H159        3.4515  -17.5710  -43.3510 H         1 UNK         0.3000 
    160 H160        4.1430  -20.8197  -41.9038 H         1 UNK         0.0600 
    161 H161        5.6231  -18.1796  -42.3808 H         1 UNK         0.0600 
    162 H162        6.1038  -19.7405  -43.0353 H         1 UNK         0.0600 
    163 H163        6.1122  -19.4825  -41.2989 H         1 UNK         0.0600 
    164 H164        3.9703  -18.3955  -40.5312 H         1 UNK         0.3000 
    165 H165        0.6370  -18.8757  -39.2428 H         1 UNK         0.0600 
    166 H166        1.9931  -18.7809  -37.1682 H         1 UNK         0.0600 
    167 H167        2.2264  -20.3180  -37.9862 H         1 UNK         0.0600 
    168 H168        3.4695  -19.0756  -38.0837 H         1 UNK         0.0600 
    169 H169        2.9147  -16.9600  -39.6069 H         1 UNK         0.3000 
    170 H170        1.0841  -14.2234  -38.9849 H         1 UNK         0.0600 
    171 H171        3.4864  -15.2526  -40.6043 H         1 UNK         0.0600 
    172 H172        3.2706  -13.6258  -39.9779 H         1 UNK         0.0600 
    173 H173        3.4703  -14.9621  -38.8627 H         1 UNK         0.0600 
    174 H174        0.3764  -13.5130  -40.9822 H         1 UNK         0.3000 
    175 H175        0.5640  -14.7524  -44.3169 H         1 UNK         0.0600 
    176 H176       -1.7735  -13.8425  -44.1260 H         1 UNK         0.0600 
    177 H177       -1.6968  -14.0680  -42.3796 H         1 UNK         0.0600 
    178 H178       -1.5864  -15.4515  -43.4607 H         1 UNK         0.0600 
    179 H179        1.2712  -12.7021  -44.3318 H         1 UNK         0.3000 
    180 H180        0.3796   -9.6633  -42.7505 H         1 UNK         0.0600 
    181 H181        3.0454  -11.0800  -43.2959 H         1 UNK         0.0600 
    182 H182        2.5399  -10.3930  -41.7576 H         1 UNK         0.0600 
    183 H183        2.8136   -9.3397  -43.1371 H         1 UNK         0.0600 
    184 H184        1.5710  -10.7157  -45.2461 H         1 UNK         0.3000 
    185 H185       -1.3361  -10.0875  -47.1783 H         1 UNK         0.0600 
    186 H186        0.2215   -8.7416  -48.5635 H         1 UNK         0.0600 
    187 H187       -0.2550   -7.8366  -47.1358 H         1 UNK         0.0600 
    188 H188        1.3368   -8.5830  -47.2059 H         1 UNK         0.0600 
    189 H189        1.3314  -10.9754  -47.8004 H         1 UNK         0.3000 
    190 H190       -0.3432  -20.3142  -46.9208 H         1 UNK         0.3000 
    191 H191       -1.6826  -20.6234  -49.4246 H         1 UNK         0.0600 
    192 H192       -1.5314  -18.4474  -48.2728 H         1 UNK         0.0600 
    193 H193       -3.2194  -18.8810  -48.4978 H         1 UNK         0.0600 
    194 H194       -2.4716  -19.0558  -46.9136 H         1 UNK         0.0600 
    195 H195       -2.5778  -21.6199  -46.0790 H         1 UNK         0.3000 
    196 H196       -5.1299  -22.6630  -46.6335 H         1 UNK         0.0600 
    197 H197       -4.8664  -23.8839  -44.5040 H         1 UNK         0.0600 
    198 H198       -4.2823  -22.2355  -44.3438 H         1 UNK         0.0600 
    199 H199       -3.1389  -23.5686  -44.5004 H         1 UNK         0.0600 
    200 H200       -1.9325  -24.2561  -46.8560 H         1 UNK         0.3000 
    201 H201       -2.8390  -26.8340  -47.6342 H         1 UNK         0.0600 
    202 H202       -0.5439  -26.3705  -46.8068 H         1 UNK         0.0600 
    203 H203       -0.1946  -25.4098  -48.2418 H         1 UNK         0.0600 
    204 H204       -0.4845  -27.1381  -48.3864 H         1 UNK         0.0600 
    205 H205       -2.6526  -23.8582  -49.4510 H         1 UNK         0.3000 
    206 H206       -3.1573  -25.1919  -52.0571 H         1 UNK         0.0600 
    207 H207       -1.4313  -23.3748  -51.9617 H         1 UNK         0.0600 
    208 H208       -2.7818  -22.9537  -53.0000 H         1 UNK         0.0600 
    209 H209       -2.6554  -22.2447  -51.3947 H         1 UNK         0.0600 
    210 H210       -5.0524  -25.2897  -49.8024 H         1 UNK         0.3000 
    211 H211       -7.2120  -25.2805  -49.3906 H         1 UNK         0.0600 
    212 H212       -7.5740  -24.6594  -52.3708 H         1 UNK         0.0600 
    213 H213       -8.8186  -25.2759  -51.2915 H         1 UNK         0.0600 
    214 H214       -7.4131  -26.2601  -51.6585 H         1 UNK         0.0600 
    215 H215       -5.8218  -22.9526  -48.7880 H         1 UNK         0.3000 
    216 H216       -6.0400  -20.8956  -47.9680 H         1 UNK         0.0600 
    217 H217       -8.2003  -19.8985  -47.4229 H         1 UNK         0.0600 
    218 H218       -8.2382  -21.6033  -47.0024 H         1 UNK         0.0600 
    219 H219       -9.0575  -21.0303  -48.4551 H         1 UNK         0.0600 
    220 H220       -5.0635  -21.2175  -50.3635 H         1 UNK         0.3000 
    221 H221       -4.4607  -20.3596  -52.3016 H         1 UNK         0.0600 
    222 H222       -5.6017  -17.7171  -51.2555 H         1 UNK         0.0600 
    223 H223       -3.9908  -18.3486  -50.9128 H         1 UNK         0.0600 
    224 H224       -4.4281  -17.8977  -52.5510 H         1 UNK         0.0600 
    225 H225       -6.8156  -21.7758  -52.4101 H         1 UNK         0.3000 
    226 H226       -8.4317  -20.4367  -54.5476 H         1 UNK         0.0600 
    227 H227       -9.6989  -21.3293  -52.5652 H         1 UNK         0.0600 
    228 H228      -10.1333  -22.1247  -54.0712 H         1 UNK         0.0600 
    229 H229       -9.0869  -22.9429  -52.9227 H         1 UNK         0.0600 
    230 H230       -5.9964  -22.8494  -53.9519 H         1 UNK         0.3000 
    231 H231       -6.3908  -24.2635  -56.5025 H         1 UNK         0.0600 
    232 H232       -4.1492  -24.5118  -54.4282 H         1 UNK         0.0600 
    233 H233       -4.5283  -25.6454  -55.7247 H         1 UNK         0.0600 
    234 H234       -5.6435  -25.4396  -54.3902 H         1 UNK         0.0600 
    235 H235       -3.2967  -24.3283  -56.6213 H         1 UNK         0.3000 
    236 H236       -2.9422  -22.6038  -58.7887 H         1 UNK         0.0600 
    237 H237       -1.5821  -24.6361  -58.3845 H         1 UNK         0.0600 
    238 H238       -0.5312  -23.2410  -58.5633 H         1 UNK         0.0600 
    239 H239       -0.8463  -23.8963  -56.9612 H         1 UNK         0.0600 
    240 H240       -2.4799  -21.9118  -55.3816 H         1 UNK         0.3000 
    241 H241       -1.0977  -19.3705  -55.8264 H         1 UNK         0.0600 
    242 H242       -4.4055  -20.1697  -56.2947 H         1 UNK         0.3800 
    243 H243       -5.0324  -18.5912  -55.8961 H         1 UNK         0.3800 
    244 H244       -2.2148  -20.5565  -53.2463 H         1 UNK         0.0800 
    245 H245       -1.2626  -19.1055  -53.3454 H         1 UNK         0.0800 
    246 H246        2.2556  -20.1451  -54.1375 H         1 UNK         0.0800 
    247 H247        1.0430  -18.8978  -54.2115 H         1 UNK         0.0800 
@<TRIPOS>BOND
     1    1    2 1    
     2    1  127 1    
     3    1  128 1    
     4    1  129 1    
     5    2    3 2    
     6    2    4 am   BACKBONE|DICT|INTERRES
     7    4    5 1    
     8    4  130 1    
     9    5    6 1    
    10    5   65 1    
    11    5  131 1    
    12    6    7 1    
    13    6  132 1    
    14    6  133 1    
    15    7    8 1    
    16    8    9 1    
    17    8  134 1    
    18    8  135 1    
    19    9   10 ar   
    20    9   14 ar   
    21   10   11 ar   
    22   10  136 1    
    23   11   12 ar   
    24   11  126 1    
    25   12   13 ar   
    26   12  137 1    
    27   13   14 ar   
    28   13   15 1    
    29   14  138 1    
    30   15   16 1    
    31   15  139 1    
    32   15  140 1    
    33   16   17 1    
    34   17   18 1    
    35   17  141 1    
    36   17  142 1    
    37   18   19 1    
    38   18   67 1    
    39   18  143 1    
    40   19   20 am   BACKBONE|DICT|INTERRES
    41   19  144 1    
    42   20   21 2    
    43   20   22 1    
    44   22   23 1    
    45   22   24 1    
    46   22  145 1    
    47   23  146 1    
    48   23  147 1    
    49   23  148 1    
    50   24   25 am   BACKBONE|DICT|INTERRES
    51   24  149 1    
    52   25   26 2    
    53   25   27 1    
    54   27   28 1    
    55   27   29 1    
    56   27  150 1    
    57   28  151 1    
    58   28  152 1    
    59   28  153 1    
    60   29   30 am   BACKBONE|DICT|INTERRES
    61   29  154 1    
    62   30   31 2    
    63   30   32 1    
    64   32   33 1    
    65   32   34 1    
    66   32  155 1    
    67   33  156 1    
    68   33  157 1    
    69   33  158 1    
    70   34   35 am   BACKBONE|DICT|INTERRES
    71   34  159 1    
    72   35   36 2    
    73   35   37 1    
    74   37   38 1    
    75   37   39 1    
    76   37  160 1    
    77   38  161 1    
    78   38  162 1    
    79   38  163 1    
    80   39   40 am   BACKBONE|DICT|INTERRES
    81   39  164 1    
    82   40   41 2    
    83   40   42 1    
    84   42   43 1    
    85   42   44 1    
    86   42  165 1    
    87   43  166 1    
    88   43  167 1    
    89   43  168 1    
    90   44   45 am   BACKBONE|DICT|INTERRES
    91   44  169 1    
    92   45   46 2    
    93   45   47 1    
    94   47   48 1    
    95   47   49 1    
    96   47  170 1    
    97   48  171 1    
    98   48  172 1    
    99   48  173 1    
   100   49   50 am   BACKBONE|DICT|INTERRES
   101   49  174 1    
   102   50   51 2    
   103   50   52 1    
   104   52   53 1    
   105   52   54 1    
   106   52  175 1    
   107   53  176 1    
   108   53  177 1    
   109   53  178 1    
   110   54   55 am   BACKBONE|DICT|INTERRES
   111   54  179 1    
   112   55   56 2    
   113   55   57 1    
   114   57   58 1    
   115   57   59 1    
   116   57  180 1    
   117   58  181 1    
   118   58  182 1    
   119   58  183 1    
   120   59   60 am   BACKBONE|DICT|INTERRES
   121   59  184 1    
   122   60   61 2    
   123   60   62 1    
   124   62   63 1    
   125   62   64 1    
   126   62  185 1    
   127   63  186 1    
   128   63  187 1    
   129   63  188 1    
   130   64   65 am   BACKBONE|DICT|INTERRES
   131   64  189 1    
   132   65   66 2    
   133   67   68 2    
   134   67   69 am   BACKBONE|DICT|INTERRES
   135   69   70 1    
   136   69  190 1    
   137   70   71 1    
   138   70   72 1    
   139   70  191 1    
   140   71  192 1    
   141   71  193 1    
   142   71  194 1    
   143   72   73 2    
   144   72   74 am   BACKBONE|DICT|INTERRES
   145   74   75 1    
   146   74  195 1    
   147   75   76 1    
   148   75   77 1    
   149   75  196 1    
   150   76  197 1    
   151   76  198 1    
   152   76  199 1    
   153   77   78 2    
   154   77   79 am   BACKBONE|DICT|INTERRES
   155   79   80 1    
   156   79  200 1    
   157   80   81 1    
   158   80   82 1    
   159   80  201 1    
   160   81  202 1    
   161   81  203 1    
   162   81  204 1    
   163   82   83 2    
   164   82   84 am   BACKBONE|DICT|INTERRES
   165   84   85 1    
   166   84  205 1    
   167   85   86 1    
   168   85   87 1    
   169   85  206 1    
   170   86  207 1    
   171   86  208 1    
   172   86  209 1    
   173   87   88 2    
   174   87   89 am   BACKBONE|DICT|INTERRES
   175   89   90 1    
   176   89  210 1    
   177   90   91 1    
   178   90   92 1    
   179   90  211 1    
   180   91  212 1    
   181   91  213 1    
   182   91  214 1    
   183   92   93 2    
   184   92   94 am   BACKBONE|DICT|INTERRES
   185   94   95 1    
   186   94  215 1    
   187   95   96 1    
   188   95   97 1    
   189   95  216 1    
   190   96  217 1    
   191   96  218 1    
   192   96  219 1    
   193   97   98 2    
   194   97   99 am   BACKBONE|DICT|INTERRES
   195   99  100 1    
   196   99  220 1    
   197  100  101 1    
   198  100  102 1    
   199  100  221 1    
   200  101  222 1    
   201  101  223 1    
   202  101  224 1    
   203  102  103 2    
   204  102  104 am   BACKBONE|DICT|INTERRES
   205  104  105 1    
   206  104  225 1    
   207  105  106 1    
   208  105  107 1    
   209  105  226 1    
   210  106  227 1    
   211  106  228 1    
   212  106  229 1    
   213  107  108 2    
   214  107  109 am   BACKBONE|DICT|INTERRES
   215  109  110 1    
   216  109  230 1    
   217  110  111 1    
   218  110  112 1    
   219  110  231 1    
   220  111  232 1    
   221  111  233 1    
   222  111  234 1    
   223  112  113 2    
   224  112  114 am   BACKBONE|DICT|INTERRES
   225  114  115 1    
   226  114  235 1    
   227  115  116 1    
   228  115  117 1    
   229  115  236 1    
   230  116  237 1    
   231  116  238 1    
   232  116  239 1    
   233  117  118 2    
   234  117  119 am   BACKBONE|DICT|INTERRES
   235  119  120 1    
   236  119  240 1    
   237  120  121 1    
   238  120  124 1    
   239  120  241 1    
   240  121  122 am   BACKBONE|DICT|INTERRES
   241  121  123 2    
   242  122  242 1    
   243  122  243 1    
   244  124  125 1    
   245  124  244 1    
   246  124  245 1    
   247  125  126 1    
   248  126  246 1    
   249  126  247 1    
@<TRIPOS>SUBSTRUCTURE
     1 UNK         1 GROUP             0       ****    0 ROOT    
