@<TRIPOS>MOLECULE
3R540
247   249    1
SMALL
USER_CHARGES


@<TRIPOS>ATOM
      1 CA          5.6379  -22.6350  -48.8846 C.3       0 UNK        -0.1800 
      2 C           4.6748  -21.5780  -48.3637 C.2       0 UNK         0.5000 
      3 O           3.8493  -21.8748  -47.5018 O.2       0 UNK        -0.5000 
      4 N           4.7743  -20.3499  -48.8894 N.am      1 UNK        -0.5000 
      5 CA          3.9360  -19.2044  -48.5129 C.3       1 UNK         0.1400 
      6 C6          3.9213  -18.1492  -49.6495 C.3       23 UNK        -0.0398 
      7 S7          2.6333  -16.8644  -49.5057 S.3       23 UNK        -0.2404 
      8 C8          1.1163  -17.8328  -49.7543 C.3       23 UNK        -0.0205 
      9 C9         -0.1050  -16.9316  -49.8181 C.ar      23 UNK        -0.0193 
     10 C10        -0.6396  -16.5609  -51.0547 C.ar      23 UNK        -0.1150 
     11 C11        -1.7775  -15.7518  -51.1244 C.ar      23 UNK        -0.0193 
     12 C12        -2.3762  -15.3071  -49.9422 C.ar      23 UNK        -0.1150 
     13 C13        -1.8412  -15.6586  -48.6983 C.ar      23 UNK        -0.0193 
     14 C14        -0.7068  -16.4737  -48.6422 C.ar      23 UNK        -0.1150 
     15 C15        -2.4693  -15.1225  -47.4213 C.3       23 UNK        -0.0205 
     16 S16        -3.7286  -16.2454  -46.7420 S.3       23 UNK        -0.2404 
     17 C17        -2.7443  -17.3647  -45.6825 C.3       23 UNK        -0.0398 
     18 CA         -2.4259  -18.7359  -46.3262 C.3       11 UNK         0.1400 
     19 N          -1.3714  -19.4302  -45.5771 N.am      11 UNK        -0.5000 
     20 C          -0.7570  -20.5645  -45.9418 C.2       10 UNK         0.5000 
     21 O          -1.0094  -21.1782  -46.9770 O.2       10 UNK        -0.5000 
     22 CA          0.2707  -21.1397  -44.9571 C.3       10 UNK         0.1400 
     23 CB          1.6069  -20.3901  -45.0601 C.3       10 UNK        -0.1800 
     24 N          -0.2390  -21.0793  -43.5879 N.am      10 UNK        -0.5000 
     25 C          -1.0968  -21.9689  -43.0675 C.2       9 UNK         0.5000 
     26 O          -1.4738  -22.9785  -43.6624 O.2       9 UNK        -0.5000 
     27 CA         -1.6425  -21.6819  -41.6542 C.3       9 UNK         0.1400 
     28 CB         -0.7632  -22.3585  -40.5920 C.3       9 UNK        -0.1800 
     29 N          -1.7476  -20.2540  -41.3481 N.am      9 UNK        -0.5000 
     30 C          -2.6049  -19.4078  -41.9361 C.2       8 UNK         0.5000 
     31 O          -3.4261  -19.7485  -42.7865 O.2       8 UNK        -0.5000 
     32 CA         -2.4796  -17.9187  -41.5530 C.3       8 UNK         0.1400 
     33 CB         -3.3316  -17.6067  -40.3143 C.3       8 UNK        -0.1800 
     34 N          -1.1008  -17.4723  -41.3185 N.am      8 UNK        -0.5000 
     35 C          -0.0946  -17.5974  -42.1939 C.2       7 UNK         0.5000 
     36 O          -0.2186  -18.1385  -43.2933 O.2       7 UNK        -0.5000 
     37 CA          1.2587  -17.0165  -41.7634 C.3       7 UNK         0.1400 
     38 CB          2.4243  -17.5695  -42.6028 C.3       7 UNK        -0.1800 
     39 N           1.2033  -15.5666  -41.9130 N.am      7 UNK        -0.5000 
     40 C           1.2118  -14.6813  -40.9071 C.2       6 UNK         0.5000 
     41 O           1.3029  -15.0062  -39.7227 O.2       6 UNK        -0.5000 
     42 CA          1.0937  -13.1836  -41.2610 C.3       6 UNK         0.1400 
     43 CB          2.4013  -12.4368  -40.9591 C.3       6 UNK        -0.1800 
     44 N           0.7298  -12.9510  -42.6591 N.am      6 UNK        -0.5000 
     45 C          -0.5288  -12.9522  -43.1191 C.2       5 UNK         0.5000 
     46 O          -1.5178  -13.0876  -42.3981 O.2       5 UNK        -0.5000 
     47 CA         -0.7227  -12.7995  -44.6414 C.3       5 UNK         0.1400 
     48 CB         -1.0155  -11.3363  -45.0043 C.3       5 UNK        -0.1800 
     49 N           0.4095  -13.2711  -45.4453 N.am      5 UNK        -0.5000 
     50 C           0.8817  -14.5250  -45.4544 C.2       4 UNK         0.5000 
     51 O           0.4096  -15.4268  -44.7660 O.2       4 UNK        -0.5000 
     52 CA          2.0902  -14.8328  -46.3555 C.3       4 UNK         0.1400 
     53 CB          2.4013  -13.7349  -47.3963 C.3       4 UNK        -0.1800 
     54 N           3.2832  -15.1548  -45.5700 N.am      4 UNK        -0.5000 
     55 C           3.8938  -14.3803  -44.6590 C.2       3 UNK         0.5000 
     56 O           3.4750  -13.2700  -44.3253 O.2       3 UNK        -0.5000 
     57 CA          5.1818  -14.9245  -44.0001 C.3       3 UNK         0.1400 
     58 CB          5.1764  -14.7119  -42.4769 C.3       3 UNK        -0.1800 
     59 N           5.4166  -16.3435  -44.2773 N.am      3 UNK        -0.5000 
     60 C           6.1012  -16.8231  -45.3233 C.2       2 UNK         0.5000 
     61 O           6.6370  -16.1098  -46.1731 O.2       2 UNK        -0.5000 
     62 CA          6.1911  -18.3584  -45.4689 C.3       2 UNK         0.1400 
     63 CB          5.5940  -19.1495  -44.2817 C.3       2 UNK        -0.1800 
     64 N           5.5965  -18.8147  -46.7287 N.am      2 UNK        -0.5000 
     65 C           4.3384  -18.6005  -47.1467 C.2       1 UNK         0.5000 
     66 O           3.5035  -17.9749  -46.4921 O.2       1 UNK        -0.5000 
     67 C          -3.6948  -19.5966  -46.5316 C.2       11 UNK         0.5000 
     68 O          -4.3656  -19.4434  -47.5497 O.2       11 UNK        -0.5000 
     69 N          -3.9760  -20.5237  -45.6032 N.am      12 UNK        -0.5000 
     70 CA         -5.0529  -21.5139  -45.7067 C.3       12 UNK         0.1400 
     71 CB         -5.1219  -22.3213  -44.4019 C.3       12 UNK        -0.1800 
     72 C          -4.9175  -22.4581  -46.9211 C.2       12 UNK         0.5000 
     73 O          -5.9332  -22.9054  -47.4533 O.2       12 UNK        -0.5000 
     74 N          -3.6764  -22.7248  -47.3473 N.am      13 UNK        -0.5000 
     75 CA         -3.3644  -23.3936  -48.6090 C.3       13 UNK         0.1400 
     76 CB         -2.1252  -24.2835  -48.4174 C.3       13 UNK        -0.1800 
     77 C          -3.1169  -22.3548  -49.7147 C.2       13 UNK         0.5000 
     78 O          -3.6548  -22.4879  -50.8133 O.2       13 UNK        -0.5000 
     79 N          -2.3088  -21.3402  -49.3767 N.am      14 UNK        -0.5000 
     80 CA         -1.7578  -20.2869  -50.2258 C.3       14 UNK         0.1400 
     81 CB         -2.8458  -19.3588  -50.7887 C.3       14 UNK        -0.1800 
     82 C          -0.7684  -20.8382  -51.2694 C.2       14 UNK         0.5000 
     83 O          -0.7997  -20.4492  -52.4381 O.2       14 UNK        -0.5000 
     84 N           0.1155  -21.7320  -50.7980 N.am      15 UNK        -0.5000 
     85 CA          1.2319  -22.3484  -51.5195 C.3       15 UNK         0.1400 
     86 CB          2.3523  -21.3080  -51.7404 C.3       15 UNK        -0.1800 
     87 C           0.7684  -23.0575  -52.8082 C.2       15 UNK         0.5000 
     88 O           0.1104  -24.0949  -52.7188 O.2       15 UNK        -0.5000 
     89 N           1.0836  -22.4754  -53.9736 N.am      16 UNK        -0.5000 
     90 CA          0.7207  -22.9623  -55.3076 C.3       16 UNK         0.1400 
     91 CB          1.4026  -22.0739  -56.3594 C.3       16 UNK        -0.1800 
     92 C          -0.7976  -23.0412  -55.5709 C.2       16 UNK         0.5000 
     93 O          -1.2135  -23.7868  -56.4583 O.2       16 UNK        -0.5000 
     94 N          -1.6003  -22.3023  -54.7910 N.am      17 UNK        -0.5000 
     95 CA         -3.0635  -22.3668  -54.8059 C.3       17 UNK         0.1400 
     96 CB         -3.6129  -21.1136  -54.1160 C.3       17 UNK        -0.1800 
     97 C          -3.6298  -23.6481  -54.1522 C.2       17 UNK         0.5000 
     98 O          -4.8214  -23.9213  -54.3156 O.2       17 UNK        -0.5000 
     99 N          -2.7783  -24.4054  -53.4403 N.am      18 UNK        -0.5000 
    100 CA        -2.9707  -25.7267  -52.8289 C.3       18 UNK         0.1400 
    101 CB        -3.2454  -26.7925  -53.9063 C.3       18 UNK        -0.1800 
    102 C         -4.0192  -25.7970  -51.7030 C.2       18 UNK         0.5000 
    103 O         -3.7130  -26.2971  -50.6205 O.2       18 UNK        -0.5000 
    104 N         -5.2324  -25.3185  -51.9801 N.am      19 UNK        -0.5000 
    105 CA        -6.3749  -25.3034  -51.0707 C.3       19 UNK         0.1400 
    106 CB        -7.0919  -26.6651  -51.1251 C.3       19 UNK        -0.1800 
    107 C         -7.3492  -24.1486  -51.3659 C.2       19 UNK         0.5000 
    108 O         -8.2915  -23.9607  -50.5954 O.2       19 UNK        -0.5000 
    109 N         -7.1391  -23.3958  -52.4593 N.am      20 UNK        -0.5000 
    110 CA        -8.0081  -22.2847  -52.8595 C.3       20 UNK         0.1400 
    111 CB        -7.8048  -21.9908  -54.3536 C.3       20 UNK        -0.1800 
    112 C         -7.8191  -21.0133  -52.0074 C.2       20 UNK         0.5000 
    113 O         -8.6751  -20.1282  -52.0594 O.2       20 UNK        -0.5000 
    114 N         -6.7144  -20.9363  -51.2461 N.am      21 UNK        -0.5000 
    115 CA        -6.4038  -19.9093  -50.2397 C.3       21 UNK         0.1400 
    116 CB        -7.3944  -20.0144  -49.0606 C.3       21 UNK        -0.1800 
    117 C         -6.3221  -18.4685  -50.7984 C.2       21 UNK         0.5000 
    118 O         -6.5189  -17.5105  -50.0492 O.2       21 UNK        -0.5000 
    119 N         -6.0766  -18.3422  -52.1118 N.am      22 UNK        -0.5000 
    120 CA        -6.1771  -17.0968  -52.8954 C.3       22 UNK         0.1400 
    121 C         -7.6113  -16.4749  -52.9283 C.2       22 UNK         0.5000 
    122 N         -8.6703  -17.2348  -52.6689 N.am      22 UNK        -0.7600 
    123 O         -7.7802  -15.2963  -53.2302 O.2       22 UNK        -0.5000 
    124 C124       -5.0591  -16.0683  -52.5513 C.3       23 UNK        -0.0398 
    125 S125       -3.4359  -16.6031  -53.1859 S.3       23 UNK        -0.2404 
    126 C126       -2.3327  -15.3387  -52.4800 C.3       23 UNK        -0.0205 
    127 H127        6.2446  -23.0246  -48.0673 H         1 UNK         0.0600 
    128 H128        6.3081  -22.2346  -49.6454 H         1 UNK         0.0600 
    129 H129        5.0822  -23.4636  -49.3235 H         1 UNK         0.0600 
    130 H130        5.4735  -20.1734  -49.5973 H         1 UNK         0.3000 
    131 H131        2.9211  -19.5854  -48.3925 H         1 UNK         0.0600 
    132 H132        3.7754  -18.6414  -50.6121 H         1 UNK         0.0800 
    133 H133        4.8903  -17.6519  -49.7180 H         1 UNK         0.0800 
    134 H134        0.9926  -18.5421  -48.9356 H         1 UNK         0.0800 
    135 H135        1.2038  -18.4200  -50.6699 H         1 UNK         0.0800 
    136 H136       -0.1754  -16.9093  -51.9669 H         1 UNK         0.1150 
    137 H137       -3.2521  -14.6754  -49.9897 H         1 UNK         0.1150 
    138 H138       -0.2895  -16.7491  -47.6838 H         1 UNK         0.1150 
    139 H139       -1.7000  -14.9299  -46.6770 H         1 UNK         0.0800 
    140 H140       -2.9380  -14.1578  -47.6212 H         1 UNK         0.0800 
    141 H141       -3.2857  -17.5072  -44.7465 H         1 UNK         0.0800 
    142 H142       -1.8174  -16.8599  -45.4074 H         1 UNK         0.0800 
    143 H143       -2.0188  -18.5532  -47.3216 H         1 UNK         0.0600 
    144 H144       -1.0604  -18.9804  -44.7185 H         1 UNK         0.3000 
    145 H145        0.4525  -22.1826  -45.2260 H         1 UNK         0.0600 
    146 H146        2.3405  -20.7832  -44.3566 H         1 UNK         0.0600 
    147 H147        1.4973  -19.3224  -44.8723 H         1 UNK         0.0600 
    148 H148        2.0277  -20.4955  -46.0598 H         1 UNK         0.0600 
    149 H149       -0.0381  -20.2319  -43.0730 H         1 UNK         0.3000 
    150 H150       -2.6438  -22.1142  -41.5950 H         1 UNK         0.0600 
    151 H151       -0.6847  -23.4310  -40.7756 H         1 UNK         0.0600 
    152 H152       -1.1818  -22.2312  -39.5935 H         1 UNK         0.0600 
    153 H153        0.2487  -21.9513  -40.5877 H         1 UNK         0.0600 
    154 H154       -1.1037  -19.8860  -40.6636 H         1 UNK         0.3000 
    155 H155       -2.8701  -17.3335  -42.3872 H         1 UNK         0.0600 
    156 H156       -4.3687  -17.9087  -40.4673 H         1 UNK         0.0600 
    157 H157       -3.3350  -16.5385  -40.0966 H         1 UNK         0.0600 
    158 H158       -2.9641  -18.1294  -39.4303 H         1 UNK         0.0600 
    159 H159       -0.9227  -17.0008  -40.4432 H         1 UNK         0.3000 
    160 H160        1.4293  -17.3053  -40.7244 H         1 UNK         0.0600 
    161 H161        3.3817  -17.2331  -42.2097 H         1 UNK         0.0600 
    162 H162        2.4372  -18.6598  -42.5814 H         1 UNK         0.0600 
    163 H163        2.3560  -17.2608  -43.6470 H         1 UNK         0.0600 
    164 H164        1.0266  -15.2424  -42.8587 H         1 UNK         0.3000 
    165 H165        0.3203  -12.7650  -40.6135 H         1 UNK         0.0600 
    166 H166        2.2776  -11.3619  -41.0912 H         1 UNK         0.0600 
    167 H167        2.7241  -12.6020  -39.9304 H         1 UNK         0.0600 
    168 H168        3.2075  -12.7602  -41.6144 H         1 UNK         0.0600 
    169 H169        1.4941  -12.8564  -43.3182 H         1 UNK         0.3000 
    170 H170       -1.5954  -13.3967  -44.9107 H         1 UNK         0.0600 
    171 H171       -0.1649  -10.6900  -44.7840 H         1 UNK         0.0600 
    172 H172       -1.2531  -11.2320  -46.0632 H         1 UNK         0.0600 
    173 H173       -1.8703  -10.9572  -44.4424 H         1 UNK         0.0600 
    174 H174        0.8762  -12.5807  -46.0153 H         1 UNK         0.3000 
    175 H175        1.8310  -15.7411  -46.8990 H         1 UNK         0.0600 
    176 H176        2.7030  -12.7947  -46.9338 H         1 UNK         0.0600 
    177 H177        3.2101  -14.0490  -48.0563 H         1 UNK         0.0600 
    178 H178        1.5344  -13.5376  -48.0285 H         1 UNK         0.0600 
    179 H179        3.6517  -16.0854  -45.7377 H         1 UNK         0.3000 
    180 H180        6.0118  -14.3429  -44.4062 H         1 UNK         0.0600 
    181 H181        6.0299  -15.1975  -42.0035 H         1 UNK         0.0600 
    182 H182        4.2686  -15.0965  -42.0127 H         1 UNK         0.0600 
    183 H183        5.2445  -13.6506  -42.2380 H         1 UNK         0.0600 
    184 H184        4.9847  -17.0025  -43.6470 H         1 UNK         0.3000 
    185 H185        7.2545  -18.5959  -45.5213 H         1 UNK         0.0600 
    186 H186        5.7499  -20.2202  -44.4150 H         1 UNK         0.0600 
    187 H187        6.0711  -18.8741  -43.3403 H         1 UNK         0.0600 
    188 H188        4.5207  -18.9902  -44.1754 H         1 UNK         0.0600 
    189 H189        6.2132  -19.3269  -47.3425 H         1 UNK         0.3000 
    190 H190       -3.4364  -20.5279  -44.7455 H         1 UNK         0.3000 
    191 H191       -5.9913  -20.9677  -45.8218 H         1 UNK         0.0600 
    192 H192       -5.3091  -21.6733  -43.5454 H         1 UNK         0.0600 
    193 H193       -4.1945  -22.8638  -44.2161 H         1 UNK         0.0600 
    194 H194       -5.9297  -23.0533  -44.4372 H         1 UNK         0.0600 
    195 H195       -2.9002  -22.2994  -46.8572 H         1 UNK         0.3000 
    196 H196       -4.1942  -24.0304  -48.9201 H         1 UNK         0.0600 
    197 H197       -2.3300  -25.0902  -47.7136 H         1 UNK         0.0600 
    198 H198       -1.2703  -23.7214  -48.0404 H         1 UNK         0.0600 
    199 H199       -1.8240  -24.7433  -49.3595 H         1 UNK         0.0600 
    200 H200       -1.9224  -21.3452  -48.4338 H         1 UNK         0.3000 
    201 H201       -1.1498  -19.6729  -49.5620 H         1 UNK         0.0600 
    202 H202       -3.3062  -18.7726  -49.9937 H         1 UNK         0.0600 
    203 H203       -3.6330  -19.8996  -51.3043 H         1 UNK         0.0600 
    204 H204       -2.4224  -18.6519  -51.4979 H         1 UNK         0.0600 
    205 H205        0.0190  -22.0153  -49.8335 H         1 UNK         0.3000 
    206 H206        1.6312  -23.1285  -50.8696 H         1 UNK         0.0600 
    207 H207        2.0201  -20.4574  -52.3366 H         1 UNK         0.0600 
    208 H208        2.7029  -20.9183  -50.7860 H         1 UNK         0.0600 
    209 H209        3.2135  -21.7537  -52.2397 H         1 UNK         0.0600 
    210 H210        1.5889  -21.6020  -53.9421 H         1 UNK         0.3000 
    211 H211        1.1166  -23.9751  -55.4061 H         1 UNK         0.0600 
    212 H212        1.0648  -21.0391  -56.2900 H         1 UNK         0.0600 
    213 H213        1.1837  -22.4237  -57.3693 H         1 UNK         0.0600 
    214 H214        2.4864  -22.0833  -56.2426 H         1 UNK         0.0600 
    215 H215       -1.1833  -21.7039  -54.0847 H         1 UNK         0.3000 
    216 H216       -3.3988  -22.3558  -55.8448 H         1 UNK         0.0600 
    217 H217       -4.6977  -21.0652  -54.1746 H         1 UNK         0.0600 
    218 H218       -3.2193  -20.2013  -54.5648 H         1 UNK         0.0600 
    219 H219       -3.3424  -21.1143  -53.0646 H         1 UNK         0.0600 
    220 H220       -1.8350  -24.0488  -53.3307 H         1 UNK         0.3000 
    221 H221       -2.0116  -25.9719  -52.3700 H         1 UNK         0.0600 
    222 H222       -4.1823  -26.6091  -54.4331 H         1 UNK         0.0600 
    223 H223       -2.4453  -26.8173  -54.6463 H         1 UNK         0.0600 
    224 H224       -3.3098  -27.7870  -53.4631 H         1 UNK         0.0600 
    225 H225       -5.3578  -24.9130  -52.9031 H         1 UNK         0.3000 
    226 H226       -6.0144  -25.1416  -50.0531 H         1 UNK         0.0600 
    227 H227       -6.4263  -27.4756  -50.8281 H         1 UNK         0.0600 
    228 H228       -7.9476  -26.6877  -50.4492 H         1 UNK         0.0600 
    229 H229       -7.4584  -26.8828  -52.1289 H         1 UNK         0.0600 
    230 H230       -6.3475  -23.5793  -53.0642 H         1 UNK         0.3000 
    231 H231       -9.0462  -22.5978  -52.7282 H         1 UNK         0.0600 
    232 H232       -8.4514  -21.1772  -54.6854 H         1 UNK         0.0600 
    233 H233       -8.0466  -22.8635  -54.9605 H         1 UNK         0.0600 
    234 H234       -6.7793  -21.7064  -54.5781 H         1 UNK         0.0600 
    235 H235       -6.0535  -21.7003  -51.3002 H         1 UNK         0.3000 
    236 H236       -5.4163  -20.1554  -49.8531 H         1 UNK         0.0600 
    237 H237       -8.3963  -19.6902  -49.3434 H         1 UNK         0.0600 
    238 H238       -7.4651  -21.0382  -48.6943 H         1 UNK         0.0600 
    239 H239       -7.0731  -19.3940  -48.2233 H         1 UNK         0.0600 
    240 H240       -5.9338  -19.1853  -52.6463 H         1 UNK         0.3000 
    241 H241       -6.0209  -17.4009  -53.9310 H         1 UNK         0.0600 
    242 H242       -8.5717  -18.2177  -52.4310 H         1 UNK         0.3800 
    243 H243       -9.5900  -16.8254  -52.7059 H         1 UNK         0.3800 
    244 H244       -4.9969  -15.8970  -51.4765 H         1 UNK         0.0800 
    245 H245       -5.2620  -15.0964  -53.0030 H         1 UNK         0.0800 
    246 H246       -2.8543  -14.3831  -52.4081 H         1 UNK         0.0800 
    247 H247       -1.5053  -15.1764  -53.1723 H         1 UNK         0.0800 
@<TRIPOS>BOND
     1    1    2 1    
     2    1  127 1    
     3    1  128 1    
     4    1  129 1    
     5    2    3 2    
     6    2    4 am   BACKBONE|DICT|INTERRES
     7    4    5 1    
     8    4  130 1    
     9    5    6 1    
    10    5   65 1    
    11    5  131 1    
    12    6    7 1    
    13    6  132 1    
    14    6  133 1    
    15    7    8 1    
    16    8    9 1    
    17    8  134 1    
    18    8  135 1    
    19    9   10 ar   
    20    9   14 ar   
    21   10   11 ar   
    22   10  136 1    
    23   11   12 ar   
    24   11  126 1    
    25   12   13 ar   
    26   12  137 1    
    27   13   14 ar   
    28   13   15 1    
    29   14  138 1    
    30   15   16 1    
    31   15  139 1    
    32   15  140 1    
    33   16   17 1    
    34   17   18 1    
    35   17  141 1    
    36   17  142 1    
    37   18   19 1    
    38   18   67 1    
    39   18  143 1    
    40   19   20 am   BACKBONE|DICT|INTERRES
    41   19  144 1    
    42   20   21 2    
    43   20   22 1    
    44   22   23 1    
    45   22   24 1    
    46   22  145 1    
    47   23  146 1    
    48   23  147 1    
    49   23  148 1    
    50   24   25 am   BACKBONE|DICT|INTERRES
    51   24  149 1    
    52   25   26 2    
    53   25   27 1    
    54   27   28 1    
    55   27   29 1    
    56   27  150 1    
    57   28  151 1    
    58   28  152 1    
    59   28  153 1    
    60   29   30 am   BACKBONE|DICT|INTERRES
    61   29  154 1    
    62   30   31 2    
    63   30   32 1    
    64   32   33 1    
    65   32   34 1    
    66   32  155 1    
    67   33  156 1    
    68   33  157 1    
    69   33  158 1    
    70   34   35 am   BACKBONE|DICT|INTERRES
    71   34  159 1    
    72   35   36 2    
    73   35   37 1    
    74   37   38 1    
    75   37   39 1    
    76   37  160 1    
    77   38  161 1    
    78   38  162 1    
    79   38  163 1    
    80   39   40 am   BACKBONE|DICT|INTERRES
    81   39  164 1    
    82   40   41 2    
    83   40   42 1    
    84   42   43 1    
    85   42   44 1    
    86   42  165 1    
    87   43  166 1    
    88   43  167 1    
    89   43  168 1    
    90   44   45 am   BACKBONE|DICT|INTERRES
    91   44  169 1    
    92   45   46 2    
    93   45   47 1    
    94   47   48 1    
    95   47   49 1    
    96   47  170 1    
    97   48  171 1    
    98   48  172 1    
    99   48  173 1    
   100   49   50 am   BACKBONE|DICT|INTERRES
   101   49  174 1    
   102   50   51 2    
   103   50   52 1    
   104   52   53 1    
   105   52   54 1    
   106   52  175 1    
   107   53  176 1    
   108   53  177 1    
   109   53  178 1    
   110   54   55 am   BACKBONE|DICT|INTERRES
   111   54  179 1    
   112   55   56 2    
   113   55   57 1    
   114   57   58 1    
   115   57   59 1    
   116   57  180 1    
   117   58  181 1    
   118   58  182 1    
   119   58  183 1    
   120   59   60 am   BACKBONE|DICT|INTERRES
   121   59  184 1    
   122   60   61 2    
   123   60   62 1    
   124   62   63 1    
   125   62   64 1    
   126   62  185 1    
   127   63  186 1    
   128   63  187 1    
   129   63  188 1    
   130   64   65 am   BACKBONE|DICT|INTERRES
   131   64  189 1    
   132   65   66 2    
   133   67   68 2    
   134   67   69 am   BACKBONE|DICT|INTERRES
   135   69   70 1    
   136   69  190 1    
   137   70   71 1    
   138   70   72 1    
   139   70  191 1    
   140   71  192 1    
   141   71  193 1    
   142   71  194 1    
   143   72   73 2    
   144   72   74 am   BACKBONE|DICT|INTERRES
   145   74   75 1    
   146   74  195 1    
   147   75   76 1    
   148   75   77 1    
   149   75  196 1    
   150   76  197 1    
   151   76  198 1    
   152   76  199 1    
   153   77   78 2    
   154   77   79 am   BACKBONE|DICT|INTERRES
   155   79   80 1    
   156   79  200 1    
   157   80   81 1    
   158   80   82 1    
   159   80  201 1    
   160   81  202 1    
   161   81  203 1    
   162   81  204 1    
   163   82   83 2    
   164   82   84 am   BACKBONE|DICT|INTERRES
   165   84   85 1    
   166   84  205 1    
   167   85   86 1    
   168   85   87 1    
   169   85  206 1    
   170   86  207 1    
   171   86  208 1    
   172   86  209 1    
   173   87   88 2    
   174   87   89 am   BACKBONE|DICT|INTERRES
   175   89   90 1    
   176   89  210 1    
   177   90   91 1    
   178   90   92 1    
   179   90  211 1    
   180   91  212 1    
   181   91  213 1    
   182   91  214 1    
   183   92   93 2    
   184   92   94 am   BACKBONE|DICT|INTERRES
   185   94   95 1    
   186   94  215 1    
   187   95   96 1    
   188   95   97 1    
   189   95  216 1    
   190   96  217 1    
   191   96  218 1    
   192   96  219 1    
   193   97   98 2    
   194   97   99 am   BACKBONE|DICT|INTERRES
   195   99  100 1    
   196   99  220 1    
   197  100  101 1    
   198  100  102 1    
   199  100  221 1    
   200  101  222 1    
   201  101  223 1    
   202  101  224 1    
   203  102  103 2    
   204  102  104 am   BACKBONE|DICT|INTERRES
   205  104  105 1    
   206  104  225 1    
   207  105  106 1    
   208  105  107 1    
   209  105  226 1    
   210  106  227 1    
   211  106  228 1    
   212  106  229 1    
   213  107  108 2    
   214  107  109 am   BACKBONE|DICT|INTERRES
   215  109  110 1    
   216  109  230 1    
   217  110  111 1    
   218  110  112 1    
   219  110  231 1    
   220  111  232 1    
   221  111  233 1    
   222  111  234 1    
   223  112  113 2    
   224  112  114 am   BACKBONE|DICT|INTERRES
   225  114  115 1    
   226  114  235 1    
   227  115  116 1    
   228  115  117 1    
   229  115  236 1    
   230  116  237 1    
   231  116  238 1    
   232  116  239 1    
   233  117  118 2    
   234  117  119 am   BACKBONE|DICT|INTERRES
   235  119  120 1    
   236  119  240 1    
   237  120  121 1    
   238  120  124 1    
   239  120  241 1    
   240  121  122 am   BACKBONE|DICT|INTERRES
   241  121  123 2    
   242  122  242 1    
   243  122  243 1    
   244  124  125 1    
   245  124  244 1    
   246  124  245 1    
   247  125  126 1    
   248  126  246 1    
   249  126  247 1    
@<TRIPOS>SUBSTRUCTURE
     1 UNK         1 GROUP             0       ****    0 ROOT    
