@<TRIPOS>MOLECULE
3R540
247   249    1
SMALL
USER_CHARGES


@<TRIPOS>ATOM
      1 CA         -0.8503  -14.4168  -51.8440 C.3       0 UNK        -0.1800 
      2 C           0.0065  -13.8918  -50.7022 C.2       0 UNK         0.5000 
      3 O          -0.0450  -12.7002  -50.3959 O.2       0 UNK        -0.5000 
      4 N           0.8065  -14.7701  -50.0858 N.am      1 UNK        -0.5000 
      5 CA          1.6597  -14.4609  -48.9389 C.3       1 UNK         0.1400 
      6 C6          2.8240  -15.4833  -48.7890 C.3       23 UNK        -0.0398 
      7 S7          2.4430  -17.1295  -48.0805 S.3       23 UNK        -0.2404 
      8 C8          2.1953  -18.1970  -49.5464 C.3       23 UNK        -0.0205 
      9 C9          0.8247  -18.0765  -50.2142 C.ar      23 UNK        -0.0193 
     10 C10         0.6878  -18.4033  -51.5673 C.ar      23 UNK        -0.1150 
     11 C11        -0.5522  -18.2998  -52.2071 C.ar      23 UNK        -0.0193 
     12 C12        -1.6655  -17.8615  -51.4822 C.ar      23 UNK        -0.1150 
     13 C13        -1.5406  -17.5099  -50.1359 C.ar      23 UNK        -0.0193 
     14 C14        -0.3041  -17.6528  -49.5056 C.ar      23 UNK        -0.1150 
     15 C15        -2.7085  -16.8907  -49.3815 C.3       23 UNK        -0.0205 
     16 S16        -3.7105  -18.1135  -48.4876 S.3       23 UNK        -0.2404 
     17 C17        -2.6038  -18.6298  -47.1340 C.3       23 UNK        -0.0398 
     18 CA         -2.0312  -20.0523  -47.3511 C.3       11 UNK         0.1400 
     19 N          -0.8564  -20.3012  -46.5097 N.am      11 UNK        -0.5000 
     20 C          -0.1214  -21.4217  -46.5295 C.2       10 UNK         0.5000 
     21 O          -0.3095  -22.3455  -47.3176 O.2       10 UNK        -0.5000 
     22 CA          0.9656  -21.5726  -45.4508 C.3       10 UNK         0.1400 
     23 CB          2.2581  -20.8556  -45.8670 C.3       10 UNK        -0.1800 
     24 N           0.5182  -21.1073  -44.1369 N.am      10 UNK        -0.5000 
     25 C          -0.4741  -21.6747  -43.4343 C.2       9 UNK         0.5000 
     26 O          -1.0630  -22.6949  -43.7910 O.2       9 UNK        -0.5000 
     27 CA         -0.9227  -20.9635  -42.1445 C.3       9 UNK         0.1400 
     28 CB         -0.0271  -21.3569  -40.9612 C.3       9 UNK        -0.1800 
     29 N          -0.9518  -19.5073  -42.2860 N.am      9 UNK        -0.5000 
     30 C          -1.7650  -18.8420  -43.1191 C.2       8 UNK         0.5000 
     31 O          -2.6306  -19.3886  -43.8037 O.2       8 UNK        -0.5000 
     32 CA         -1.5277  -17.3241  -43.2583 C.3       8 UNK         0.1400 
     33 CB         -2.2024  -16.5470  -42.1188 C.3       8 UNK        -0.1800 
     34 N          -0.1028  -16.9877  -43.3125 N.am      8 UNK        -0.5000 
     35 C           0.7192  -17.3783  -44.2976 C.2       7 UNK         0.5000 
     36 O           0.3374  -17.9926  -45.2918 O.2       7 UNK        -0.5000 
     37 CA          2.2216  -17.1063  -44.1019 C.3       7 UNK         0.1400 
     38 CB          2.5997  -15.6876  -44.5483 C.3       7 UNK        -0.1800 
     39 N           2.6227  -17.3020  -42.7089 N.am      7 UNK        -0.5000 
     40 C           2.7605  -18.5018  -42.1276 C.2       6 UNK         0.5000 
     41 O           2.6045  -19.5662  -42.7235 O.2       6 UNK        -0.5000 
     42 CA          3.0914  -18.5168  -40.6223 C.3       6 UNK         0.1400 
     43 CB          4.6108  -18.4612  -40.4054 C.3       6 UNK        -0.1800 
     44 N           2.4602  -17.4181  -39.8894 N.am      6 UNK        -0.5000 
     45 C           1.1376  -17.2737  -39.7230 C.2       5 UNK         0.5000 
     46 O           0.3106  -18.0953  -40.1146 O.2       5 UNK        -0.5000 
     47 CA          0.6557  -15.9639  -39.0661 C.3       5 UNK         0.1400 
     48 CB          0.5226  -16.1416  -37.5467 C.3       5 UNK        -0.1800 
     49 N           1.5265  -14.8166  -39.3471 N.am      5 UNK        -0.5000 
     50 C           1.7909  -14.3435  -40.5722 C.2       4 UNK         0.5000 
     51 O           1.2896  -14.8058  -41.6018 O.2       4 UNK        -0.5000 
     52 CA          2.8358  -13.2217  -40.6643 C.3       4 UNK         0.1400 
     53 CB          4.2143  -13.7150  -40.1763 C.3       4 UNK        -0.1800 
     54 N           2.9322  -12.7835  -42.0527 N.am      4 UNK        -0.5000 
     55 C           3.4976  -11.6521  -42.4872 C.2       3 UNK         0.5000 
     56 O           3.9886  -10.8051  -41.7396 O.2       3 UNK        -0.5000 
     57 CA          3.5432  -11.4269  -44.0126 C.3       3 UNK         0.1400 
     58 CB          4.9375  -11.7736  -44.5585 C.3       3 UNK        -0.1800 
     59 N           2.5452  -12.1927  -44.7656 N.am      3 UNK        -0.5000 
     60 C           1.2295  -11.9342  -44.7734 C.2       2 UNK         0.5000 
     61 O           0.7146  -11.0350  -44.1075 O.2       2 UNK        -0.5000 
     62 CA          0.3601  -12.8099  -45.6963 C.3       2 UNK         0.1400 
     63 CB         -0.9707  -12.1302  -46.0822 C.3       2 UNK        -0.1800 
     64 N           1.1009  -13.1967  -46.9016 N.am      2 UNK        -0.5000 
     65 C           0.8056  -14.2567  -47.6641 C.2       1 UNK         0.5000 
     66 O          -0.1101  -15.0394  -47.4037 O.2       1 UNK        -0.5000 
     67 C          -3.1233  -21.1252  -47.1445 C.2       11 UNK         0.5000 
     68 O          -3.6698  -21.6461  -48.1183 O.2       11 UNK        -0.5000 
     69 N          -3.4068  -21.4461  -45.8766 N.am      12 UNK        -0.5000 
     70 CA         -4.3789  -22.4591  -45.4876 C.3       12 UNK         0.1400 
     71 CB         -4.6776  -22.3325  -43.9845 C.3       12 UNK        -0.1800 
     72 C          -3.9270  -23.8826  -45.8597 C.2       12 UNK         0.5000 
     73 O          -4.5956  -24.5388  -46.6594 O.2       12 UNK        -0.5000 
     74 N          -2.8213  -24.3375  -45.2584 N.am      13 UNK        -0.5000 
     75 CA         -2.3976  -25.7346  -45.2761 C.3       13 UNK         0.1400 
     76 CB         -1.6881  -26.0654  -43.9524 C.3       13 UNK        -0.1800 
     77 C          -1.5044  -26.0808  -46.4755 C.2       13 UNK         0.5000 
     78 O          -1.8312  -27.0044  -47.2205 O.2       13 UNK        -0.5000 
     79 N          -0.3807  -25.3657  -46.6253 N.am      14 UNK        -0.5000 
     80 CA          0.6765  -25.6947  -47.5884 C.3       14 UNK         0.1400 
     81 CB          1.9651  -24.9326  -47.2400 C.3       14 UNK        -0.1800 
     82 C           0.2606  -25.4439  -49.0475 C.2       14 UNK         0.5000 
     83 O           0.5025  -26.2935  -49.9056 O.2       14 UNK        -0.5000 
     84 N          -0.3855  -24.2978  -49.2926 N.am      15 UNK        -0.5000 
     85 CA         -0.9717  -23.9348  -50.5825 C.3       15 UNK         0.1400 
     86 CB         -1.1463  -22.4085  -50.6481 C.3       15 UNK        -0.1800 
     87 C          -2.3098  -24.6532  -50.8461 C.2       15 UNK         0.5000 
     88 O          -2.7447  -24.6892  -51.9945 O.2       15 UNK        -0.5000 
     89 N          -2.9270  -25.2149  -49.7945 N.am      16 UNK        -0.5000 
     90 CA         -4.2111  -25.9206  -49.7849 C.3       16 UNK         0.1400 
     91 CB         -4.1356  -27.2201  -50.6134 C.3       16 UNK        -0.1800 
     92 C          -5.3584  -24.9899  -50.2203 C.2       16 UNK         0.5000 
     93 O          -5.8491  -25.0874  -51.3467 O.2       16 UNK        -0.5000 
     94 N          -5.7287  -24.0771  -49.3121 N.am      17 UNK        -0.5000 
     95 CA         -6.7400  -23.0274  -49.4720 C.3       17 UNK         0.1400 
     96 CB         -8.1501  -23.6351  -49.6249 C.3       17 UNK        -0.1800 
     97 C          -6.3755  -22.0418  -50.6004 C.2       17 UNK         0.5000 
     98 O          -7.1136  -21.8965  -51.5777 O.2       17 UNK        -0.5000 
     99 N          -5.2111  -21.3992  -50.4387 N.am      18 UNK        -0.5000 
    100 CA        -4.6385  -20.3459  -51.2843 C.3       18 UNK         0.1400 
    101 CB        -5.5716  -19.1153  -51.3227 C.3       18 UNK        -0.1800 
    102 C         -4.2564  -20.7910  -52.7080 C.2       18 UNK         0.5000 
    103 O         -4.0019  -19.9273  -53.5466 O.2       18 UNK        -0.5000 
    104 N         -4.2471  -22.1045  -52.9804 N.am      19 UNK        -0.5000 
    105 CA        -3.9890  -22.7321  -54.2832 C.3       19 UNK         0.1400 
    106 CB        -2.4935  -22.6186  -54.6481 C.3       19 UNK        -0.1800 
    107 C         -4.9187  -22.2061  -55.3999 C.2       19 UNK         0.5000 
    108 O         -4.4722  -22.0059  -56.5310 O.2       19 UNK        -0.5000 
    109 N         -6.1866  -21.9441  -55.0415 N.am      20 UNK        -0.5000 
    110 CA        -7.2209  -21.3147  -55.8723 C.3       20 UNK         0.1400 
    111 CB        -7.6516  -22.2575  -57.0156 C.3       20 UNK        -0.1800 
    112 C         -6.8067  -19.9084  -56.3640 C.2       20 UNK         0.5000 
    113 O         -6.9780  -19.5864  -57.5409 O.2       20 UNK        -0.5000 
    114 N         -6.2517  -19.1133  -55.4368 N.am      21 UNK        -0.5000 
    115 CA        -5.6487  -17.7907  -55.6321 C.3       21 UNK         0.1400 
    116 CB        -6.6756  -16.7658  -56.1596 C.3       21 UNK        -0.1800 
    117 C         -4.3574  -17.8677  -56.4722 C.2       21 UNK         0.5000 
    118 O         -4.1992  -17.1312  -57.4482 O.2       21 UNK        -0.5000 
    119 N         -3.4557  -18.7617  -56.0483 N.am      22 UNK        -0.5000 
    120 CA        -2.1167  -18.9966  -56.6119 C.3       22 UNK         0.1400 
    121 C         -2.1327  -19.5130  -58.0817 C.2       22 UNK         0.5000 
    122 N         -3.0243  -20.4329  -58.4270 N.am      22 UNK        -0.7600 
    123 O         -1.3309  -19.0980  -58.9151 O.2       22 UNK        -0.5000 
    124 C124       -1.1394  -17.8056  -56.3861 C.3       23 UNK        -0.0398 
    125 S125       -1.0703  -17.1573  -54.6754 S.3       23 UNK        -0.2404 
    126 C126       -0.6896  -18.6397  -53.6845 C.3       23 UNK        -0.0205 
    127 H127       -0.4447  -15.3438  -52.2478 H         1 UNK         0.0600 
    128 H128       -0.8917  -13.6900  -52.6552 H         1 UNK         0.0600 
    129 H129       -1.8667  -14.6049  -51.4990 H         1 UNK         0.0600 
    130 H130        0.7501  -15.7494  -50.3315 H         1 UNK         0.3000 
    131 H131        2.1330  -13.5022  -49.1631 H         1 UNK         0.0600 
    132 H132        3.3192  -15.6198  -49.7512 H         1 UNK         0.0800 
    133 H133        3.5862  -15.0446  -48.1435 H         1 UNK         0.0800 
    134 H134        2.9885  -17.9981  -50.2685 H         1 UNK         0.0800 
    135 H135        2.3196  -19.2336  -49.2310 H         1 UNK         0.0800 
    136 H136        1.5516  -18.7354  -52.1261 H         1 UNK         0.1150 
    137 H137       -2.6177  -17.7541  -51.9825 H         1 UNK         0.1150 
    138 H138       -0.2152  -17.3874  -48.4637 H         1 UNK         0.1150 
    139 H139       -2.3462  -16.1347  -48.6828 H         1 UNK         0.0800 
    140 H140       -3.3558  -16.3623  -50.0828 H         1 UNK         0.0800 
    141 H141       -3.1635  -18.5680  -46.2004 H         1 UNK         0.0800 
    142 H142       -1.8011  -17.9010  -47.0295 H         1 UNK         0.0800 
    143 H143       -1.6867  -20.1272  -48.3845 H         1 UNK         0.0600 
    144 H144       -0.5809  -19.5549  -45.8767 H         1 UNK         0.3000 
    145 H145        1.1922  -22.6360  -45.3556 H         1 UNK         0.0600 
    146 H146        3.0412  -20.9857  -45.1202 H         1 UNK         0.0600 
    147 H147        2.6365  -21.2559  -46.8084 H         1 UNK         0.0600 
    148 H148        2.1039  -19.7869  -46.0101 H         1 UNK         0.0600 
    149 H149        1.0049  -20.3089  -43.7446 H         1 UNK         0.3000 
    150 H150       -1.9391  -21.2945  -41.9217 H         1 UNK         0.0600 
    151 H151       -0.0303  -22.4375  -40.8132 H         1 UNK         0.0600 
    152 H152       -0.3750  -20.9002  -40.0345 H         1 UNK         0.0600 
    153 H153        1.0068  -21.0509  -41.1173 H         1 UNK         0.0600 
    154 H154       -0.3171  -18.9781  -41.6949 H         1 UNK         0.3000 
    155 H155       -1.9800  -17.0030  -44.1991 H         1 UNK         0.0600 
    156 H156       -2.0501  -15.4731  -42.2287 H         1 UNK         0.0600 
    157 H157       -1.8185  -16.8422  -41.1429 H         1 UNK         0.0600 
    158 H158       -3.2784  -16.7252  -42.1130 H         1 UNK         0.0600 
    159 H159        0.2819  -16.4597  -42.5384 H         1 UNK         0.3000 
    160 H160        2.7772  -17.8110  -44.7240 H         1 UNK         0.0600 
    161 H161        2.0054  -14.9329  -44.0386 H         1 UNK         0.0600 
    162 H162        2.4301  -15.5643  -45.6157 H         1 UNK         0.0600 
    163 H163        3.6528  -15.4777  -44.3606 H         1 UNK         0.0600 
    164 H164        2.6927  -16.4718  -42.1382 H         1 UNK         0.3000 
    165 H165        2.7208  -19.4570  -40.2090 H         1 UNK         0.0600 
    166 H166        4.8617  -18.5481  -39.3481 H         1 UNK         0.0600 
    167 H167        5.1090  -19.2809  -40.9249 H         1 UNK         0.0600 
    168 H168        5.0379  -17.5288  -40.7771 H         1 UNK         0.0600 
    169 H169        3.0708  -16.7019  -39.5259 H         1 UNK         0.3000 
    170 H170       -0.3322  -15.7376  -39.4718 H         1 UNK         0.0600 
    171 H171       -0.1389  -16.9756  -37.3078 H         1 UNK         0.0600 
    172 H172        1.4868  -16.3424  -37.0781 H         1 UNK         0.0600 
    173 H173        0.1007  -15.2509  -37.0806 H         1 UNK         0.0600 
    174 H174        1.9737  -14.3881  -38.5494 H         1 UNK         0.3000 
    175 H175        2.4965  -12.3882  -40.0463 H         1 UNK         0.0600 
    176 H176        4.5721  -14.5564  -40.7712 H         1 UNK         0.0600 
    177 H177        4.9642  -12.9262  -40.2347 H         1 UNK         0.0600 
    178 H178        4.1793  -14.0379  -39.1355 H         1 UNK         0.0600 
    179 H179        2.4827  -13.4034  -42.7128 H         1 UNK         0.3000 
    180 H180        3.3632  -10.3643  -44.1899 H         1 UNK         0.0600 
    181 H181        5.1700  -12.8311  -44.4256 H         1 UNK         0.0600 
    182 H182        5.7120  -11.2009  -44.0464 H         1 UNK         0.0600 
    183 H183        5.0151  -11.5422  -45.6210 H         1 UNK         0.0600 
    184 H184        2.8954  -12.9574  -45.3226 H         1 UNK         0.3000 
    185 H185        0.1267  -13.7103  -45.1241 H         1 UNK         0.0600 
    186 H186       -1.5518  -11.8676  -45.1974 H         1 UNK         0.0600 
    187 H187       -0.8003  -11.2153  -46.6506 H         1 UNK         0.0600 
    188 H188       -1.5946  -12.7876  -46.6876 H         1 UNK         0.0600 
    189 H189        1.8329  -12.5617  -47.1904 H         1 UNK         0.3000 
    190 H190       -2.9358  -20.9476  -45.1290 H         1 UNK         0.3000 
    191 H191       -5.3076  -22.2579  -46.0261 H         1 UNK         0.0600 
    192 H192       -5.0970  -21.3538  -43.7502 H         1 UNK         0.0600 
    193 H193       -5.4027  -23.0822  -43.6656 H         1 UNK         0.0600 
    194 H194       -3.7820  -22.4614  -43.3767 H         1 UNK         0.0600 
    195 H195       -2.2796  -23.7059  -44.6705 H         1 UNK         0.3000 
    196 H196       -3.2838  -26.3711  -45.3335 H         1 UNK         0.0600 
    197 H197       -1.3728  -27.1093  -43.9280 H         1 UNK         0.0600 
    198 H198       -2.3517  -25.9070  -43.1021 H         1 UNK         0.0600 
    199 H199       -0.8005  -25.4506  -43.7995 H         1 UNK         0.0600 
    200 H200       -0.2183  -24.5791  -46.0140 H         1 UNK         0.3000 
    201 H201        0.8905  -26.7612  -47.4884 H         1 UNK         0.0600 
    202 H202        2.2633  -25.1075  -46.2062 H         1 UNK         0.0600 
    203 H203        1.8570  -23.8583  -47.3840 H         1 UNK         0.0600 
    204 H204        2.7891  -25.2602  -47.8749 H         1 UNK         0.0600 
    205 H205       -0.4881  -23.6238  -48.5336 H         1 UNK         0.3000 
    206 H206       -0.2802  -24.2276  -51.3752 H         1 UNK         0.0600 
    207 H207       -0.2028  -21.8919  -50.4708 H         1 UNK         0.0600 
    208 H208       -1.5087  -22.0954  -51.6275 H         1 UNK         0.0600 
    209 H209       -1.8622  -22.0570  -49.9081 H         1 UNK         0.0600 
    210 H210       -2.4716  -25.1338  -48.8969 H         1 UNK         0.3000 
    211 H211       -4.4010  -26.2116  -48.7508 H         1 UNK         0.0600 
    212 H212       -3.9565  -27.0268  -51.6713 H         1 UNK         0.0600 
    213 H213       -5.0684  -27.7798  -50.5392 H         1 UNK         0.0600 
    214 H214       -3.3369  -27.8681  -50.2521 H         1 UNK         0.0600 
    215 H215       -5.2521  -24.0908  -48.4134 H         1 UNK         0.3000 
    216 H216       -6.7322  -22.4521  -48.5449 H         1 UNK         0.0600 
    217 H217       -8.9091  -22.8523  -49.6452 H         1 UNK         0.0600 
    218 H218       -8.3866  -24.2953  -48.7905 H         1 UNK         0.0600 
    219 H219       -8.2518  -24.2095  -50.5460 H         1 UNK         0.0600 
    220 H220       -4.6691  -21.6056  -49.5990 H         1 UNK         0.3000 
    221 H221       -3.7068  -20.0501  -50.8011 H         1 UNK         0.0600 
    222 H222       -5.9106  -18.8398  -50.3247 H         1 UNK         0.0600 
    223 H223       -5.0594  -18.2481  -51.7407 H         1 UNK         0.0600 
    224 H224       -6.4567  -19.2957  -51.9334 H         1 UNK         0.0600 
    225 H225       -4.4802  -22.7454  -52.2340 H         1 UNK         0.3000 
    226 H226       -4.2242  -23.7911  -54.1698 H         1 UNK         0.0600 
    227 H227       -1.8640  -23.0849  -53.8918 H         1 UNK         0.0600 
    228 H228       -2.2765  -23.1163  -55.5938 H         1 UNK         0.0600 
    229 H229       -2.1796  -21.5817  -54.7402 H         1 UNK         0.0600 
    230 H230       -6.4467  -22.1227  -54.0795 H         1 UNK         0.3000 
    231 H231       -8.0867  -21.1676  -55.2251 H         1 UNK         0.0600 
    232 H232       -6.8495  -22.4158  -57.7369 H         1 UNK         0.0600 
    233 H233       -8.5030  -21.8469  -57.5596 H         1 UNK         0.0600 
    234 H234       -7.9531  -23.2315  -56.6304 H         1 UNK         0.0600 
    235 H235       -6.0955  -19.5134  -54.5220 H         1 UNK         0.3000 
    236 H236       -5.3407  -17.4540  -54.6408 H         1 UNK         0.0600 
    237 H237       -7.5657  -16.7402  -55.5311 H         1 UNK         0.0600 
    238 H238       -6.2514  -15.7612  -56.1624 H         1 UNK         0.0600 
    239 H239       -6.9900  -16.9862  -57.1797 H         1 UNK         0.0600 
    240 H240       -3.6774  -19.2953  -55.2101 H         1 UNK         0.3000 
    241 H241       -1.7067  -19.8362  -56.0559 H         1 UNK         0.0600 
    242 H242       -3.0428  -20.7731  -59.3747 H         1 UNK         0.3800 
    243 H243       -3.6456  -20.8472  -57.7346 H         1 UNK         0.3800 
    244 H244       -0.1266  -18.0935  -56.6726 H         1 UNK         0.0800 
    245 H245       -1.4103  -16.9750  -57.0396 H         1 UNK         0.0800 
    246 H246       -1.4828  -19.3768  -53.7952 H         1 UNK         0.0800 
    247 H247        0.2229  -19.1019  -54.0637 H         1 UNK         0.0800 
@<TRIPOS>BOND
     1    1    2 1    
     2    1  127 1    
     3    1  128 1    
     4    1  129 1    
     5    2    3 2    
     6    2    4 am   BACKBONE|DICT|INTERRES
     7    4    5 1    
     8    4  130 1    
     9    5    6 1    
    10    5   65 1    
    11    5  131 1    
    12    6    7 1    
    13    6  132 1    
    14    6  133 1    
    15    7    8 1    
    16    8    9 1    
    17    8  134 1    
    18    8  135 1    
    19    9   10 ar   
    20    9   14 ar   
    21   10   11 ar   
    22   10  136 1    
    23   11   12 ar   
    24   11  126 1    
    25   12   13 ar   
    26   12  137 1    
    27   13   14 ar   
    28   13   15 1    
    29   14  138 1    
    30   15   16 1    
    31   15  139 1    
    32   15  140 1    
    33   16   17 1    
    34   17   18 1    
    35   17  141 1    
    36   17  142 1    
    37   18   19 1    
    38   18   67 1    
    39   18  143 1    
    40   19   20 am   BACKBONE|DICT|INTERRES
    41   19  144 1    
    42   20   21 2    
    43   20   22 1    
    44   22   23 1    
    45   22   24 1    
    46   22  145 1    
    47   23  146 1    
    48   23  147 1    
    49   23  148 1    
    50   24   25 am   BACKBONE|DICT|INTERRES
    51   24  149 1    
    52   25   26 2    
    53   25   27 1    
    54   27   28 1    
    55   27   29 1    
    56   27  150 1    
    57   28  151 1    
    58   28  152 1    
    59   28  153 1    
    60   29   30 am   BACKBONE|DICT|INTERRES
    61   29  154 1    
    62   30   31 2    
    63   30   32 1    
    64   32   33 1    
    65   32   34 1    
    66   32  155 1    
    67   33  156 1    
    68   33  157 1    
    69   33  158 1    
    70   34   35 am   BACKBONE|DICT|INTERRES
    71   34  159 1    
    72   35   36 2    
    73   35   37 1    
    74   37   38 1    
    75   37   39 1    
    76   37  160 1    
    77   38  161 1    
    78   38  162 1    
    79   38  163 1    
    80   39   40 am   BACKBONE|DICT|INTERRES
    81   39  164 1    
    82   40   41 2    
    83   40   42 1    
    84   42   43 1    
    85   42   44 1    
    86   42  165 1    
    87   43  166 1    
    88   43  167 1    
    89   43  168 1    
    90   44   45 am   BACKBONE|DICT|INTERRES
    91   44  169 1    
    92   45   46 2    
    93   45   47 1    
    94   47   48 1    
    95   47   49 1    
    96   47  170 1    
    97   48  171 1    
    98   48  172 1    
    99   48  173 1    
   100   49   50 am   BACKBONE|DICT|INTERRES
   101   49  174 1    
   102   50   51 2    
   103   50   52 1    
   104   52   53 1    
   105   52   54 1    
   106   52  175 1    
   107   53  176 1    
   108   53  177 1    
   109   53  178 1    
   110   54   55 am   BACKBONE|DICT|INTERRES
   111   54  179 1    
   112   55   56 2    
   113   55   57 1    
   114   57   58 1    
   115   57   59 1    
   116   57  180 1    
   117   58  181 1    
   118   58  182 1    
   119   58  183 1    
   120   59   60 am   BACKBONE|DICT|INTERRES
   121   59  184 1    
   122   60   61 2    
   123   60   62 1    
   124   62   63 1    
   125   62   64 1    
   126   62  185 1    
   127   63  186 1    
   128   63  187 1    
   129   63  188 1    
   130   64   65 am   BACKBONE|DICT|INTERRES
   131   64  189 1    
   132   65   66 2    
   133   67   68 2    
   134   67   69 am   BACKBONE|DICT|INTERRES
   135   69   70 1    
   136   69  190 1    
   137   70   71 1    
   138   70   72 1    
   139   70  191 1    
   140   71  192 1    
   141   71  193 1    
   142   71  194 1    
   143   72   73 2    
   144   72   74 am   BACKBONE|DICT|INTERRES
   145   74   75 1    
   146   74  195 1    
   147   75   76 1    
   148   75   77 1    
   149   75  196 1    
   150   76  197 1    
   151   76  198 1    
   152   76  199 1    
   153   77   78 2    
   154   77   79 am   BACKBONE|DICT|INTERRES
   155   79   80 1    
   156   79  200 1    
   157   80   81 1    
   158   80   82 1    
   159   80  201 1    
   160   81  202 1    
   161   81  203 1    
   162   81  204 1    
   163   82   83 2    
   164   82   84 am   BACKBONE|DICT|INTERRES
   165   84   85 1    
   166   84  205 1    
   167   85   86 1    
   168   85   87 1    
   169   85  206 1    
   170   86  207 1    
   171   86  208 1    
   172   86  209 1    
   173   87   88 2    
   174   87   89 am   BACKBONE|DICT|INTERRES
   175   89   90 1    
   176   89  210 1    
   177   90   91 1    
   178   90   92 1    
   179   90  211 1    
   180   91  212 1    
   181   91  213 1    
   182   91  214 1    
   183   92   93 2    
   184   92   94 am   BACKBONE|DICT|INTERRES
   185   94   95 1    
   186   94  215 1    
   187   95   96 1    
   188   95   97 1    
   189   95  216 1    
   190   96  217 1    
   191   96  218 1    
   192   96  219 1    
   193   97   98 2    
   194   97   99 am   BACKBONE|DICT|INTERRES
   195   99  100 1    
   196   99  220 1    
   197  100  101 1    
   198  100  102 1    
   199  100  221 1    
   200  101  222 1    
   201  101  223 1    
   202  101  224 1    
   203  102  103 2    
   204  102  104 am   BACKBONE|DICT|INTERRES
   205  104  105 1    
   206  104  225 1    
   207  105  106 1    
   208  105  107 1    
   209  105  226 1    
   210  106  227 1    
   211  106  228 1    
   212  106  229 1    
   213  107  108 2    
   214  107  109 am   BACKBONE|DICT|INTERRES
   215  109  110 1    
   216  109  230 1    
   217  110  111 1    
   218  110  112 1    
   219  110  231 1    
   220  111  232 1    
   221  111  233 1    
   222  111  234 1    
   223  112  113 2    
   224  112  114 am   BACKBONE|DICT|INTERRES
   225  114  115 1    
   226  114  235 1    
   227  115  116 1    
   228  115  117 1    
   229  115  236 1    
   230  116  237 1    
   231  116  238 1    
   232  116  239 1    
   233  117  118 2    
   234  117  119 am   BACKBONE|DICT|INTERRES
   235  119  120 1    
   236  119  240 1    
   237  120  121 1    
   238  120  124 1    
   239  120  241 1    
   240  121  122 am   BACKBONE|DICT|INTERRES
   241  121  123 2    
   242  122  242 1    
   243  122  243 1    
   244  124  125 1    
   245  124  244 1    
   246  124  245 1    
   247  125  126 1    
   248  126  246 1    
   249  126  247 1    
@<TRIPOS>SUBSTRUCTURE
     1 UNK         1 GROUP             0       ****    0 ROOT    
