@<TRIPOS>MOLECULE
3R540
247   249    1
SMALL
USER_CHARGES


@<TRIPOS>ATOM
      1 CA         -1.7070  -14.1001  -48.4107 C.3       0 UNK        -0.1800 
      2 C          -0.4746  -13.3133  -48.8366 C.2       0 UNK         0.5000 
      3 O          -0.6036  -12.2786  -49.4917 O.2       0 UNK        -0.5000 
      4 N           0.7122  -13.7965  -48.4602 N.am      1 UNK        -0.5000 
      5 CA          2.0007  -13.1378  -48.6761 C.3       1 UNK         0.1400 
      6 C6          3.1392  -14.1838  -48.8086 C.3       23 UNK        -0.0398 
      7 S7          3.3805  -14.7277  -50.5306 S.3       23 UNK        -0.2404 
      8 C8          2.8081  -16.4578  -50.4821 C.3       23 UNK        -0.0205 
      9 C9          1.2907  -16.5800  -50.5051 C.ar      23 UNK        -0.0193 
     10 C10         0.5574  -16.0173  -51.5545 C.ar      23 UNK        -0.1150 
     11 C11        -0.8316  -16.1504  -51.6040 C.ar      23 UNK        -0.0193 
     12 C12        -1.4891  -16.8758  -50.6069 C.ar      23 UNK        -0.1150 
     13 C13        -0.7686  -17.4420  -49.5510 C.ar      23 UNK        -0.0193 
     14 C14         0.6200  -17.2845  -49.5002 C.ar      23 UNK        -0.1150 
     15 C15        -1.4940  -18.2013  -48.4537 C.3       23 UNK        -0.0205 
     16 S16        -1.3974  -20.0002  -48.6991 S.3       23 UNK        -0.2404 
     17 C17        -2.4618  -20.5956  -47.3443 C.3       23 UNK        -0.0398 
     18 CA         -2.2309  -22.0930  -47.0273 C.3       11 UNK         0.1400 
     19 N          -0.8604  -22.3338  -46.5733 N.am      11 UNK        -0.5000 
     20 C          -0.3376  -23.4811  -46.1206 C.2       10 UNK         0.5000 
     21 O          -0.9066  -24.5712  -46.1889 O.2       10 UNK        -0.5000 
     22 CA          1.0193  -23.3755  -45.3892 C.3       10 UNK         0.1400 
     23 CB          2.1493  -23.9270  -46.2697 C.3       10 UNK        -0.1800 
     24 N           1.3696  -22.0156  -44.9524 N.am      10 UNK        -0.5000 
     25 C           0.6388  -21.2326  -44.1426 C.2       9 UNK         0.5000 
     26 O          -0.4233  -21.5917  -43.6269 O.2       9 UNK        -0.5000 
     27 CA          1.1441  -19.7862  -43.9809 C.3       9 UNK         0.1400 
     28 CB          1.1327  -19.0598  -45.3372 C.3       9 UNK        -0.1800 
     29 N           0.3378  -19.0027  -43.0474 N.am      9 UNK        -0.5000 
     30 C           0.3561  -19.1226  -41.7149 C.2       8 UNK         0.5000 
     31 O           1.0758  -19.9176  -41.1086 O.2       8 UNK        -0.5000 
     32 CA         -0.5616  -18.1770  -40.9225 C.3       8 UNK         0.1400 
     33 CB          0.1153  -16.8064  -40.7522 C.3       8 UNK        -0.1800 
     34 N          -1.8589  -17.9804  -41.5748 N.am      8 UNK        -0.5000 
     35 C          -3.0269  -18.4453  -41.1093 C.2       7 UNK         0.5000 
     36 O          -3.1218  -19.1668  -40.1156 O.2       7 UNK        -0.5000 
     37 CA         -4.3202  -18.0137  -41.8347 C.3       7 UNK         0.1400 
     38 CB         -5.1173  -17.0339  -40.9581 C.3       7 UNK        -0.1800 
     39 N          -4.0752  -17.3749  -43.1279 N.am      7 UNK        -0.5000 
     40 C          -3.9945  -18.0217  -44.2972 C.2       6 UNK         0.5000 
     41 O          -4.1736  -19.2312  -44.4276 O.2       6 UNK        -0.5000 
     42 CA         -3.6282  -17.1850  -45.5391 C.3       6 UNK         0.1400 
     43 CB         -4.8795  -16.8475  -46.3622 C.3       6 UNK        -0.1800 
     44 N          -2.8774  -15.9526  -45.2736 N.am      6 UNK        -0.5000 
     45 C          -1.6886  -15.8948  -44.6604 C.2       5 UNK         0.5000 
     46 O          -1.1398  -16.8757  -44.1537 O.2       5 UNK        -0.5000 
     47 CA         -1.0447  -14.5015  -44.5416 C.3       5 UNK         0.1400 
     48 CB         -1.7482  -13.6837  -43.4472 C.3       5 UNK        -0.1800 
     49 N           0.3800  -14.5671  -44.2218 N.am      5 UNK        -0.5000 
     50 C           1.3333  -15.0883  -45.0048 C.2       4 UNK         0.5000 
     51 O           1.1347  -15.5248  -46.1411 O.2       4 UNK        -0.5000 
     52 CA          2.7497  -15.0413  -44.4141 C.3       4 UNK         0.1400 
     53 CB          3.8254  -15.6994  -45.2993 C.3       4 UNK        -0.1800 
     54 N           3.0910  -13.6450  -44.1608 N.am      4 UNK        -0.5000 
     55 C           3.9545  -13.2054  -43.2373 C.2       3 UNK         0.5000 
     56 O           4.5525  -13.9543  -42.4628 O.2       3 UNK        -0.5000 
     57 CA          4.1704  -11.6754  -43.1471 C.3       3 UNK         0.1400 
     58 CB          5.5854  -11.3000  -42.6580 C.3       3 UNK        -0.1800 
     59 N           3.8291  -10.9519  -44.3803 N.am      3 UNK        -0.5000 
     60 C           4.4164  -11.0721  -45.5796 C.2       2 UNK         0.5000 
     61 O           5.3962  -11.7837  -45.8101 O.2       2 UNK        -0.5000 
     62 CA          3.7494  -10.3065  -46.7387 C.3       2 UNK         0.1400 
     63 CB          4.7345   -9.3311  -47.4021 C.3       2 UNK        -0.1800 
     64 N           3.2335  -11.2344  -47.7468 N.am      2 UNK        -0.5000 
     65 C           2.2849  -12.1539  -47.5211 C.2       1 UNK         0.5000 
     66 O           1.6820  -12.2498  -46.4477 O.2       1 UNK        -0.5000 
     67 C          -3.2944  -22.5903  -46.0224 C.2       11 UNK         0.5000 
     68 O          -4.3046  -23.1513  -46.4463 O.2       11 UNK        -0.5000 
     69 N          -3.0377  -22.4135  -44.7180 N.am      12 UNK        -0.5000 
     70 CA         -3.9125  -22.8826  -43.6433 C.3       12 UNK         0.1400 
     71 CB         -3.6223  -22.0726  -42.3705 C.3       12 UNK        -0.1800 
     72 C          -3.7392  -24.3838  -43.3528 C.2       12 UNK         0.5000 
     73 O          -4.6867  -25.0264  -42.8991 O.2       12 UNK        -0.5000 
     74 N          -2.5278  -24.9051  -43.5843 N.am      13 UNK        -0.5000 
     75 CA         -2.1370  -26.2705  -43.2475 C.3       13 UNK         0.1400 
     76 CB         -0.6141  -26.3302  -43.0454 C.3       13 UNK        -0.1800 
     77 C          -2.5829  -27.2923  -44.3042 C.2       13 UNK         0.5000 
     78 O          -3.1517  -28.3228  -43.9402 O.2       13 UNK        -0.5000 
     79 N          -2.2936  -27.0121  -45.5821 N.am      14 UNK        -0.5000 
     80 CA         -2.4469  -27.9749  -46.6758 C.3       14 UNK         0.1400 
     81 CB         -1.2367  -28.9325  -46.6911 C.3       14 UNK        -0.1800 
     82 C          -2.6693  -27.2969  -48.0392 C.2       14 UNK         0.5000 
     83 O          -2.3361  -27.8884  -49.0677 O.2       14 UNK        -0.5000 
     84 N          -3.2091  -26.0688  -48.0397 N.am      15 UNK        -0.5000 
     85 CA         -3.5286  -25.2078  -49.1914 C.3       15 UNK         0.1400 
     86 CB         -4.5427  -25.8774  -50.1396 C.3       15 UNK        -0.1800 
     87 C          -2.3090  -24.6803  -49.9755 C.2       15 UNK         0.5000 
     88 O          -2.3175  -23.5177  -50.3825 O.2       15 UNK        -0.5000 
     89 N          -1.2939  -25.5320  -50.1781 N.am      16 UNK        -0.5000 
     90 CA          0.0116  -25.2553  -50.7912 C.3       16 UNK         0.1400 
     91 CB          0.8480  -24.3732  -49.8417 C.3       16 UNK        -0.1800 
     92 C          -0.0762  -24.6660  -52.2166 C.2       16 UNK         0.5000 
     93 O           0.8056  -23.9073  -52.6226 O.2       16 UNK        -0.5000 
     94 N          -1.1724  -24.9782  -52.9258 N.am      17 UNK        -0.5000 
     95 CA         -1.6569  -24.4099  -54.1925 C.3       17 UNK         0.1400 
     96 CB         -0.6593  -24.6397  -55.3428 C.3       17 UNK        -0.1800 
     97 C          -2.0682  -22.9250  -54.0999 C.2       17 UNK         0.5000 
     98 O          -3.1012  -22.5509  -54.6554 O.2       17 UNK        -0.5000 
     99 N          -1.2801  -22.1142  -53.3842 N.am      18 UNK        -0.5000 
    100 CA        -1.4428  -20.6768  -53.1727 C.3       18 UNK         0.1400 
    101 CB        -0.3076  -20.1756  -52.2710 C.3       18 UNK        -0.1800 
    102 C         -2.8185  -20.2626  -52.6206 C.2       18 UNK         0.5000 
    103 O         -3.3543  -19.2455  -53.0594 O.2       18 UNK        -0.5000 
    104 N         -3.4114  -21.0745  -51.7323 N.am      19 UNK        -0.5000 
    105 CA        -4.7525  -20.8376  -51.1854 C.3       19 UNK         0.1400 
    106 CB        -5.0464  -21.8574  -50.0777 C.3       19 UNK        -0.1800 
    107 C         -5.8755  -20.8760  -52.2432 C.2       19 UNK         0.5000 
    108 O         -6.9056  -20.2309  -52.0464 O.2       19 UNK        -0.5000 
    109 N         -5.6591  -21.6193  -53.3367 N.am      20 UNK        -0.5000 
    110 CA        -6.5682  -21.6965  -54.4779 C.3       20 UNK         0.1400 
    111 CB        -6.5980  -23.1413  -55.0014 C.3       20 UNK        -0.1800 
    112 C         -6.1484  -20.7251  -55.5942 C.2       20 UNK         0.5000 
    113 O         -7.0143  -20.1043  -56.2120 O.2       20 UNK        -0.5000 
    114 N         -4.8355  -20.6211  -55.8449 N.am      21 UNK        -0.5000 
    115 CA        -4.2534  -19.8241  -56.9257 C.3       21 UNK         0.1400 
    116 CB        -2.7896  -20.2419  -57.1302 C.3       21 UNK        -0.1800 
    117 C         -4.3537  -18.3027  -56.7104 C.2       21 UNK         0.5000 
    118 O         -4.4685  -17.5678  -57.6930 O.2       21 UNK        -0.5000 
    119 N         -4.3079  -17.8536  -55.4517 N.am      22 UNK        -0.5000 
    120 CA        -4.3665  -16.4330  -55.0742 C.3       22 UNK         0.1400 
    121 C         -5.0713  -16.1673  -53.7162 C.2       22 UNK         0.5000 
    122 N         -5.0747  -17.0981  -52.7716 N.am      22 UNK        -0.7600 
    123 O         -5.6441  -15.0983  -53.5229 O.2       22 UNK        -0.5000 
    124 C124       -2.9845  -15.7298  -55.1719 C.3       23 UNK        -0.0398 
    125 S125       -1.6617  -16.5458  -54.2074 S.3       23 UNK        -0.2404 
    126 C126       -1.6223  -15.4966  -52.7239 C.3       23 UNK        -0.0205 
    127 H127       -2.3263  -13.4985  -47.7460 H         1 UNK         0.0600 
    128 H128       -1.4376  -15.0200  -47.8909 H         1 UNK         0.0600 
    129 H129       -2.3022  -14.3661  -49.2840 H         1 UNK         0.0600 
    130 H130        0.7478  -14.6019  -47.8420 H         1 UNK         0.3000 
    131 H131        1.9533  -12.5441  -49.5918 H         1 UNK         0.0600 
    132 H132        4.1010  -13.7830  -48.4825 H         1 UNK         0.0800 
    133 H133        2.9493  -15.0485  -48.1724 H         1 UNK         0.0800 
    134 H134        3.2325  -16.9598  -49.6113 H         1 UNK         0.0800 
    135 H135        3.2050  -16.9775  -51.3550 H         1 UNK         0.0800 
    136 H136        1.0697  -15.4702  -52.3333 H         1 UNK         0.1150 
    137 H137       -2.5630  -16.9920  -50.6504 H         1 UNK         0.1150 
    138 H138        1.1758  -17.7217  -48.6824 H         1 UNK         0.1150 
    139 H139       -1.0631  -17.9342  -47.4883 H         1 UNK         0.0800 
    140 H140       -2.5422  -17.9007  -48.4289 H         1 UNK         0.0800 
    141 H141       -3.4996  -20.4054  -47.6234 H         1 UNK         0.0800 
    142 H142       -2.2685  -19.9975  -46.4529 H         1 UNK         0.0800 
    143 H143       -2.3645  -22.6627  -47.9437 H         1 UNK         0.0600 
    144 H144       -0.2841  -21.5097  -46.5013 H         1 UNK         0.3000 
    145 H145        0.9503  -23.9939  -44.4931 H         1 UNK         0.0600 
    146 H146        3.0990  -23.9359  -45.7346 H         1 UNK         0.0600 
    147 H147        1.9419  -24.9541  -46.5733 H         1 UNK         0.0600 
    148 H148        2.2787  -23.3343  -47.1762 H         1 UNK         0.0600 
    149 H149        2.2244  -21.6407  -45.3382 H         1 UNK         0.3000 
    150 H150        2.1699  -19.8245  -43.6090 H         1 UNK         0.0600 
    151 H151        1.7704  -19.5515  -46.0723 H         1 UNK         0.0600 
    152 H152        1.4989  -18.0404  -45.2337 H         1 UNK         0.0600 
    153 H153        0.1263  -19.0081  -45.7526 H         1 UNK         0.0600 
    154 H154       -0.2725  -18.3048  -43.4654 H         1 UNK         0.3000 
    155 H155       -0.6938  -18.6081  -39.9280 H         1 UNK         0.0600 
    156 H156        0.2821  -16.3160  -41.7119 H         1 UNK         0.0600 
    157 H157        1.0842  -16.9065  -40.2613 H         1 UNK         0.0600 
    158 H158       -0.4927  -16.1415  -40.1386 H         1 UNK         0.0600 
    159 H159       -1.8474  -17.4592  -42.4446 H         1 UNK         0.3000 
    160 H160       -4.9307  -18.9077  -41.9782 H         1 UNK         0.0600 
    161 H161       -4.5567  -16.1184  -40.7650 H         1 UNK         0.0600 
    162 H162       -5.3608  -17.4796  -39.9927 H         1 UNK         0.0600 
    163 H163       -6.0594  -16.7577  -41.4323 H         1 UNK         0.0600 
    164 H164       -3.9228  -16.3774  -43.1197 H         1 UNK         0.3000 
    165 H165       -2.9880  -17.8195  -46.1467 H         1 UNK         0.0600 
    166 H166       -4.6148  -16.3671  -47.3045 H         1 UNK         0.0600 
    167 H167       -5.4426  -17.7493  -46.6070 H         1 UNK         0.0600 
    168 H168       -5.5488  -16.1793  -45.8189 H         1 UNK         0.0600 
    169 H169       -3.2880  -15.0999  -45.6253 H         1 UNK         0.3000 
    170 H170       -1.1514  -13.9855  -45.4972 H         1 UNK         0.0600 
    171 H171       -1.6654  -14.1632  -42.4707 H         1 UNK         0.0600 
    172 H172       -1.3203  -12.6841  -43.3668 H         1 UNK         0.0600 
    173 H173       -2.8101  -13.5605  -43.6637 H         1 UNK         0.0600 
    174 H174        0.6476  -14.2193  -43.3136 H         1 UNK         0.3000 
    175 H175        2.7069  -15.5861  -43.4685 H         1 UNK         0.0600 
    176 H176        4.0416  -15.0967  -46.1796 H         1 UNK         0.0600 
    177 H177        4.7592  -15.8201  -44.7503 H         1 UNK         0.0600 
    178 H178        3.5184  -16.6902  -45.6354 H         1 UNK         0.0600 
    179 H179        2.6212  -12.9734  -44.7614 H         1 UNK         0.3000 
    180 H180        3.4649  -11.3248  -42.3926 H         1 UNK         0.0600 
    181 H181        5.7092  -10.2186  -42.6001 H         1 UNK         0.0600 
    182 H182        6.3606  -11.6923  -43.3166 H         1 UNK         0.0600 
    183 H183        5.7739  -11.6995  -41.6609 H         1 UNK         0.0600 
    184 H184        3.0107  -10.3622  -44.3143 H         1 UNK         0.3000 
    185 H185        2.9087   -9.7274  -46.3507 H         1 UNK         0.0600 
    186 H186        4.2484   -8.7520  -48.1874 H         1 UNK         0.0600 
    187 H187        5.1300   -8.6222  -46.6734 H         1 UNK         0.0600 
    188 H188        5.5833   -9.8530  -47.8460 H         1 UNK         0.0600 
    189 H189        3.7025  -11.2221  -48.6410 H         1 UNK         0.3000 
    190 H190       -2.1704  -21.9691  -44.4296 H         1 UNK         0.3000 
    191 H191       -4.9523  -22.7087  -43.9285 H         1 UNK         0.0600 
    192 H192       -4.2874  -22.3665  -41.5577 H         1 UNK         0.0600 
    193 H193       -3.7703  -21.0085  -42.5403 H         1 UNK         0.0600 
    194 H194       -2.5976  -22.2139  -42.0245 H         1 UNK         0.0600 
    195 H195       -1.8241  -24.3173  -44.0052 H         1 UNK         0.3000 
    196 H196       -2.6057  -26.5428  -42.2991 H         1 UNK         0.0600 
    197 H197       -0.0723  -26.1111  -43.9656 H         1 UNK         0.0600 
    198 H198       -0.2874  -25.6210  -42.2847 H         1 UNK         0.0600 
    199 H199       -0.3062  -27.3237  -42.7169 H         1 UNK         0.0600 
    200 H200       -1.8090  -26.1436  -45.8050 H         1 UNK         0.3000 
    201 H201       -3.3470  -28.5680  -46.5017 H         1 UNK         0.0600 
    202 H202       -0.3079  -28.3948  -46.8853 H         1 UNK         0.0600 
    203 H203       -1.3436  -29.6975  -47.4611 H         1 UNK         0.0600 
    204 H204       -1.1281  -29.4543  -45.7403 H         1 UNK         0.0600 
    205 H205       -3.4232  -25.6618  -47.1395 H         1 UNK         0.3000 
    206 H206       -4.0217  -24.3330  -48.7697 H         1 UNK         0.0600 
    207 H207       -5.4500  -26.1615  -49.6065 H         1 UNK         0.0600 
    208 H208       -4.8367  -25.1990  -50.9410 H         1 UNK         0.0600 
    209 H209       -4.1375  -26.7720  -50.6122 H         1 UNK         0.0600 
    210 H210       -1.4347  -26.4819  -49.8411 H         1 UNK         0.3000 
    211 H211        0.5177  -26.2165  -50.8889 H         1 UNK         0.0600 
    212 H212        1.8695  -24.2563  -50.2050 H         1 UNK         0.0600 
    213 H213        0.9066  -24.8193  -48.8496 H         1 UNK         0.0600 
    214 H214        0.4195  -23.3756  -49.7346 H         1 UNK         0.0600 
    215 H215       -1.8284  -25.5945  -52.4674 H         1 UNK         0.3000 
    216 H216       -2.5644  -24.9656  -54.4337 H         1 UNK         0.0600 
    217 H217        0.2675  -24.0837  -55.2005 H         1 UNK         0.0600 
    218 H218       -1.0860  -24.3181  -56.2937 H         1 UNK         0.0600 
    219 H219       -0.4065  -25.6954  -55.4403 H         1 UNK         0.0600 
    220 H220       -0.4528  -22.5374  -52.9742 H         1 UNK         0.3000 
    221 H221       -1.3293  -20.1922  -54.1425 H         1 UNK         0.0600 
    222 H222        0.6639  -20.3221  -52.7427 H         1 UNK         0.0600 
    223 H223       -0.2953  -20.6994  -51.3154 H         1 UNK         0.0600 
    224 H224       -0.4095  -19.1097  -52.0665 H         1 UNK         0.0600 
    225 H225       -2.9162  -21.8973  -51.3995 H         1 UNK         0.3000 
    226 H226       -4.7524  -19.8414  -50.7381 H         1 UNK         0.0600 
    227 H227       -5.1185  -22.8674  -50.4794 H         1 UNK         0.0600 
    228 H228       -4.2687  -21.8526  -49.3171 H         1 UNK         0.0600 
    229 H229       -5.9907  -21.6344  -49.5798 H         1 UNK         0.0600 
    230 H230       -4.7631  -22.0796  -53.4422 H         1 UNK         0.3000 
    231 H231       -7.5824  -21.4341  -54.1692 H         1 UNK         0.0600 
    232 H232       -5.6143  -23.4734  -55.3351 H         1 UNK         0.0600 
    233 H233       -7.2803  -23.2352  -55.8471 H         1 UNK         0.0600 
    234 H234       -6.9397  -23.8315  -54.2299 H         1 UNK         0.0600 
    235 H235       -4.1921  -21.2107  -55.3235 H         1 UNK         0.3000 
    236 H236       -4.7987  -20.0605  -57.8419 H         1 UNK         0.0600 
    237 H237       -2.1824  -20.0128  -56.2556 H         1 UNK         0.0600 
    238 H238       -2.7057  -21.3108  -57.3275 H         1 UNK         0.0600 
    239 H239       -2.3495  -19.7180  -57.9795 H         1 UNK         0.0600 
    240 H240       -4.1680  -18.5099  -54.6913 H         1 UNK         0.3000 
    241 H241       -5.0159  -15.9393  -55.8003 H         1 UNK         0.0600 
    242 H242       -5.5592  -16.9179  -51.9081 H         1 UNK         0.3800 
    243 H243       -4.5032  -17.9357  -52.8666 H         1 UNK         0.3800 
    244 H244       -2.6640  -15.7191  -56.2143 H         1 UNK         0.0800 
    245 H245       -3.0614  -14.6798  -54.8842 H         1 UNK         0.0800 
    246 H246       -1.1837  -14.5297  -52.9751 H         1 UNK         0.0800 
    247 H247       -2.6382  -15.2932  -52.3838 H         1 UNK         0.0800 
@<TRIPOS>BOND
     1    1    2 1    
     2    1  127 1    
     3    1  128 1    
     4    1  129 1    
     5    2    3 2    
     6    2    4 am   BACKBONE|DICT|INTERRES
     7    4    5 1    
     8    4  130 1    
     9    5    6 1    
    10    5   65 1    
    11    5  131 1    
    12    6    7 1    
    13    6  132 1    
    14    6  133 1    
    15    7    8 1    
    16    8    9 1    
    17    8  134 1    
    18    8  135 1    
    19    9   10 ar   
    20    9   14 ar   
    21   10   11 ar   
    22   10  136 1    
    23   11   12 ar   
    24   11  126 1    
    25   12   13 ar   
    26   12  137 1    
    27   13   14 ar   
    28   13   15 1    
    29   14  138 1    
    30   15   16 1    
    31   15  139 1    
    32   15  140 1    
    33   16   17 1    
    34   17   18 1    
    35   17  141 1    
    36   17  142 1    
    37   18   19 1    
    38   18   67 1    
    39   18  143 1    
    40   19   20 am   BACKBONE|DICT|INTERRES
    41   19  144 1    
    42   20   21 2    
    43   20   22 1    
    44   22   23 1    
    45   22   24 1    
    46   22  145 1    
    47   23  146 1    
    48   23  147 1    
    49   23  148 1    
    50   24   25 am   BACKBONE|DICT|INTERRES
    51   24  149 1    
    52   25   26 2    
    53   25   27 1    
    54   27   28 1    
    55   27   29 1    
    56   27  150 1    
    57   28  151 1    
    58   28  152 1    
    59   28  153 1    
    60   29   30 am   BACKBONE|DICT|INTERRES
    61   29  154 1    
    62   30   31 2    
    63   30   32 1    
    64   32   33 1    
    65   32   34 1    
    66   32  155 1    
    67   33  156 1    
    68   33  157 1    
    69   33  158 1    
    70   34   35 am   BACKBONE|DICT|INTERRES
    71   34  159 1    
    72   35   36 2    
    73   35   37 1    
    74   37   38 1    
    75   37   39 1    
    76   37  160 1    
    77   38  161 1    
    78   38  162 1    
    79   38  163 1    
    80   39   40 am   BACKBONE|DICT|INTERRES
    81   39  164 1    
    82   40   41 2    
    83   40   42 1    
    84   42   43 1    
    85   42   44 1    
    86   42  165 1    
    87   43  166 1    
    88   43  167 1    
    89   43  168 1    
    90   44   45 am   BACKBONE|DICT|INTERRES
    91   44  169 1    
    92   45   46 2    
    93   45   47 1    
    94   47   48 1    
    95   47   49 1    
    96   47  170 1    
    97   48  171 1    
    98   48  172 1    
    99   48  173 1    
   100   49   50 am   BACKBONE|DICT|INTERRES
   101   49  174 1    
   102   50   51 2    
   103   50   52 1    
   104   52   53 1    
   105   52   54 1    
   106   52  175 1    
   107   53  176 1    
   108   53  177 1    
   109   53  178 1    
   110   54   55 am   BACKBONE|DICT|INTERRES
   111   54  179 1    
   112   55   56 2    
   113   55   57 1    
   114   57   58 1    
   115   57   59 1    
   116   57  180 1    
   117   58  181 1    
   118   58  182 1    
   119   58  183 1    
   120   59   60 am   BACKBONE|DICT|INTERRES
   121   59  184 1    
   122   60   61 2    
   123   60   62 1    
   124   62   63 1    
   125   62   64 1    
   126   62  185 1    
   127   63  186 1    
   128   63  187 1    
   129   63  188 1    
   130   64   65 am   BACKBONE|DICT|INTERRES
   131   64  189 1    
   132   65   66 2    
   133   67   68 2    
   134   67   69 am   BACKBONE|DICT|INTERRES
   135   69   70 1    
   136   69  190 1    
   137   70   71 1    
   138   70   72 1    
   139   70  191 1    
   140   71  192 1    
   141   71  193 1    
   142   71  194 1    
   143   72   73 2    
   144   72   74 am   BACKBONE|DICT|INTERRES
   145   74   75 1    
   146   74  195 1    
   147   75   76 1    
   148   75   77 1    
   149   75  196 1    
   150   76  197 1    
   151   76  198 1    
   152   76  199 1    
   153   77   78 2    
   154   77   79 am   BACKBONE|DICT|INTERRES
   155   79   80 1    
   156   79  200 1    
   157   80   81 1    
   158   80   82 1    
   159   80  201 1    
   160   81  202 1    
   161   81  203 1    
   162   81  204 1    
   163   82   83 2    
   164   82   84 am   BACKBONE|DICT|INTERRES
   165   84   85 1    
   166   84  205 1    
   167   85   86 1    
   168   85   87 1    
   169   85  206 1    
   170   86  207 1    
   171   86  208 1    
   172   86  209 1    
   173   87   88 2    
   174   87   89 am   BACKBONE|DICT|INTERRES
   175   89   90 1    
   176   89  210 1    
   177   90   91 1    
   178   90   92 1    
   179   90  211 1    
   180   91  212 1    
   181   91  213 1    
   182   91  214 1    
   183   92   93 2    
   184   92   94 am   BACKBONE|DICT|INTERRES
   185   94   95 1    
   186   94  215 1    
   187   95   96 1    
   188   95   97 1    
   189   95  216 1    
   190   96  217 1    
   191   96  218 1    
   192   96  219 1    
   193   97   98 2    
   194   97   99 am   BACKBONE|DICT|INTERRES
   195   99  100 1    
   196   99  220 1    
   197  100  101 1    
   198  100  102 1    
   199  100  221 1    
   200  101  222 1    
   201  101  223 1    
   202  101  224 1    
   203  102  103 2    
   204  102  104 am   BACKBONE|DICT|INTERRES
   205  104  105 1    
   206  104  225 1    
   207  105  106 1    
   208  105  107 1    
   209  105  226 1    
   210  106  227 1    
   211  106  228 1    
   212  106  229 1    
   213  107  108 2    
   214  107  109 am   BACKBONE|DICT|INTERRES
   215  109  110 1    
   216  109  230 1    
   217  110  111 1    
   218  110  112 1    
   219  110  231 1    
   220  111  232 1    
   221  111  233 1    
   222  111  234 1    
   223  112  113 2    
   224  112  114 am   BACKBONE|DICT|INTERRES
   225  114  115 1    
   226  114  235 1    
   227  115  116 1    
   228  115  117 1    
   229  115  236 1    
   230  116  237 1    
   231  116  238 1    
   232  116  239 1    
   233  117  118 2    
   234  117  119 am   BACKBONE|DICT|INTERRES
   235  119  120 1    
   236  119  240 1    
   237  120  121 1    
   238  120  124 1    
   239  120  241 1    
   240  121  122 am   BACKBONE|DICT|INTERRES
   241  121  123 2    
   242  122  242 1    
   243  122  243 1    
   244  124  125 1    
   245  124  244 1    
   246  124  245 1    
   247  125  126 1    
   248  126  246 1    
   249  126  247 1    
@<TRIPOS>SUBSTRUCTURE
     1 UNK         1 GROUP             0       ****    0 ROOT    
