@<TRIPOS>MOLECULE
3R540
247   249    1
SMALL
USER_CHARGES


@<TRIPOS>ATOM
      1 CA         -3.4475  -13.4674  -49.7031 C.3       0 UNK        -0.1800 
      2 C          -2.3956  -12.8606  -48.7881 C.2       0 UNK         0.5000 
      3 O          -2.5542  -11.7318  -48.3225 O.2       0 UNK        -0.5000 
      4 N          -1.3257  -13.6150  -48.5132 N.am      1 UNK        -0.5000 
      5 CA         -0.1601  -13.2239  -47.7065 C.3       1 UNK         0.1400 
      6 C6          1.0879  -14.0880  -48.0327 C.3       23 UNK        -0.0398 
      7 S7          1.5371  -14.1014  -49.8011 S.3       23 UNK        -0.2404 
      8 C8          1.2686  -15.8488  -50.2369 C.3       23 UNK        -0.0205 
      9 C9         -0.2054  -16.1716  -50.4230 C.ar      23 UNK        -0.0193 
     10 C10        -0.8125  -15.9466  -51.6616 C.ar      23 UNK        -0.1150 
     11 C11        -2.1480  -16.2996  -51.8708 C.ar      23 UNK        -0.0193 
     12 C12        -2.8896  -16.8389  -50.8179 C.ar      23 UNK        -0.1150 
     13 C13        -2.3002  -17.0506  -49.5696 C.ar      23 UNK        -0.0193 
     14 C14        -0.9541  -16.7233  -49.3779 C.ar      23 UNK        -0.1150 
     15 C15        -3.1244  -17.6479  -48.4414 C.3       23 UNK        -0.0205 
     16 S16        -3.2044  -19.4592  -48.5705 S.3       23 UNK        -0.2404 
     17 C17        -1.5244  -19.9067  -48.0074 C.3       23 UNK        -0.0398 
     18 CA         -1.2208  -21.4103  -47.7597 C.3       11 UNK         0.1400 
     19 N          -0.0260  -21.5627  -46.9305 N.am      11 UNK        -0.5000 
     20 C           0.6255  -22.7092  -46.6981 C.2       10 UNK         0.5000 
     21 O           0.3429  -23.7820  -47.2304 O.2       10 UNK        -0.5000 
     22 CA          1.7561  -22.6504  -45.6535 C.3       10 UNK         0.1400 
     23 CB          3.0624  -22.1533  -46.2898 C.3       10 UNK        -0.1800 
     24 N           1.4173  -21.8097  -44.5013 N.am      10 UNK        -0.5000 
     25 C           0.4080  -22.0628  -43.6546 C.2       9 UNK         0.5000 
     26 O          -0.3143  -23.0557  -43.7328 O.2       9 UNK        -0.5000 
     27 CA          0.1275  -21.0161  -42.5627 C.3       9 UNK         0.1400 
     28 CB          1.1119  -21.1727  -41.3944 C.3       9 UNK        -0.1800 
     29 N           0.1645  -19.6430  -43.0681 N.am      9 UNK        -0.5000 
     30 C          -0.6856  -19.1426  -43.9772 C.2       8 UNK         0.5000 
     31 O          -1.6171  -19.7812  -44.4647 O.2       8 UNK        -0.5000 
     32 CA         -0.4188  -17.7085  -44.4708 C.3       8 UNK         0.1400 
     33 CB         -0.9067  -16.6713  -43.4495 C.3       8 UNK        -0.1800 
     34 N           0.9937  -17.4793  -44.7656 N.am      8 UNK        -0.5000 
     35 C           1.7018  -18.1425  -45.6900 C.2       7 UNK         0.5000 
     36 O           1.2213  -18.9791  -46.4536 O.2       7 UNK        -0.5000 
     37 CA          3.2115  -17.8607  -45.7286 C.3       7 UNK         0.1400 
     38 CB          3.5113  -16.5901  -46.5368 C.3       7 UNK        -0.1800 
     39 N           3.7677  -17.7349  -44.3811 N.am      7 UNK        -0.5000 
     40 C           3.9347  -18.7615  -43.5357 C.2       6 UNK         0.5000 
     41 O           3.6605  -19.9285  -43.8169 O.2       6 UNK        -0.5000 
     42 CA          4.4675  -18.4227  -42.1305 C.3       6 UNK         0.1400 
     43 CB          5.9971  -18.2843  -42.1501 C.3       6 UNK        -0.1800 
     44 N           3.8766  -17.2030  -41.5763 N.am      6 UNK        -0.5000 
     45 C           2.5897  -17.0856  -41.2212 C.2       5 UNK         0.5000 
     46 O           1.7753  -18.0036  -41.3013 O.2       5 UNK        -0.5000 
     47 CA          2.1173  -15.7009  -40.7361 C.3       5 UNK         0.1400 
     48 CB          2.3701  -15.5454  -39.2291 C.3       5 UNK        -0.1800 
     49 N           2.7065  -14.5598  -41.4459 N.am      5 UNK        -0.5000 
     50 C           2.7104  -14.3889  -42.7743 C.2       4 UNK         0.5000 
     51 O           2.3014  -15.2309  -43.5733 O.2       4 UNK        -0.5000 
     52 CA          3.2284  -13.0405  -43.2866 C.3       4 UNK         0.1400 
     53 CB          3.9536  -13.1759  -44.6364 C.3       4 UNK        -0.1800 
     54 N           2.0798  -12.1590  -43.4562 N.am      4 UNK        -0.5000 
     55 C           1.7990  -11.0987  -42.6879 C.2       3 UNK         0.5000 
     56 O           2.5037  -10.7384  -41.7440 O.2       3 UNK        -0.5000 
     57 CA          0.5298  -10.2879  -43.0246 C.3       3 UNK         0.1400 
     58 CB          0.9033   -8.9973  -43.7704 C.3       3 UNK        -0.1800 
     59 N          -0.4436  -11.0275  -43.8290 N.am      3 UNK        -0.5000 
     60 C          -1.2349  -12.0048  -43.3675 C.2       2 UNK         0.5000 
     61 O          -1.2682  -12.3563  -42.1878 O.2       2 UNK        -0.5000 
     62 CA         -2.1313  -12.7208  -44.3990 C.3       2 UNK         0.1400 
     63 CB         -3.5449  -12.1201  -44.3917 C.3       2 UNK        -0.1800 
     64 N          -1.6192  -12.7070  -45.7744 N.am      2 UNK        -0.5000 
     65 C          -0.4548  -13.2259  -46.1855 C.2       1 UNK         0.5000 
     66 O           0.3730  -13.6925  -45.4050 O.2       1 UNK        -0.5000 
     67 C          -2.4029  -22.2152  -47.1746 C.2       11 UNK         0.5000 
     68 O          -2.9978  -23.0223  -47.8904 O.2       11 UNK        -0.5000 
     69 N          -2.6967  -22.0119  -45.8820 N.am      12 UNK        -0.5000 
     70 CA         -3.7779  -22.6768  -45.1497 C.3       12 UNK         0.1400 
     71 CB         -3.8910  -22.0687  -43.7443 C.3       12 UNK        -0.1800 
     72 C          -3.6280  -24.2079  -45.0671 C.2       12 UNK         0.5000 
     73 O          -4.6348  -24.9158  -45.0832 O.2       12 UNK        -0.5000 
     74 N          -2.3800  -24.6904  -45.0018 N.am      13 UNK        -0.5000 
     75 CA         -2.0264  -26.1101  -45.0485 C.3       13 UNK         0.1400 
     76 CB         -0.5746  -26.2764  -44.5730 C.3       13 UNK        -0.1800 
     77 C          -2.2141  -26.7459  -46.4423 C.2       13 UNK         0.5000 
     78 O          -2.3006  -27.9717  -46.5339 O.2       13 UNK        -0.5000 
     79 N          -2.2654  -25.9164  -47.4918 N.am      14 UNK        -0.5000 
     80 CA         -2.5191  -26.3039  -48.8748 C.3       14 UNK         0.1400 
     81 CB         -1.5444  -25.5301  -49.7861 C.3       14 UNK        -0.1800 
     82 C          -4.0089  -26.0770  -49.2094 C.2       14 UNK         0.5000 
     83 O          -4.8774  -26.4611  -48.4238 O.2       14 UNK        -0.5000 
     84 N          -4.2915  -25.4813  -50.3758 N.am      15 UNK        -0.5000 
     85 CA         -5.6429  -25.2283  -50.8839 C.3       15 UNK         0.1400 
     86 CB         -5.5656  -25.0075  -52.4030 C.3       15 UNK        -0.1800 
     87 C          -6.3750  -24.0549  -50.1975 C.2       15 UNK         0.5000 
     88 O          -7.5837  -23.9205  -50.3869 O.2       15 UNK        -0.5000 
     89 N          -5.6446  -23.2236  -49.4376 N.am      16 UNK        -0.5000 
     90 CA         -6.1215  -22.1086  -48.6083 C.3       16 UNK         0.1400 
     91 CB         -7.0241  -22.6382  -47.4744 C.3       16 UNK        -0.1800 
     92 C          -6.7761  -20.9269  -49.3599 C.2       16 UNK         0.5000 
     93 O          -7.3255  -20.0432  -48.6997 O.2       16 UNK        -0.5000 
     94 N          -6.7035  -20.8973  -50.6983 N.am      17 UNK        -0.5000 
     95 CA         -7.2873  -19.8442  -51.5350 C.3       17 UNK         0.1400 
     96 CB         -8.8294  -19.8979  -51.5018 C.3       17 UNK        -0.1800 
     97 C          -6.7987  -19.9186  -52.9883 C.2       17 UNK         0.5000 
     98 O          -6.5339  -18.8753  -53.5863 O.2       17 UNK        -0.5000 
     99 N          -6.7262  -21.1369  -53.5450 N.am      18 UNK        -0.5000 
    100 CA        -6.3338  -21.3841  -54.9358 C.3       18 UNK         0.1400 
    101 CB        -6.7006  -22.8301  -55.3067 C.3       18 UNK        -0.1800 
    102 C         -4.8356  -21.1310  -55.1882 C.2       18 UNK         0.5000 
    103 O         -4.0466  -21.0815  -54.2430 O.2       18 UNK        -0.5000 
    104 N         -4.4569  -21.0456  -56.4715 N.am      19 UNK        -0.5000 
    105 CA        -3.0885  -20.7976  -56.9455 C.3       19 UNK         0.1400 
    106 CB        -3.0858  -20.7660  -58.4807 C.3       19 UNK        -0.1800 
    107 C         -2.0325  -21.7965  -56.4271 C.2       19 UNK         0.5000 
    108 O         -0.8707  -21.4213  -56.2667 O.2       19 UNK        -0.5000 
    109 N         -2.4643  -23.0288  -56.1235 N.am      20 UNK        -0.5000 
    110 CA        -1.6650  -24.0681  -55.4716 C.3       20 UNK         0.1400 
    111 CB        -2.4701  -25.3767  -55.4583 C.3       20 UNK        -0.1800 
    112 C         -1.2217  -23.6999  -54.0401 C.2       20 UNK         0.5000 
    113 O         -0.1763  -24.1739  -53.5949 O.2       20 UNK        -0.5000 
    114 N         -2.0120  -22.8648  -53.3513 N.am      21 UNK        -0.5000 
    115 CA        -1.6827  -22.3058  -52.0432 C.3       21 UNK         0.1400 
    116 CB        -2.9805  -22.0316  -51.2734 C.3       21 UNK        -0.1800 
    117 C         -0.8523  -21.0202  -52.1735 C.2       21 UNK         0.5000 
    118 O          0.0349  -20.7953  -51.3500 O.2       21 UNK        -0.5000 
    119 N         -1.1477  -20.2111  -53.2007 N.am      22 UNK        -0.5000 
    120 CA        -0.4187  -18.9710  -53.5081 C.3       22 UNK         0.1400 
    121 C          1.0428  -19.2061  -53.9804 C.2       22 UNK         0.5000 
    122 N          1.3049  -20.2238  -54.7915 N.am      22 UNK        -0.7600 
    123 O          1.9431  -18.4569  -53.6124 O.2       22 UNK        -0.5000 
    124 C124       -1.1584  -18.0652  -54.5278 C.3       23 UNK        -0.0398 
    125 S125       -2.9042  -17.7263  -54.1127 S.3       23 UNK        -0.2404 
    126 C126       -2.7866  -16.1321  -53.2393 C.3       23 UNK        -0.0205 
    127 H127       -3.8471  -14.3846  -49.2705 H         1 UNK         0.0600 
    128 H128       -3.0160  -13.7002  -50.6765 H         1 UNK         0.0600 
    129 H129       -4.2754  -12.7748  -49.8555 H         1 UNK         0.0600 
    130 H130       -1.2611  -14.5304  -48.9379 H         1 UNK         0.3000 
    131 H131        0.0868  -12.1921  -47.9647 H         1 UNK         0.0600 
    132 H132        1.9574  -13.7073  -47.4945 H         1 UNK         0.0800 
    133 H133        0.9466  -15.1105  -47.6799 H         1 UNK         0.0800 
    134 H134        1.8040  -16.0627  -51.1635 H         1 UNK         0.0800 
    135 H135        1.7119  -16.4991  -49.4819 H         1 UNK         0.0800 
    136 H136       -0.2324  -15.5307  -52.4734 H         1 UNK         0.1150 
    137 H137       -3.9222  -17.1164  -50.9781 H         1 UNK         0.1150 
    138 H138       -0.4881  -16.9119  -48.4207 H         1 UNK         0.1150 
    139 H139       -2.7220  -17.3581  -47.4696 H         1 UNK         0.0800 
    140 H140       -4.1391  -17.2488  -48.4809 H         1 UNK         0.0800 
    141 H141       -1.3539  -19.3477  -47.0883 H         1 UNK         0.0800 
    142 H142       -0.8041  -19.5170  -48.7280 H         1 UNK         0.0800 
    143 H143       -0.9888  -21.8579  -48.7279 H         1 UNK         0.0600 
    144 H144        0.3252  -20.7155  -46.4938 H         1 UNK         0.3000 
    145 H145        1.9211  -23.6658  -45.2872 H         1 UNK         0.0600 
    146 H146        3.8846  -22.1817  -45.5747 H         1 UNK         0.0600 
    147 H147        3.3462  -22.7782  -47.1375 H         1 UNK         0.0600 
    148 H148        2.9701  -21.1294  -46.6525 H         1 UNK         0.0600 
    149 H149        2.0001  -20.9939  -44.3440 H         1 UNK         0.3000 
    150 H150       -0.8784  -21.2003  -42.1805 H         1 UNK         0.0600 
    151 H151        1.1024  -22.1928  -41.0085 H         1 UNK         0.0600 
    152 H152        0.8497  -20.5115  -40.5684 H         1 UNK         0.0600 
    153 H153        2.1347  -20.9435  -41.6948 H         1 UNK         0.0600 
    154 H154        0.8746  -19.0349  -42.6703 H         1 UNK         0.3000 
    155 H155       -0.9765  -17.5595  -45.3972 H         1 UNK         0.0600 
    156 H156       -0.7025  -15.6568  -43.7909 H         1 UNK         0.0600 
    157 H157       -1.9825  -16.7554  -43.2919 H         1 UNK         0.0600 
    158 H158       -0.4218  -16.7986  -42.4822 H         1 UNK         0.0600 
    159 H159        1.4650  -16.7585  -44.2226 H         1 UNK         0.3000 
    160 H160        3.7006  -18.7016  -46.2248 H         1 UNK         0.0600 
    161 H161        2.9937  -15.7227  -46.1286 H         1 UNK         0.0600 
    162 H162        3.1901  -16.7048  -47.5720 H         1 UNK         0.0600 
    163 H163        4.5787  -16.3701  -46.5501 H         1 UNK         0.0600 
    164 H164        3.9190  -16.7954  -44.0419 H         1 UNK         0.3000 
    165 H165        4.2109  -19.2541  -41.4703 H         1 UNK         0.0600 
    166 H166        6.3914  -18.1267  -41.1461 H         1 UNK         0.0600 
    167 H167        6.4652  -19.1875  -42.5439 H         1 UNK         0.0600 
    168 H168        6.3196  -17.4490  -42.7730 H         1 UNK         0.0600 
    169 H169        4.4783  -16.3976  -41.4867 H         1 UNK         0.3000 
    170 H170        1.0395  -15.6534  -40.9018 H         1 UNK         0.0600 
    171 H171        1.9312  -14.6231  -38.8480 H         1 UNK         0.0600 
    172 H172        3.4362  -15.5312  -38.9993 H         1 UNK         0.0600 
    173 H173        1.9245  -16.3698  -38.6706 H         1 UNK         0.0600 
    174 H174        3.0500  -13.8074  -40.8663 H         1 UNK         0.3000 
    175 H175        3.9394  -12.6396  -42.5614 H         1 UNK         0.0600 
    176 H176        4.7617  -13.9060  -44.5780 H         1 UNK         0.0600 
    177 H177        3.2759  -13.4939  -45.4283 H         1 UNK         0.0600 
    178 H178        4.3926  -12.2257  -44.9402 H         1 UNK         0.0600 
    179 H179        1.4056  -12.4617  -44.1524 H         1 UNK         0.3000 
    180 H180        0.0580  -10.0106  -42.0795 H         1 UNK         0.0600 
    181 H181        1.3731   -9.2097  -44.7316 H         1 UNK         0.0600 
    182 H182        1.6041   -8.3975  -43.1881 H         1 UNK         0.0600 
    183 H183        0.0244   -8.3790  -43.9544 H         1 UNK         0.0600 
    184 H184       -0.4865  -10.8039  -44.8123 H         1 UNK         0.3000 
    185 H185       -2.2057  -13.7648  -44.0899 H         1 UNK         0.0600 
    186 H186       -3.9739  -12.1384  -43.3889 H         1 UNK         0.0600 
    187 H187       -3.5415  -11.0830  -44.7297 H         1 UNK         0.0600 
    188 H188       -4.2160  -12.6826  -45.0412 H         1 UNK         0.0600 
    189 H189       -2.2205  -12.3031  -46.4861 H         1 UNK         0.3000 
    190 H190       -2.1775  -21.3043  -45.3666 H         1 UNK         0.3000 
    191 H191       -4.7063  -22.4673  -45.6824 H         1 UNK         0.0600 
    192 H192       -2.9753  -22.2134  -43.1706 H         1 UNK         0.0600 
    193 H193       -4.7070  -22.5266  -43.1837 H         1 UNK         0.0600 
    194 H194       -4.0906  -20.9981  -43.7928 H         1 UNK         0.0600 
    195 H195       -1.6116  -24.0343  -44.9011 H         1 UNK         0.3000 
    196 H196       -2.6757  -26.6469  -44.3539 H         1 UNK         0.0600 
    197 H197       -0.2800  -27.3265  -44.5700 H         1 UNK         0.0600 
    198 H198       -0.4467  -25.9003  -43.5578 H         1 UNK         0.0600 
    199 H199        0.1221  -25.7407  -45.2187 H         1 UNK         0.0600 
    200 H200       -2.2402  -24.9185  -47.3184 H         1 UNK         0.3000 
    201 H201       -2.3228  -27.3693  -49.0084 H         1 UNK         0.0600 
    202 H202       -0.5108  -25.7190  -49.4949 H         1 UNK         0.0600 
    203 H203       -1.7050  -24.4543  -49.7245 H         1 UNK         0.0600 
    204 H204       -1.6385  -25.8308  -50.8302 H         1 UNK         0.0600 
    205 H205       -3.5251  -25.2079  -50.9724 H         1 UNK         0.3000 
    206 H206       -6.2442  -26.1229  -50.7084 H         1 UNK         0.0600 
    207 H207       -5.1082  -25.8615  -52.9030 H         1 UNK         0.0600 
    208 H208       -6.5633  -24.8857  -52.8264 H         1 UNK         0.0600 
    209 H209       -4.9875  -24.1201  -52.6600 H         1 UNK         0.0600 
    210 H210       -4.6599  -23.4312  -49.3220 H         1 UNK         0.3000 
    211 H211       -5.2337  -21.6874  -48.1391 H         1 UNK         0.0600 
    212 H212       -7.9878  -22.9806  -47.8524 H         1 UNK         0.0600 
    213 H213       -7.2208  -21.8630  -46.7330 H         1 UNK         0.0600 
    214 H214       -6.5548  -23.4728  -46.9530 H         1 UNK         0.0600 
    215 H215       -6.1830  -21.6209  -51.1703 H         1 UNK         0.3000 
    216 H216       -6.9632  -18.8794  -51.1387 H         1 UNK         0.0600 
    217 H217       -9.2016  -20.8817  -51.7899 H         1 UNK         0.0600 
    218 H218       -9.2622  -19.1687  -52.1880 H         1 UNK         0.0600 
    219 H219       -9.2216  -19.6705  -50.5110 H         1 UNK         0.0600 
    220 H220       -7.0055  -21.9423  -53.0072 H         1 UNK         0.3000 
    221 H221       -6.9055  -20.7066  -55.5736 H         1 UNK         0.0600 
    222 H222       -7.7417  -23.0509  -55.0702 H         1 UNK         0.0600 
    223 H223       -6.0745  -23.5521  -54.7843 H         1 UNK         0.0600 
    224 H224       -6.5713  -23.0057  -56.3752 H         1 UNK         0.0600 
    225 H225       -5.1641  -21.1198  -57.1885 H         1 UNK         0.3000 
    226 H226       -2.8014  -19.8087  -56.5863 H         1 UNK         0.0600 
    227 H227       -3.7478  -19.9879  -58.8613 H         1 UNK         0.0600 
    228 H228       -2.0869  -20.5564  -58.8660 H         1 UNK         0.0600 
    229 H229       -3.4076  -21.7188  -58.9030 H         1 UNK         0.0600 
    230 H230       -3.4349  -23.2454  -56.2934 H         1 UNK         0.3000 
    231 H231       -0.7630  -24.2222  -56.0674 H         1 UNK         0.0600 
    232 H232       -3.3996  -25.2715  -54.8974 H         1 UNK         0.0600 
    233 H233       -1.8981  -26.1832  -54.9975 H         1 UNK         0.0600 
    234 H234       -2.7218  -25.6959  -56.4698 H         1 UNK         0.0600 
    235 H235       -2.8284  -22.4663  -53.8057 H         1 UNK         0.3000 
    236 H236       -1.0949  -23.0304  -51.4773 H         1 UNK         0.0600 
    237 H237       -3.5596  -21.2183  -51.7109 H         1 UNK         0.0600 
    238 H238       -3.6084  -22.9162  -51.2445 H         1 UNK         0.0600 
    239 H239       -2.7660  -21.7546  -50.2455 H         1 UNK         0.0600 
    240 H240       -1.9341  -20.4378  -53.7946 H         1 UNK         0.3000 
    241 H241       -0.3493  -18.4229  -52.5691 H         1 UNK         0.0600 
    242 H242        2.2504  -20.3830  -55.0997 H         1 UNK         0.3800 
    243 H243        0.5493  -20.7868  -55.1738 H         1 UNK         0.3800 
    244 H244       -1.1408  -18.5260  -55.5161 H         1 UNK         0.0800 
    245 H245       -0.6335  -17.1148  -54.6376 H         1 UNK         0.0800 
    246 H246       -2.2323  -15.4148  -53.8463 H         1 UNK         0.0800 
    247 H247       -3.7901  -15.7210  -53.1206 H         1 UNK         0.0800 
@<TRIPOS>BOND
     1    1    2 1    
     2    1  127 1    
     3    1  128 1    
     4    1  129 1    
     5    2    3 2    
     6    2    4 am   BACKBONE|DICT|INTERRES
     7    4    5 1    
     8    4  130 1    
     9    5    6 1    
    10    5   65 1    
    11    5  131 1    
    12    6    7 1    
    13    6  132 1    
    14    6  133 1    
    15    7    8 1    
    16    8    9 1    
    17    8  134 1    
    18    8  135 1    
    19    9   10 ar   
    20    9   14 ar   
    21   10   11 ar   
    22   10  136 1    
    23   11   12 ar   
    24   11  126 1    
    25   12   13 ar   
    26   12  137 1    
    27   13   14 ar   
    28   13   15 1    
    29   14  138 1    
    30   15   16 1    
    31   15  139 1    
    32   15  140 1    
    33   16   17 1    
    34   17   18 1    
    35   17  141 1    
    36   17  142 1    
    37   18   19 1    
    38   18   67 1    
    39   18  143 1    
    40   19   20 am   BACKBONE|DICT|INTERRES
    41   19  144 1    
    42   20   21 2    
    43   20   22 1    
    44   22   23 1    
    45   22   24 1    
    46   22  145 1    
    47   23  146 1    
    48   23  147 1    
    49   23  148 1    
    50   24   25 am   BACKBONE|DICT|INTERRES
    51   24  149 1    
    52   25   26 2    
    53   25   27 1    
    54   27   28 1    
    55   27   29 1    
    56   27  150 1    
    57   28  151 1    
    58   28  152 1    
    59   28  153 1    
    60   29   30 am   BACKBONE|DICT|INTERRES
    61   29  154 1    
    62   30   31 2    
    63   30   32 1    
    64   32   33 1    
    65   32   34 1    
    66   32  155 1    
    67   33  156 1    
    68   33  157 1    
    69   33  158 1    
    70   34   35 am   BACKBONE|DICT|INTERRES
    71   34  159 1    
    72   35   36 2    
    73   35   37 1    
    74   37   38 1    
    75   37   39 1    
    76   37  160 1    
    77   38  161 1    
    78   38  162 1    
    79   38  163 1    
    80   39   40 am   BACKBONE|DICT|INTERRES
    81   39  164 1    
    82   40   41 2    
    83   40   42 1    
    84   42   43 1    
    85   42   44 1    
    86   42  165 1    
    87   43  166 1    
    88   43  167 1    
    89   43  168 1    
    90   44   45 am   BACKBONE|DICT|INTERRES
    91   44  169 1    
    92   45   46 2    
    93   45   47 1    
    94   47   48 1    
    95   47   49 1    
    96   47  170 1    
    97   48  171 1    
    98   48  172 1    
    99   48  173 1    
   100   49   50 am   BACKBONE|DICT|INTERRES
   101   49  174 1    
   102   50   51 2    
   103   50   52 1    
   104   52   53 1    
   105   52   54 1    
   106   52  175 1    
   107   53  176 1    
   108   53  177 1    
   109   53  178 1    
   110   54   55 am   BACKBONE|DICT|INTERRES
   111   54  179 1    
   112   55   56 2    
   113   55   57 1    
   114   57   58 1    
   115   57   59 1    
   116   57  180 1    
   117   58  181 1    
   118   58  182 1    
   119   58  183 1    
   120   59   60 am   BACKBONE|DICT|INTERRES
   121   59  184 1    
   122   60   61 2    
   123   60   62 1    
   124   62   63 1    
   125   62   64 1    
   126   62  185 1    
   127   63  186 1    
   128   63  187 1    
   129   63  188 1    
   130   64   65 am   BACKBONE|DICT|INTERRES
   131   64  189 1    
   132   65   66 2    
   133   67   68 2    
   134   67   69 am   BACKBONE|DICT|INTERRES
   135   69   70 1    
   136   69  190 1    
   137   70   71 1    
   138   70   72 1    
   139   70  191 1    
   140   71  192 1    
   141   71  193 1    
   142   71  194 1    
   143   72   73 2    
   144   72   74 am   BACKBONE|DICT|INTERRES
   145   74   75 1    
   146   74  195 1    
   147   75   76 1    
   148   75   77 1    
   149   75  196 1    
   150   76  197 1    
   151   76  198 1    
   152   76  199 1    
   153   77   78 2    
   154   77   79 am   BACKBONE|DICT|INTERRES
   155   79   80 1    
   156   79  200 1    
   157   80   81 1    
   158   80   82 1    
   159   80  201 1    
   160   81  202 1    
   161   81  203 1    
   162   81  204 1    
   163   82   83 2    
   164   82   84 am   BACKBONE|DICT|INTERRES
   165   84   85 1    
   166   84  205 1    
   167   85   86 1    
   168   85   87 1    
   169   85  206 1    
   170   86  207 1    
   171   86  208 1    
   172   86  209 1    
   173   87   88 2    
   174   87   89 am   BACKBONE|DICT|INTERRES
   175   89   90 1    
   176   89  210 1    
   177   90   91 1    
   178   90   92 1    
   179   90  211 1    
   180   91  212 1    
   181   91  213 1    
   182   91  214 1    
   183   92   93 2    
   184   92   94 am   BACKBONE|DICT|INTERRES
   185   94   95 1    
   186   94  215 1    
   187   95   96 1    
   188   95   97 1    
   189   95  216 1    
   190   96  217 1    
   191   96  218 1    
   192   96  219 1    
   193   97   98 2    
   194   97   99 am   BACKBONE|DICT|INTERRES
   195   99  100 1    
   196   99  220 1    
   197  100  101 1    
   198  100  102 1    
   199  100  221 1    
   200  101  222 1    
   201  101  223 1    
   202  101  224 1    
   203  102  103 2    
   204  102  104 am   BACKBONE|DICT|INTERRES
   205  104  105 1    
   206  104  225 1    
   207  105  106 1    
   208  105  107 1    
   209  105  226 1    
   210  106  227 1    
   211  106  228 1    
   212  106  229 1    
   213  107  108 2    
   214  107  109 am   BACKBONE|DICT|INTERRES
   215  109  110 1    
   216  109  230 1    
   217  110  111 1    
   218  110  112 1    
   219  110  231 1    
   220  111  232 1    
   221  111  233 1    
   222  111  234 1    
   223  112  113 2    
   224  112  114 am   BACKBONE|DICT|INTERRES
   225  114  115 1    
   226  114  235 1    
   227  115  116 1    
   228  115  117 1    
   229  115  236 1    
   230  116  237 1    
   231  116  238 1    
   232  116  239 1    
   233  117  118 2    
   234  117  119 am   BACKBONE|DICT|INTERRES
   235  119  120 1    
   236  119  240 1    
   237  120  121 1    
   238  120  124 1    
   239  120  241 1    
   240  121  122 am   BACKBONE|DICT|INTERRES
   241  121  123 2    
   242  122  242 1    
   243  122  243 1    
   244  124  125 1    
   245  124  244 1    
   246  124  245 1    
   247  125  126 1    
   248  126  246 1    
   249  126  247 1    
@<TRIPOS>SUBSTRUCTURE
     1 UNK         1 GROUP             0       ****    0 ROOT    
