@<TRIPOS>MOLECULE
3R540
247   249    1
SMALL
USER_CHARGES


@<TRIPOS>ATOM
      1 CA          5.5749  -13.9387  -44.4873 C.3       0 UNK        -0.1800 
      2 C           4.1302  -13.9153  -44.9614 C.2       0 UNK         0.5000 
      3 O           3.3664  -13.0399  -44.5557 O.2       0 UNK        -0.5000 
      4 N           3.7521  -14.8571  -45.8365 N.am      1 UNK        -0.5000 
      5 CA          2.3862  -15.0342  -46.3541 C.3       1 UNK         0.1400 
      6 C6          2.2306  -16.3772  -47.1220 C.3       23 UNK        -0.0398 
      7 S7          0.8037  -17.3599  -46.5494 S.3       23 UNK        -0.2404 
      8 C8         -0.4583  -16.9856  -47.8144 C.3       23 UNK        -0.0205 
      9 C9         -0.0983  -17.4664  -49.2167 C.ar      23 UNK        -0.0193 
     10 C10        -0.4617  -16.6983  -50.3266 C.ar      23 UNK        -0.1150 
     11 C11        -0.1615  -17.1247  -51.6267 C.ar      23 UNK        -0.0193 
     12 C12         0.5459  -18.3210  -51.8007 C.ar      23 UNK        -0.1150 
     13 C13         0.9215  -19.0967  -50.6997 C.ar      23 UNK        -0.0193 
     14 C14         0.5813  -18.6708  -49.4159 C.ar      23 UNK        -0.1150 
     15 C15         1.7330  -20.3721  -50.8792 C.3       23 UNK        -0.0205 
     16 S16         0.7737  -21.7600  -51.5616 S.3       23 UNK        -0.2404 
     17 C17        -0.5984  -21.9837  -50.3810 C.3       23 UNK        -0.0398 
     18 CA         -0.2232  -22.8789  -49.1768 C.3       11 UNK         0.1400 
     19 N           0.4783  -22.1269  -48.1303 N.am      11 UNK        -0.5000 
     20 C           1.2565  -22.6925  -47.1994 C.2       10 UNK         0.5000 
     21 O           1.4621  -23.9044  -47.1269 O.2       10 UNK        -0.5000 
     22 CA          1.8825  -21.7470  -46.1559 C.3       10 UNK         0.1400 
     23 CB          3.0663  -20.9696  -46.7527 C.3       10 UNK        -0.1800 
     24 N           0.9449  -20.8021  -45.5393 N.am      10 UNK        -0.5000 
     25 C          -0.1507  -21.1466  -44.8470 C.2       9 UNK         0.5000 
     26 O          -0.6081  -22.2890  -44.8360 O.2       9 UNK        -0.5000 
     27 CA         -0.8451  -20.0389  -44.0213 C.3       9 UNK         0.1400 
     28 CB         -1.7188  -20.6087  -42.8847 C.3       9 UNK        -0.1800 
     29 N           0.0571  -19.0184  -43.4726 N.am      9 UNK        -0.5000 
     30 C           1.1471  -19.2079  -42.7108 C.2       8 UNK         0.5000 
     31 O           1.6077  -20.3116  -42.4172 O.2       8 UNK        -0.5000 
     32 CA          1.8242  -17.9409  -42.1595 C.3       8 UNK         0.1400 
     33 CB          2.5116  -17.1365  -43.2698 C.3       8 UNK        -0.1800 
     34 N           0.8800  -17.0775  -41.4541 N.am      8 UNK        -0.5000 
     35 C           0.3683  -17.3502  -40.2460 C.2       7 UNK         0.5000 
     36 O           0.6451  -18.3555  -39.5906 O.2       7 UNK        -0.5000 
     37 CA         -0.6150  -16.3202  -39.6710 C.3       7 UNK         0.1400 
     38 CB          0.1359  -15.0892  -39.1408 C.3       7 UNK        -0.1800 
     39 N          -1.5956  -15.9063  -40.6727 N.am      7 UNK        -0.5000 
     40 C          -2.7123  -16.5915  -40.9547 C.2       6 UNK         0.5000 
     41 O          -3.0402  -17.6296  -40.3791 O.2       6 UNK        -0.5000 
     42 CA         -3.6324  -16.0199  -42.0503 C.3       6 UNK         0.1400 
     43 CB         -4.7617  -15.1891  -41.4219 C.3       6 UNK        -0.1800 
     44 N          -2.9285  -15.1956  -43.0333 N.am      6 UNK        -0.5000 
     45 C          -2.1091  -15.6811  -43.9744 C.2       5 UNK         0.5000 
     46 O          -1.8375  -16.8737  -44.1011 O.2       5 UNK        -0.5000 
     47 CA         -1.4593  -14.6518  -44.9134 C.3       5 UNK         0.1400 
     48 CB         -2.4441  -14.2492  -46.0223 C.3       5 UNK        -0.1800 
     49 N          -0.9619  -13.4475  -44.2425 N.am      5 UNK        -0.5000 
     50 C          -0.1107  -13.4189  -43.2083 C.2       4 UNK         0.5000 
     51 O           0.3295  -14.4269  -42.6500 O.2       4 UNK        -0.5000 
     52 CA          0.3203  -12.0193  -42.7499 C.3       4 UNK         0.1400 
     53 CB          1.0606  -12.0241  -41.4007 C.3       4 UNK        -0.1800 
     54 N           1.1867  -11.4351  -43.7681 N.am      4 UNK        -0.5000 
     55 C           1.1335  -10.1665  -44.1904 C.2       3 UNK         0.5000 
     56 O           0.2821   -9.3574  -43.8196 O.2       3 UNK        -0.5000 
     57 CA          2.2140   -9.7158  -45.1864 C.3       3 UNK         0.1400 
     58 CB          3.5259   -9.4080  -44.4463 C.3       3 UNK        -0.1800 
     59 N           2.4721  -10.7306  -46.2077 N.am      3 UNK        -0.5000 
     60 C           2.0787  -10.6465  -47.4867 C.2       2 UNK         0.5000 
     61 O           1.4239   -9.7065  -47.9392 O.2       2 UNK        -0.5000 
     62 CA          2.4988  -11.7882  -48.4368 C.3       2 UNK         0.1400 
     63 CB          3.7279  -11.3735  -49.2606 C.3       2 UNK        -0.1800 
     64 N           2.8000  -13.0394  -47.7411 N.am      2 UNK        -0.5000 
     65 C           1.8766  -13.8359  -47.1869 C.2       1 UNK         0.5000 
     66 O           0.6680  -13.6344  -47.2857 O.2       1 UNK        -0.5000 
     67 C          -1.4670  -23.5984  -48.6160 C.2       11 UNK         0.5000 
     68 O          -1.8058  -24.6786  -49.0989 O.2       11 UNK        -0.5000 
     69 N          -2.1137  -23.0139  -47.5970 N.am      12 UNK        -0.5000 
     70 CA         -3.2784  -23.5955  -46.9279 C.3       12 UNK         0.1400 
     71 CB         -3.9599  -22.5334  -46.0541 C.3       12 UNK        -0.1800 
     72 C          -2.9073  -24.8452  -46.1099 C.2       12 UNK         0.5000 
     73 O          -3.6223  -25.8445  -46.1731 O.2       12 UNK        -0.5000 
     74 N          -1.7606  -24.7946  -45.4176 N.am      13 UNK        -0.5000 
     75 CA         -1.1581  -25.9183  -44.6960 C.3       13 UNK         0.1400 
     76 CB          0.0350  -25.4073  -43.8746 C.3       13 UNK        -0.1800 
     77 C          -0.7228  -27.0678  -45.6264 C.2       13 UNK         0.5000 
     78 O          -0.7832  -28.2306  -45.2264 O.2       13 UNK        -0.5000 
     79 N          -0.3312  -26.7251  -46.8614 N.am      14 UNK        -0.5000 
     80 CA         -0.0203  -27.6667  -47.9391 C.3       14 UNK         0.1400 
     81 CB          0.9064  -26.9700  -48.9494 C.3       14 UNK        -0.1800 
     82 C          -1.2766  -28.2238  -48.6456 C.2       14 UNK         0.5000 
     83 O          -1.1382  -29.0968  -49.5031 O.2       14 UNK        -0.5000 
     84 N          -2.4655  -27.7081  -48.2929 N.am      15 UNK        -0.5000 
     85 CA         -3.7859  -28.0128  -48.8563 C.3       15 UNK         0.1400 
     86 CB         -4.1727  -29.4851  -48.6044 C.3       15 UNK        -0.1800 
     87 C          -3.9383  -27.5929  -50.3343 C.2       15 UNK         0.5000 
     88 O          -4.7642  -28.1577  -51.0541 O.2       15 UNK        -0.5000 
     89 N          -3.1621  -26.5894  -50.7600 N.am      16 UNK        -0.5000 
     90 CA         -3.1827  -26.0121  -52.0980 C.3       16 UNK         0.1400 
     91 CB         -1.7378  -25.6782  -52.5095 C.3       16 UNK        -0.1800 
     92 C          -4.0983  -24.7784  -52.0810 C.2       16 UNK         0.5000 
     93 O          -3.6151  -23.6464  -52.0985 O.2       16 UNK        -0.5000 
     94 N          -5.4140  -25.0183  -52.0035 N.am      17 UNK        -0.5000 
     95 CA         -6.4520  -23.9960  -51.8320 C.3       17 UNK         0.1400 
     96 CB         -7.8238  -24.6786  -51.7303 C.3       17 UNK        -0.1800 
     97 C          -6.4665  -22.9098  -52.9250 C.2       17 UNK         0.5000 
     98 O          -6.6543  -21.7359  -52.6086 O.2       17 UNK        -0.5000 
     99 N          -6.2253  -23.3072  -54.1819 N.am      18 UNK        -0.5000 
    100 CA        -6.1306  -22.3962  -55.3268 C.3       18 UNK         0.1400 
    101 CB        -6.1546  -23.2131  -56.6270 C.3       18 UNK        -0.1800 
    102 C         -4.8794  -21.4982  -55.2765 C.2       18 UNK         0.5000 
    103 O         -4.9329  -20.3487  -55.7192 O.2       18 UNK        -0.5000 
    104 N         -3.7851  -22.0324  -54.7174 N.am      19 UNK        -0.5000 
    105 CA        -2.5368  -21.3078  -54.4987 C.3       19 UNK         0.1400 
    106 CB        -1.3732  -22.2998  -54.3804 C.3       19 UNK        -0.1800 
    107 C         -2.6263  -20.3949  -53.2653 C.2       19 UNK         0.5000 
    108 O         -2.0949  -19.2912  -53.3096 O.2       19 UNK        -0.5000 
    109 N         -3.3462  -20.8281  -52.2199 N.am      20 UNK        -0.5000 
    110 CA        -3.6553  -20.0317  -51.0273 C.3       20 UNK         0.1400 
    111 CB        -4.2539  -20.9450  -49.9466 C.3       20 UNK        -0.1800 
    112 C         -4.5972  -18.8497  -51.3265 C.2       20 UNK         0.5000 
    113 O         -4.4738  -17.7982  -50.6994 O.2       20 UNK        -0.5000 
    114 N         -5.4949  -19.0320  -52.3049 N.am      21 UNK        -0.5000 
    115 CA        -6.3100  -17.9752  -52.9089 C.3       21 UNK         0.1400 
    116 CB        -7.5027  -18.6234  -53.6295 C.3       21 UNK        -0.1800 
    117 C         -5.5094  -17.0788  -53.8800 C.2       21 UNK         0.5000 
    118 O         -6.0145  -16.0328  -54.2903 O.2       21 UNK        -0.5000 
    119 N         -4.2849  -17.4999  -54.2210 N.am      22 UNK        -0.5000 
    120 CA        -3.3087  -16.8176  -55.0822 C.3       22 UNK         0.1400 
    121 C         -3.7523  -16.7163  -56.5705 C.2       22 UNK         0.5000 
    122 N         -4.4932  -17.6913  -57.0865 N.am      22 UNK        -0.7600 
    123 O         -3.4113  -15.7679  -57.2728 O.2       22 UNK        -0.5000 
    124 C124       -2.7744  -15.4845  -54.4807 C.3       23 UNK        -0.0398 
    125 S125       -2.2713  -15.6334  -52.7265 S.3       23 UNK        -0.2404 
    126 C126       -0.5748  -16.3010  -52.8481 C.3       23 UNK        -0.0205 
    127 H127        6.1394  -14.7510  -44.9454 H         1 UNK         0.0600 
    128 H128        5.6097  -14.0669  -43.4055 H         1 UNK         0.0600 
    129 H129        6.0660  -12.9981  -44.7364 H         1 UNK         0.0600 
    130 H130        4.4326  -15.5360  -46.1468 H         1 UNK         0.3000 
    131 H131        1.7469  -15.0538  -45.4710 H         1 UNK         0.0600 
    132 H132        3.1044  -17.0111  -46.9659 H         1 UNK         0.0800 
    133 H133        2.1827  -16.2344  -48.2033 H         1 UNK         0.0800 
    134 H134       -1.3969  -17.4549  -47.5175 H         1 UNK         0.0800 
    135 H135       -0.6390  -15.9105  -47.8193 H         1 UNK         0.0800 
    136 H136       -0.9918  -15.7682  -50.1782 H         1 UNK         0.1150 
    137 H137        0.7983  -18.6574  -52.7965 H         1 UNK         0.1150 
    138 H138        0.8689  -19.2679  -48.5653 H         1 UNK         0.1150 
    139 H139        2.5667  -20.1662  -51.5517 H         1 UNK         0.0800 
    140 H140        2.1836  -20.6832  -49.9362 H         1 UNK         0.0800 
    141 H141       -1.4031  -22.4397  -50.9604 H         1 UNK         0.0800 
    142 H142       -0.9810  -21.0183  -50.0535 H         1 UNK         0.0800 
    143 H143        0.4425  -23.6661  -49.5380 H         1 UNK         0.0600 
    144 H144        0.3406  -21.1290  -48.1075 H         1 UNK         0.3000 
    145 H145        2.2710  -22.3764  -45.3524 H         1 UNK         0.0600 
    146 H146        3.6064  -20.4239  -45.9787 H         1 UNK         0.0600 
    147 H147        3.7787  -21.6446  -47.2291 H         1 UNK         0.0600 
    148 H148        2.7443  -20.2483  -47.5032 H         1 UNK         0.0600 
    149 H149        1.2333  -19.8346  -45.5062 H         1 UNK         0.3000 
    150 H150       -1.5052  -19.5204  -44.7175 H         1 UNK         0.0600 
    151 H151       -2.4916  -21.2745  -43.2677 H         1 UNK         0.0600 
    152 H152       -2.2240  -19.8097  -42.3413 H         1 UNK         0.0600 
    153 H153       -1.1239  -21.1759  -42.1681 H         1 UNK         0.0600 
    154 H154       -0.2529  -18.0671  -43.6430 H         1 UNK         0.3000 
    155 H155        2.5958  -18.2584  -41.4547 H         1 UNK         0.0600 
    156 H156        1.7748  -16.6711  -43.9199 H         1 UNK         0.0600 
    157 H157        3.1527  -17.7686  -43.8856 H         1 UNK         0.0600 
    158 H158        3.1321  -16.3423  -42.8546 H         1 UNK         0.0600 
    159 H159        0.6193  -16.2092  -41.9134 H         1 UNK         0.3000 
    160 H160       -1.1365  -16.7795  -38.8282 H         1 UNK         0.0600 
    161 H161        0.7481  -14.6260  -39.9142 H         1 UNK         0.0600 
    162 H162        0.8023  -15.3659  -38.3230 H         1 UNK         0.0600 
    163 H163       -0.5540  -14.3367  -38.7586 H         1 UNK         0.0600 
    164 H164       -1.3625  -15.0992  -41.2339 H         1 UNK         0.3000 
    165 H165       -4.0834  -16.8663  -42.5732 H         1 UNK         0.0600 
    166 H166       -5.4645  -14.8413  -42.1794 H         1 UNK         0.0600 
    167 H167       -5.3288  -15.7813  -40.7024 H         1 UNK         0.0600 
    168 H168       -4.3743  -14.3159  -40.8954 H         1 UNK         0.0600 
    169 H169       -3.0889  -14.1997  -42.9959 H         1 UNK         0.3000 
    170 H170       -0.6023  -15.1358  -45.3772 H         1 UNK         0.0600 
    171 H171       -2.8135  -15.1268  -46.5545 H         1 UNK         0.0600 
    172 H172       -3.3094  -13.7200  -45.6215 H         1 UNK         0.0600 
    173 H173       -1.9693  -13.6021  -46.7595 H         1 UNK         0.0600 
    174 H174       -1.2418  -12.5675  -44.6506 H         1 UNK         0.3000 
    175 H175       -0.5898  -11.4269  -42.6349 H         1 UNK         0.0600 
    176 H176        1.9574  -12.6444  -41.4332 H         1 UNK         0.0600 
    177 H177        1.3628  -11.0167  -41.1143 H         1 UNK         0.0600 
    178 H178        0.4172  -12.4041  -40.6074 H         1 UNK         0.0600 
    179 H179        1.9291  -12.0432  -44.1108 H         1 UNK         0.3000 
    180 H180        1.8699   -8.7881  -45.6484 H         1 UNK         0.0600 
    181 H181        4.2822   -9.0246  -45.1313 H         1 UNK         0.0600 
    182 H182        3.9346  -10.2947  -43.9597 H         1 UNK         0.0600 
    183 H183        3.3718   -8.6517  -43.6756 H         1 UNK         0.0600 
    184 H184        2.9606  -11.5623  -45.8974 H         1 UNK         0.3000 
    185 H185        1.6704  -11.9654  -49.1262 H         1 UNK         0.0600 
    186 H186        3.9963  -12.1435  -49.9841 H         1 UNK         0.0600 
    187 H187        3.5324  -10.4579  -49.8204 H         1 UNK         0.0600 
    188 H188        4.5954  -11.1907  -48.6252 H         1 UNK         0.0600 
    189 H189        3.7747  -13.2705  -47.6162 H         1 UNK         0.3000 
    190 H190       -1.7441  -22.1606  -47.2071 H         1 UNK         0.3000 
    191 H191       -3.9909  -23.9031  -47.6968 H         1 UNK         0.0600 
    192 H192       -4.8429  -22.9424  -45.5614 H         1 UNK         0.0600 
    193 H193       -4.2861  -21.6819  -46.6513 H         1 UNK         0.0600 
    194 H194       -3.2936  -22.1624  -45.2770 H         1 UNK         0.0600 
    195 H195       -1.2605  -23.9086  -45.3668 H         1 UNK         0.3000 
    196 H196       -1.9061  -26.3146  -44.0064 H         1 UNK         0.0600 
    197 H197        0.8025  -24.9678  -44.5132 H         1 UNK         0.0600 
    198 H198       -0.2772  -24.6469  -43.1583 H         1 UNK         0.0600 
    199 H199        0.4985  -26.2170  -43.3098 H         1 UNK         0.0600 
    200 H200       -0.2823  -25.7424  -47.0934 H         1 UNK         0.3000 
    201 H201        0.5193  -28.5165  -47.5163 H         1 UNK         0.0600 
    202 H202        0.4041  -26.1479  -49.4584 H         1 UNK         0.0600 
    203 H203        1.2443  -27.6684  -49.7158 H         1 UNK         0.0600 
    204 H204        1.7951  -26.5694  -48.4612 H         1 UNK         0.0600 
    205 H205       -2.4710  -26.9914  -47.5777 H         1 UNK         0.3000 
    206 H206       -4.4932  -27.3943  -48.3027 H         1 UNK         0.0600 
    207 H207       -4.0569  -29.7483  -47.5529 H         1 UNK         0.0600 
    208 H208       -5.2150  -29.6662  -48.8693 H         1 UNK         0.0600 
    209 H209       -3.5640  -30.1722  -49.1924 H         1 UNK         0.0600 
    210 H210       -2.5752  -26.1052  -50.0845 H         1 UNK         0.3000 
    211 H211       -3.5814  -26.7270  -52.8206 H         1 UNK         0.0600 
    212 H212       -1.7052  -25.2821  -53.5246 H         1 UNK         0.0600 
    213 H213       -1.1096  -26.5689  -52.4897 H         1 UNK         0.0600 
    214 H214       -1.2839  -24.9391  -51.8480 H         1 UNK         0.0600 
    215 H215       -5.7202  -25.9814  -51.9727 H         1 UNK         0.3000 
    216 H216       -6.2547  -23.4951  -50.8824 H         1 UNK         0.0600 
    217 H217       -8.0629  -25.2394  -52.6347 H         1 UNK         0.0600 
    218 H218       -8.6161  -23.9438  -51.5799 H         1 UNK         0.0600 
    219 H219       -7.8594  -25.3692  -50.8875 H         1 UNK         0.0600 
    220 H220       -6.0795  -24.2900  -54.3605 H         1 UNK         0.3000 
    221 H221       -7.0062  -21.7436  -55.3181 H         1 UNK         0.0600 
    222 H222       -7.0721  -23.7960  -56.7097 H         1 UNK         0.0600 
    223 H223       -5.3113  -23.9023  -56.6864 H         1 UNK         0.0600 
    224 H224       -6.1065  -22.5594  -57.4991 H         1 UNK         0.0600 
    225 H225       -3.8446  -22.9582  -54.3184 H         1 UNK         0.3000 
    226 H226       -2.3459  -20.6762  -55.3693 H         1 UNK         0.0600 
    227 H227       -1.4427  -22.8973  -53.4727 H         1 UNK         0.0600 
    228 H228       -1.3403  -22.9794  -55.2319 H         1 UNK         0.0600 
    229 H229       -0.4203  -21.7705  -54.3506 H         1 UNK         0.0600 
    230 H230       -3.6890  -21.7851  -52.2354 H         1 UNK         0.3000 
    231 H231       -2.7201  -19.6125  -50.6508 H         1 UNK         0.0600 
    232 H232       -5.2315  -21.3266  -50.2411 H         1 UNK         0.0600 
    233 H233       -4.3818  -20.4049  -49.0080 H         1 UNK         0.0600 
    234 H234       -3.6120  -21.8014  -49.7474 H         1 UNK         0.0600 
    235 H235       -5.6035  -19.9629  -52.6919 H         1 UNK         0.3000 
    236 H236       -6.6969  -17.3349  -52.1137 H         1 UNK         0.0600 
    237 H237       -8.0999  -19.2235  -52.9427 H         1 UNK         0.0600 
    238 H238       -8.1613  -17.8664  -54.0569 H         1 UNK         0.0600 
    239 H239       -7.1761  -19.2716  -54.4429 H         1 UNK         0.0600 
    240 H240       -3.9425  -18.3528  -53.8006 H         1 UNK         0.3000 
    241 H241       -2.4526  -17.4894  -55.1250 H         1 UNK         0.0600 
    242 H242       -4.7823  -17.6390  -58.0501 H         1 UNK         0.3800 
    243 H243       -4.7380  -18.5057  -56.5313 H         1 UNK         0.3800 
    244 H244       -3.5432  -14.7131  -54.5433 H         1 UNK         0.0800 
    245 H245       -1.9263  -15.1150  -55.0592 H         1 UNK         0.0800 
    246 H246        0.1269  -15.4769  -52.9797 H         1 UNK         0.0800 
    247 H247       -0.5047  -16.9185  -53.7445 H         1 UNK         0.0800 
@<TRIPOS>BOND
     1    1    2 1    
     2    1  127 1    
     3    1  128 1    
     4    1  129 1    
     5    2    3 2    
     6    2    4 am   BACKBONE|DICT|INTERRES
     7    4    5 1    
     8    4  130 1    
     9    5    6 1    
    10    5   65 1    
    11    5  131 1    
    12    6    7 1    
    13    6  132 1    
    14    6  133 1    
    15    7    8 1    
    16    8    9 1    
    17    8  134 1    
    18    8  135 1    
    19    9   10 ar   
    20    9   14 ar   
    21   10   11 ar   
    22   10  136 1    
    23   11   12 ar   
    24   11  126 1    
    25   12   13 ar   
    26   12  137 1    
    27   13   14 ar   
    28   13   15 1    
    29   14  138 1    
    30   15   16 1    
    31   15  139 1    
    32   15  140 1    
    33   16   17 1    
    34   17   18 1    
    35   17  141 1    
    36   17  142 1    
    37   18   19 1    
    38   18   67 1    
    39   18  143 1    
    40   19   20 am   BACKBONE|DICT|INTERRES
    41   19  144 1    
    42   20   21 2    
    43   20   22 1    
    44   22   23 1    
    45   22   24 1    
    46   22  145 1    
    47   23  146 1    
    48   23  147 1    
    49   23  148 1    
    50   24   25 am   BACKBONE|DICT|INTERRES
    51   24  149 1    
    52   25   26 2    
    53   25   27 1    
    54   27   28 1    
    55   27   29 1    
    56   27  150 1    
    57   28  151 1    
    58   28  152 1    
    59   28  153 1    
    60   29   30 am   BACKBONE|DICT|INTERRES
    61   29  154 1    
    62   30   31 2    
    63   30   32 1    
    64   32   33 1    
    65   32   34 1    
    66   32  155 1    
    67   33  156 1    
    68   33  157 1    
    69   33  158 1    
    70   34   35 am   BACKBONE|DICT|INTERRES
    71   34  159 1    
    72   35   36 2    
    73   35   37 1    
    74   37   38 1    
    75   37   39 1    
    76   37  160 1    
    77   38  161 1    
    78   38  162 1    
    79   38  163 1    
    80   39   40 am   BACKBONE|DICT|INTERRES
    81   39  164 1    
    82   40   41 2    
    83   40   42 1    
    84   42   43 1    
    85   42   44 1    
    86   42  165 1    
    87   43  166 1    
    88   43  167 1    
    89   43  168 1    
    90   44   45 am   BACKBONE|DICT|INTERRES
    91   44  169 1    
    92   45   46 2    
    93   45   47 1    
    94   47   48 1    
    95   47   49 1    
    96   47  170 1    
    97   48  171 1    
    98   48  172 1    
    99   48  173 1    
   100   49   50 am   BACKBONE|DICT|INTERRES
   101   49  174 1    
   102   50   51 2    
   103   50   52 1    
   104   52   53 1    
   105   52   54 1    
   106   52  175 1    
   107   53  176 1    
   108   53  177 1    
   109   53  178 1    
   110   54   55 am   BACKBONE|DICT|INTERRES
   111   54  179 1    
   112   55   56 2    
   113   55   57 1    
   114   57   58 1    
   115   57   59 1    
   116   57  180 1    
   117   58  181 1    
   118   58  182 1    
   119   58  183 1    
   120   59   60 am   BACKBONE|DICT|INTERRES
   121   59  184 1    
   122   60   61 2    
   123   60   62 1    
   124   62   63 1    
   125   62   64 1    
   126   62  185 1    
   127   63  186 1    
   128   63  187 1    
   129   63  188 1    
   130   64   65 am   BACKBONE|DICT|INTERRES
   131   64  189 1    
   132   65   66 2    
   133   67   68 2    
   134   67   69 am   BACKBONE|DICT|INTERRES
   135   69   70 1    
   136   69  190 1    
   137   70   71 1    
   138   70   72 1    
   139   70  191 1    
   140   71  192 1    
   141   71  193 1    
   142   71  194 1    
   143   72   73 2    
   144   72   74 am   BACKBONE|DICT|INTERRES
   145   74   75 1    
   146   74  195 1    
   147   75   76 1    
   148   75   77 1    
   149   75  196 1    
   150   76  197 1    
   151   76  198 1    
   152   76  199 1    
   153   77   78 2    
   154   77   79 am   BACKBONE|DICT|INTERRES
   155   79   80 1    
   156   79  200 1    
   157   80   81 1    
   158   80   82 1    
   159   80  201 1    
   160   81  202 1    
   161   81  203 1    
   162   81  204 1    
   163   82   83 2    
   164   82   84 am   BACKBONE|DICT|INTERRES
   165   84   85 1    
   166   84  205 1    
   167   85   86 1    
   168   85   87 1    
   169   85  206 1    
   170   86  207 1    
   171   86  208 1    
   172   86  209 1    
   173   87   88 2    
   174   87   89 am   BACKBONE|DICT|INTERRES
   175   89   90 1    
   176   89  210 1    
   177   90   91 1    
   178   90   92 1    
   179   90  211 1    
   180   91  212 1    
   181   91  213 1    
   182   91  214 1    
   183   92   93 2    
   184   92   94 am   BACKBONE|DICT|INTERRES
   185   94   95 1    
   186   94  215 1    
   187   95   96 1    
   188   95   97 1    
   189   95  216 1    
   190   96  217 1    
   191   96  218 1    
   192   96  219 1    
   193   97   98 2    
   194   97   99 am   BACKBONE|DICT|INTERRES
   195   99  100 1    
   196   99  220 1    
   197  100  101 1    
   198  100  102 1    
   199  100  221 1    
   200  101  222 1    
   201  101  223 1    
   202  101  224 1    
   203  102  103 2    
   204  102  104 am   BACKBONE|DICT|INTERRES
   205  104  105 1    
   206  104  225 1    
   207  105  106 1    
   208  105  107 1    
   209  105  226 1    
   210  106  227 1    
   211  106  228 1    
   212  106  229 1    
   213  107  108 2    
   214  107  109 am   BACKBONE|DICT|INTERRES
   215  109  110 1    
   216  109  230 1    
   217  110  111 1    
   218  110  112 1    
   219  110  231 1    
   220  111  232 1    
   221  111  233 1    
   222  111  234 1    
   223  112  113 2    
   224  112  114 am   BACKBONE|DICT|INTERRES
   225  114  115 1    
   226  114  235 1    
   227  115  116 1    
   228  115  117 1    
   229  115  236 1    
   230  116  237 1    
   231  116  238 1    
   232  116  239 1    
   233  117  118 2    
   234  117  119 am   BACKBONE|DICT|INTERRES
   235  119  120 1    
   236  119  240 1    
   237  120  121 1    
   238  120  124 1    
   239  120  241 1    
   240  121  122 am   BACKBONE|DICT|INTERRES
   241  121  123 2    
   242  122  242 1    
   243  122  243 1    
   244  124  125 1    
   245  124  244 1    
   246  124  245 1    
   247  125  126 1    
   248  126  246 1    
   249  126  247 1    
@<TRIPOS>SUBSTRUCTURE
     1 UNK         1 GROUP             0       ****    0 ROOT    
