@<TRIPOS>MOLECULE
3R540
247   249    1
SMALL
USER_CHARGES


@<TRIPOS>ATOM
      1 CA          4.1366  -15.5107  -48.9840 C.3       0 UNK        -0.1800 
      2 C           3.7478  -14.7866  -47.6994 C.2       0 UNK         0.5000 
      3 O           4.6246  -14.2701  -47.0099 O.2       0 UNK        -0.5000 
      4 N           2.4647  -14.7182  -47.3312 N.am      1 UNK        -0.5000 
      5 CA          1.2932  -15.3086  -47.9761 C.3       1 UNK         0.1400 
      6 C6          0.7269  -14.3839  -49.0877 C.3       23 UNK        -0.0398 
      7 S7         -0.6183  -15.1086  -50.0949 S.3       23 UNK        -0.2404 
      8 C8          0.2590  -15.8074  -51.5326 C.3       23 UNK        -0.0205 
      9 C9          0.4516  -17.3077  -51.3775 C.ar      23 UNK        -0.0193 
     10 C10        -0.5149  -18.1967  -51.8580 C.ar      23 UNK        -0.1150 
     11 C11        -0.3678  -19.5800  -51.6801 C.ar      23 UNK        -0.0193 
     12 C12         0.7559  -20.0570  -51.0004 C.ar      23 UNK        -0.1150 
     13 C13         1.7290  -19.1791  -50.5185 C.ar      23 UNK        -0.0193 
     14 C14         1.5841  -17.8085  -50.7353 C.ar      23 UNK        -0.1150 
     15 C15         2.9083  -19.7096  -49.7184 C.3       23 UNK        -0.0205 
     16 S16         2.8300  -19.2244  -47.9606 S.3       23 UNK        -0.2404 
     17 C17         1.1304  -19.6929  -47.4800 C.3       23 UNK        -0.0398 
     18 CA          0.9455  -21.2107  -47.2500 C.3       11 UNK         0.1400 
     19 N           1.8775  -21.7493  -46.2578 N.am      11 UNK        -0.5000 
     20 C           2.1540  -23.0506  -46.1002 C.2       10 UNK         0.5000 
     21 O           1.6769  -23.9408  -46.8021 O.2       10 UNK        -0.5000 
     22 CA          3.1010  -23.4216  -44.9434 C.3       10 UNK         0.1400 
     23 CB          4.5634  -23.3744  -45.4103 C.3       10 UNK        -0.1800 
     24 N           2.9397  -22.5540  -43.7749 N.am      10 UNK        -0.5000 
     25 C           1.8364  -22.4999  -43.0151 C.2       9 UNK         0.5000 
     26 O           0.8450  -23.2030  -43.2014 O.2       9 UNK        -0.5000 
     27 CA          1.8164  -21.4429  -41.8972 C.3       9 UNK         0.1400 
     28 CB          2.4389  -21.9972  -40.6081 C.3       9 UNK        -0.1800 
     29 N           2.4975  -20.2018  -42.2684 N.am      9 UNK        -0.5000 
     30 C           2.1231  -19.3878  -43.2625 C.2       8 UNK         0.5000 
     31 O           1.1731  -19.6270  -44.0130 O.2       8 UNK        -0.5000 
     32 CA          2.9553  -18.1020  -43.4365 C.3       8 UNK         0.1400 
     33 CB          2.3629  -17.1611  -44.4943 C.3       8 UNK        -0.1800 
     34 N           3.0721  -17.3590  -42.1837 N.am      8 UNK        -0.5000 
     35 C           3.9759  -17.5745  -41.2200 C.2       7 UNK         0.5000 
     36 O           4.7977  -18.4910  -41.2521 O.2       7 UNK        -0.5000 
     37 CA          3.9248  -16.6310  -40.0088 C.3       7 UNK         0.1400 
     38 CB          4.4410  -15.2326  -40.3850 C.3       7 UNK        -0.1800 
     39 N           2.5538  -16.5211  -39.5172 N.am      7 UNK        -0.5000 
     40 C           2.0808  -17.1246  -38.4189 C.2       6 UNK         0.5000 
     41 O           2.7770  -17.7725  -37.6363 O.2       6 UNK        -0.5000 
     42 CA          0.5670  -16.9941  -38.1503 C.3       6 UNK         0.1400 
     43 CB          0.2860  -15.7999  -37.2258 C.3       6 UNK        -0.1800 
     44 N          -0.2270  -16.8478  -39.3721 N.am      6 UNK        -0.5000 
     45 C          -0.3474  -17.7864  -40.3212 C.2       5 UNK         0.5000 
     46 O           0.1272  -18.9171  -40.2215 O.2       5 UNK        -0.5000 
     47 CA         -1.1183  -17.4049  -41.6013 C.3       5 UNK         0.1400 
     48 CB         -2.5530  -17.9486  -41.5047 C.3       5 UNK        -0.1800 
     49 N          -1.1690  -15.9693  -41.9223 N.am      5 UNK        -0.5000 
     50 C          -0.1263  -15.1315  -42.0382 C.2       4 UNK         0.5000 
     51 O           1.0380  -15.4627  -41.8067 O.2       4 UNK        -0.5000 
     52 CA         -0.4454  -13.6946  -42.4932 C.3       4 UNK         0.1400 
     53 CB          0.8251  -12.8647  -42.7530 C.3       4 UNK        -0.1800 
     54 N          -1.2320  -13.7418  -43.7216 N.am      4 UNK        -0.5000 
     55 C          -2.5075  -13.3552  -43.8634 C.2       3 UNK         0.5000 
     56 O          -3.1662  -12.8282  -42.9666 O.2       3 UNK        -0.5000 
     57 CA         -3.1750  -13.6388  -45.2294 C.3       3 UNK         0.1400 
     58 CB         -3.0903  -12.4034  -46.1381 C.3       3 UNK        -0.1800 
     59 N          -2.5787  -14.7809  -45.9268 N.am      3 UNK        -0.5000 
     60 C          -2.5794  -16.0373  -45.4625 C.2       2 UNK         0.5000 
     61 O          -3.2744  -16.3989  -44.5148 O.2       2 UNK        -0.5000 
     62 CA         -1.6205  -17.0541  -46.1191 C.3       2 UNK         0.1400 
     63 CB         -2.4207  -18.1808  -46.7802 C.3       2 UNK        -0.1800 
     64 N          -0.6644  -16.5109  -47.0952 N.am      2 UNK        -0.5000 
     65 C           0.2808  -15.5930  -46.8495 C.2       1 UNK         0.5000 
     66 O           0.3696  -14.9799  -45.7812 O.2       1 UNK        -0.5000 
     67 C          -0.5096  -21.5142  -46.8492 C.2       11 UNK         0.5000 
     68 O          -1.3078  -21.9185  -47.6961 O.2       11 UNK        -0.5000 
     69 N          -0.8175  -21.3319  -45.5569 N.am      12 UNK        -0.5000 
     70 CA         -2.1211  -21.6203  -44.9578 C.3       12 UNK         0.1400 
     71 CB         -2.1552  -21.0418  -43.5368 C.3       12 UNK        -0.1800 
     72 C          -2.4689  -23.1216  -44.9586 C.2       12 UNK         0.5000 
     73 O          -3.6376  -23.4719  -45.1171 O.2       12 UNK        -0.5000 
     74 N          -1.4500  -23.9792  -44.8131 N.am      13 UNK        -0.5000 
     75 CA         -1.5578  -25.4350  -44.9271 C.3       13 UNK         0.1400 
     76 CB         -0.3104  -26.0776  -44.3006 C.3       13 UNK        -0.1800 
     77 C          -1.7417  -25.9253  -46.3785 C.2       13 UNK         0.5000 
     78 O          -2.1929  -27.0549  -46.5749 O.2       13 UNK        -0.5000 
     79 N          -1.3818  -25.0870  -47.3597 N.am      14 UNK        -0.5000 
     80 CA         -1.5435  -25.3340  -48.7895 C.3       14 UNK         0.1400 
     81 CB         -0.3348  -24.7334  -49.5382 C.3       14 UNK        -0.1800 
     82 C          -2.9102  -24.8003  -49.2714 C.2       14 UNK         0.5000 
     83 O          -3.9271  -25.0355  -48.6164 O.2       14 UNK        -0.5000 
     84 N          -2.9250  -24.1056  -50.4168 N.am      15 UNK        -0.5000 
     85 CA         -4.1256  -23.5568  -51.0541 C.3       15 UNK         0.1400 
     86 CB         -3.8434  -23.3341  -52.5492 C.3       15 UNK        -0.1800 
     87 C          -4.7048  -22.2984  -50.3692 C.2       15 UNK         0.5000 
     88 O          -5.7935  -21.8681  -50.7480 O.2       15 UNK        -0.5000 
     89 N          -4.0023  -21.7484  -49.3659 N.am      16 UNK        -0.5000 
     90 CA         -4.4760  -20.7244  -48.4273 C.3       16 UNK         0.1400 
     91 CB         -5.5343  -21.3246  -47.4796 C.3       16 UNK        -0.1800 
     92 C          -4.9446  -19.4121  -49.0933 C.2       16 UNK         0.5000 
     93 O          -5.9988  -18.8797  -48.7430 O.2       16 UNK        -0.5000 
     94 N          -4.1340  -18.9141  -50.0375 N.am      17 UNK        -0.5000 
     95 CA         -4.3137  -17.6655  -50.7918 C.3       17 UNK         0.1400 
     96 CB         -4.2787  -16.4285  -49.8679 C.3       17 UNK        -0.1800 
     97 C          -5.5151  -17.6585  -51.7627 C.2       17 UNK         0.5000 
     98 O          -5.9131  -16.5875  -52.2253 O.2       17 UNK        -0.5000 
     99 N          -6.0452  -18.8404  -52.1082 N.am      18 UNK        -0.5000 
    100 CA        -6.9922  -19.0272  -53.2053 C.3       18 UNK         0.1400 
    101 CB        -7.7197  -20.3701  -53.0284 C.3       18 UNK        -0.1800 
    102 C         -6.2212  -18.9671  -54.5346 C.2       18 UNK         0.5000 
    103 O         -5.6601  -19.9784  -54.9561 O.2       18 UNK        -0.5000 
    104 N         -6.1573  -17.7737  -55.1407 N.am      19 UNK        -0.5000 
    105 CA        -5.2991  -17.4246  -56.2808 C.3       19 UNK         0.1400 
    106 CB        -5.6011  -15.9821  -56.7127 C.3       19 UNK        -0.1800 
    107 C         -5.3801  -18.3751  -57.4913 C.2       19 UNK         0.5000 
    108 O         -4.3582  -18.6304  -58.1294 O.2       19 UNK        -0.5000 
    109 N         -6.5771  -18.9153  -57.7555 N.am      20 UNK        -0.5000 
    110 CA        -6.8355  -19.9019  -58.8065 C.3       20 UNK         0.1400 
    111 CB        -8.3536  -20.0936  -58.9449 C.3       20 UNK        -0.1800 
    112 C         -6.1411  -21.2601  -58.5723 C.2       20 UNK         0.5000 
    113 O         -5.8593  -21.9640  -59.5430 O.2       20 UNK        -0.5000 
    114 N         -5.8797  -21.6015  -57.3040 N.am      21 UNK        -0.5000 
    115 CA        -5.1652  -22.8067  -56.8914 C.3       21 UNK         0.1400 
    116 CB        -5.8615  -23.4078  -55.6613 C.3       21 UNK        -0.1800 
    117 C         -3.6829  -22.5097  -56.6035 C.2       21 UNK         0.5000 
    118 O         -2.8343  -23.3380  -56.9372 O.2       21 UNK        -0.5000 
    119 N         -3.3888  -21.3434  -56.0092 N.am      22 UNK        -0.5000 
    120 CA        -2.0178  -20.8738  -55.7404 C.3       22 UNK         0.1400 
    121 C         -1.1999  -20.5473  -57.0225 C.2       22 UNK         0.5000 
    122 N         -1.8133  -20.0394  -58.0849 N.am      22 UNK        -0.7600 
    123 O          0.0089  -20.7602  -57.0533 O.2       22 UNK        -0.5000 
    124 C124       -1.9681  -19.6669  -54.7683 C.3       23 UNK        -0.0398 
    125 S125       -2.7786  -19.9811  -53.1662 S.3       23 UNK        -0.2404 
    126 C126       -1.3886  -20.6093  -52.1645 C.3       23 UNK        -0.0205 
    127 H127        5.1745  -15.2975  -49.2408 H         1 UNK         0.0600 
    128 H128        3.5218  -15.1954  -49.8250 H         1 UNK         0.0600 
    129 H129        4.0426  -16.5880  -48.8541 H         1 UNK         0.0600 
    130 H130        2.2311  -14.2878  -46.4441 H         1 UNK         0.3000 
    131 H131        1.5756  -16.2719  -48.3989 H         1 UNK         0.0600 
    132 H132        1.5231  -14.0638  -49.7587 H         1 UNK         0.0800 
    133 H133        0.3483  -13.4613  -48.6440 H         1 UNK         0.0800 
    134 H134       -0.3277  -15.6043  -52.4298 H         1 UNK         0.0800 
    135 H135        1.2187  -15.3118  -51.6841 H         1 UNK         0.0800 
    136 H136       -1.3779  -17.7953  -52.3657 H         1 UNK         0.1150 
    137 H137        0.8658  -21.1196  -50.8337 H         1 UNK         0.1150 
    138 H138        2.3394  -17.1307  -50.3733 H         1 UNK         0.1150 
    139 H139        2.9628  -20.7974  -49.7827 H         1 UNK         0.0800 
    140 H140        3.8361  -19.3313  -50.1496 H         1 UNK         0.0800 
    141 H141        0.4290  -19.3295  -48.2309 H         1 UNK         0.0800 
    142 H142        0.8870  -19.1400  -46.5726 H         1 UNK         0.0800 
    143 H143        1.1322  -21.7183  -48.1988 H         1 UNK         0.0600 
    144 H144        2.2874  -21.0823  -45.6208 H         1 UNK         0.3000 
    145 H145        2.8701  -24.4449  -44.6400 H         1 UNK         0.0600 
    146 H146        5.2402  -23.7050  -44.6222 H         1 UNK         0.0600 
    147 H147        4.7200  -24.0302  -46.2679 H         1 UNK         0.0600 
    148 H148        4.8596  -22.3679  -45.7085 H         1 UNK         0.0600 
    149 H149        3.7076  -21.9383  -43.5513 H         1 UNK         0.3000 
    150 H150        0.7717  -21.1995  -41.6940 H         1 UNK         0.0600 
    151 H151        1.9388  -22.9152  -40.2963 H         1 UNK         0.0600 
    152 H152        2.3448  -21.2827  -39.7897 H         1 UNK         0.0600 
    153 H153        3.4977  -22.2250  -40.7362 H         1 UNK         0.0600 
    154 H154        3.2881  -19.9206  -41.7008 H         1 UNK         0.3000 
    155 H155        3.9510  -18.3984  -43.7724 H         1 UNK         0.0600 
    156 H156        2.9360  -16.2371  -44.5731 H         1 UNK         0.0600 
    157 H157        2.3640  -17.6243  -45.4794 H         1 UNK         0.0600 
    158 H158        1.3337  -16.8967  -44.2514 H         1 UNK         0.0600 
    159 H159        2.3940  -16.6104  -42.0567 H         1 UNK         0.3000 
    160 H160        4.5816  -17.0373  -39.2369 H         1 UNK         0.0600 
    161 H161        3.8189  -14.7599  -41.1464 H         1 UNK         0.0600 
    162 H162        5.4582  -15.2836  -40.7752 H         1 UNK         0.0600 
    163 H163        4.4588  -14.5755  -39.5154 H         1 UNK         0.0600 
    164 H164        1.8978  -16.0453  -40.1279 H         1 UNK         0.3000 
    165 H165        0.2418  -17.9051  -37.6436 H         1 UNK         0.0600 
    166 H166       -0.7714  -15.7411  -36.9668 H         1 UNK         0.0600 
    167 H167        0.8433  -15.8893  -36.2924 H         1 UNK         0.0600 
    168 H168        0.5725  -14.8554  -37.6900 H         1 UNK         0.0600 
    169 H169       -0.6603  -15.9503  -39.5296 H         1 UNK         0.3000 
    170 H170       -0.6174  -17.9031  -42.4338 H         1 UNK         0.0600 
    171 H171       -2.5580  -19.0018  -41.2201 H         1 UNK         0.0600 
    172 H172       -3.1379  -17.4071  -40.7605 H         1 UNK         0.0600 
    173 H173       -3.0742  -17.8787  -42.4573 H         1 UNK         0.0600 
    174 H174       -2.0840  -15.6095  -42.1555 H         1 UNK         0.3000 
    175 H175       -1.0070  -13.2176  -41.6880 H         1 UNK         0.0600 
    176 H176        1.4340  -12.7851  -41.8516 H         1 UNK         0.0600 
    177 H177        1.4442  -13.3126  -43.5318 H         1 UNK         0.0600 
    178 H178        0.5749  -11.8513  -43.0666 H         1 UNK         0.0600 
    179 H179       -0.7662  -14.1846  -44.5109 H         1 UNK         0.3000 
    180 H180       -4.2277  -13.8635  -45.0461 H         1 UNK         0.0600 
    181 H181       -2.0561  -12.1435  -46.3678 H         1 UNK         0.0600 
    182 H182       -3.5492  -11.5361  -45.6615 H         1 UNK         0.0600 
    183 H183       -3.6127  -12.5699  -47.0804 H         1 UNK         0.0600 
    184 H184       -1.9797  -14.5690  -46.7103 H         1 UNK         0.3000 
    185 H185       -1.0314  -17.4924  -45.3104 H         1 UNK         0.0600 
    186 H186       -3.0224  -18.7133  -46.0429 H         1 UNK         0.0600 
    187 H187       -3.1023  -17.7885  -47.5313 H         1 UNK         0.0600 
    188 H188       -1.7716  -18.9092  -47.2614 H         1 UNK         0.0600 
    189 H189       -0.7118  -16.9054  -48.0238 H         1 UNK         0.3000 
    190 H190       -0.1049  -20.9638  -44.9350 H         1 UNK         0.3000 
    191 H191       -2.8826  -21.1099  -45.5496 H         1 UNK         0.0600 
    192 H192       -1.4207  -21.5206  -42.8888 H         1 UNK         0.0600 
    193 H193       -3.1366  -21.1788  -43.0813 H         1 UNK         0.0600 
    194 H194       -1.9449  -19.9725  -43.5474 H         1 UNK         0.0600 
    195 H195       -0.5336  -23.6111  -44.5782 H         1 UNK         0.3000 
    196 H196       -2.4307  -25.7610  -44.3579 H         1 UNK         0.0600 
    197 H197       -0.3634  -27.1660  -44.3475 H         1 UNK         0.0600 
    198 H198       -0.2107  -25.8032  -43.2503 H         1 UNK         0.0600 
    199 H199        0.6001  -25.7698  -44.8158 H         1 UNK         0.0600 
    200 H200       -1.0500  -24.1670  -47.1047 H         1 UNK         0.3000 
    201 H201       -1.5415  -26.4097  -48.9755 H         1 UNK         0.0600 
    202 H202        0.6011  -25.1229  -49.1370 H         1 UNK         0.0600 
    203 H203       -0.2975  -23.6470  -49.4556 H         1 UNK         0.0600 
    204 H204       -0.3528  -24.9912  -50.5977 H         1 UNK         0.0600 
    205 H205       -2.0509  -23.9581  -50.8990 H         1 UNK         0.3000 
    206 H206       -4.9153  -24.3084  -50.9889 H         1 UNK         0.0600 
    207 H207       -3.8555  -24.2799  -53.0905 H         1 UNK         0.0600 
    208 H208       -4.5915  -22.6881  -53.0082 H         1 UNK         0.0600 
    209 H209       -2.8711  -22.8783  -52.7204 H         1 UNK         0.0600 
    210 H210       -3.1084  -22.1609  -49.1292 H         1 UNK         0.3000 
    211 H211       -3.6127  -20.4633  -47.8182 H         1 UNK         0.0600 
    212 H212       -5.1692  -22.2382  -47.0108 H         1 UNK         0.0600 
    213 H213       -5.7852  -20.6274  -46.6795 H         1 UNK         0.0600 
    214 H214       -6.4573  -21.5672  -48.0073 H         1 UNK         0.0600 
    215 H215       -3.3153  -19.4515  -50.2839 H         1 UNK         0.3000 
    216 H216       -3.4406  -17.5876  -51.4373 H         1 UNK         0.0600 
    217 H217       -5.1093  -16.4174  -49.1625 H         1 UNK         0.0600 
    218 H218       -4.3302  -15.5041  -50.4441 H         1 UNK         0.0600 
    219 H219       -3.3499  -16.3871  -49.3014 H         1 UNK         0.0600 
    220 H220       -5.6677  -19.6833  -51.6949 H         1 UNK         0.3000 
    221 H221       -7.7398  -18.2315  -53.1857 H         1 UNK         0.0600 
    222 H222       -8.2605  -20.4031  -52.0825 H         1 UNK         0.0600 
    223 H223       -7.0282  -21.2132  -53.0443 H         1 UNK         0.0600 
    224 H224       -8.4454  -20.5278  -53.8270 H         1 UNK         0.0600 
    225 H225       -6.6194  -16.9968  -54.6887 H         1 UNK         0.3000 
    226 H226       -4.2701  -17.4559  -55.9201 H         1 UNK         0.0600 
    227 H227       -5.4234  -15.2804  -55.8974 H         1 UNK         0.0600 
    228 H228       -4.9624  -15.6797  -57.5439 H         1 UNK         0.0600 
    229 H229       -6.6367  -15.8679  -57.0353 H         1 UNK         0.0600 
    230 H230       -7.3574  -18.6590  -57.1687 H         1 UNK         0.3000 
    231 H231       -6.4546  -19.4978  -59.7468 H         1 UNK         0.0600 
    232 H232       -8.7958  -20.4762  -58.0241 H         1 UNK         0.0600 
    233 H233       -8.5872  -20.8025  -59.7404 H         1 UNK         0.0600 
    234 H234       -8.8496  -19.1549  -59.1923 H         1 UNK         0.0600 
    235 H235       -6.0865  -20.9377  -56.5642 H         1 UNK         0.3000 
    236 H236       -5.2003  -23.5545  -57.6865 H         1 UNK         0.0600 
    237 H237       -6.8667  -23.7479  -55.9100 H         1 UNK         0.0600 
    238 H238       -5.3119  -24.2684  -55.2781 H         1 UNK         0.0600 
    239 H239       -5.9502  -22.6819  -54.8540 H         1 UNK         0.0600 
    240 H240       -4.1470  -20.7456  -55.6917 H         1 UNK         0.3000 
    241 H241       -1.4976  -21.6983  -55.2489 H         1 UNK         0.0600 
    242 H242       -1.2755  -19.8367  -58.9122 H         1 UNK         0.3800 
    243 H243       -2.7939  -19.7767  -58.0549 H         1 UNK         0.3800 
    244 H244       -2.4526  -18.8017  -55.2210 H         1 UNK         0.0800 
    245 H245       -0.9350  -19.3679  -54.5820 H         1 UNK         0.0800 
    246 H246       -1.8050  -21.1046  -51.2872 H         1 UNK         0.0800 
    247 H247       -0.8715  -21.3820  -52.7354 H         1 UNK         0.0800 
@<TRIPOS>BOND
     1    1    2 1    
     2    1  127 1    
     3    1  128 1    
     4    1  129 1    
     5    2    3 2    
     6    2    4 am   BACKBONE|DICT|INTERRES
     7    4    5 1    
     8    4  130 1    
     9    5    6 1    
    10    5   65 1    
    11    5  131 1    
    12    6    7 1    
    13    6  132 1    
    14    6  133 1    
    15    7    8 1    
    16    8    9 1    
    17    8  134 1    
    18    8  135 1    
    19    9   10 ar   
    20    9   14 ar   
    21   10   11 ar   
    22   10  136 1    
    23   11   12 ar   
    24   11  126 1    
    25   12   13 ar   
    26   12  137 1    
    27   13   14 ar   
    28   13   15 1    
    29   14  138 1    
    30   15   16 1    
    31   15  139 1    
    32   15  140 1    
    33   16   17 1    
    34   17   18 1    
    35   17  141 1    
    36   17  142 1    
    37   18   19 1    
    38   18   67 1    
    39   18  143 1    
    40   19   20 am   BACKBONE|DICT|INTERRES
    41   19  144 1    
    42   20   21 2    
    43   20   22 1    
    44   22   23 1    
    45   22   24 1    
    46   22  145 1    
    47   23  146 1    
    48   23  147 1    
    49   23  148 1    
    50   24   25 am   BACKBONE|DICT|INTERRES
    51   24  149 1    
    52   25   26 2    
    53   25   27 1    
    54   27   28 1    
    55   27   29 1    
    56   27  150 1    
    57   28  151 1    
    58   28  152 1    
    59   28  153 1    
    60   29   30 am   BACKBONE|DICT|INTERRES
    61   29  154 1    
    62   30   31 2    
    63   30   32 1    
    64   32   33 1    
    65   32   34 1    
    66   32  155 1    
    67   33  156 1    
    68   33  157 1    
    69   33  158 1    
    70   34   35 am   BACKBONE|DICT|INTERRES
    71   34  159 1    
    72   35   36 2    
    73   35   37 1    
    74   37   38 1    
    75   37   39 1    
    76   37  160 1    
    77   38  161 1    
    78   38  162 1    
    79   38  163 1    
    80   39   40 am   BACKBONE|DICT|INTERRES
    81   39  164 1    
    82   40   41 2    
    83   40   42 1    
    84   42   43 1    
    85   42   44 1    
    86   42  165 1    
    87   43  166 1    
    88   43  167 1    
    89   43  168 1    
    90   44   45 am   BACKBONE|DICT|INTERRES
    91   44  169 1    
    92   45   46 2    
    93   45   47 1    
    94   47   48 1    
    95   47   49 1    
    96   47  170 1    
    97   48  171 1    
    98   48  172 1    
    99   48  173 1    
   100   49   50 am   BACKBONE|DICT|INTERRES
   101   49  174 1    
   102   50   51 2    
   103   50   52 1    
   104   52   53 1    
   105   52   54 1    
   106   52  175 1    
   107   53  176 1    
   108   53  177 1    
   109   53  178 1    
   110   54   55 am   BACKBONE|DICT|INTERRES
   111   54  179 1    
   112   55   56 2    
   113   55   57 1    
   114   57   58 1    
   115   57   59 1    
   116   57  180 1    
   117   58  181 1    
   118   58  182 1    
   119   58  183 1    
   120   59   60 am   BACKBONE|DICT|INTERRES
   121   59  184 1    
   122   60   61 2    
   123   60   62 1    
   124   62   63 1    
   125   62   64 1    
   126   62  185 1    
   127   63  186 1    
   128   63  187 1    
   129   63  188 1    
   130   64   65 am   BACKBONE|DICT|INTERRES
   131   64  189 1    
   132   65   66 2    
   133   67   68 2    
   134   67   69 am   BACKBONE|DICT|INTERRES
   135   69   70 1    
   136   69  190 1    
   137   70   71 1    
   138   70   72 1    
   139   70  191 1    
   140   71  192 1    
   141   71  193 1    
   142   71  194 1    
   143   72   73 2    
   144   72   74 am   BACKBONE|DICT|INTERRES
   145   74   75 1    
   146   74  195 1    
   147   75   76 1    
   148   75   77 1    
   149   75  196 1    
   150   76  197 1    
   151   76  198 1    
   152   76  199 1    
   153   77   78 2    
   154   77   79 am   BACKBONE|DICT|INTERRES
   155   79   80 1    
   156   79  200 1    
   157   80   81 1    
   158   80   82 1    
   159   80  201 1    
   160   81  202 1    
   161   81  203 1    
   162   81  204 1    
   163   82   83 2    
   164   82   84 am   BACKBONE|DICT|INTERRES
   165   84   85 1    
   166   84  205 1    
   167   85   86 1    
   168   85   87 1    
   169   85  206 1    
   170   86  207 1    
   171   86  208 1    
   172   86  209 1    
   173   87   88 2    
   174   87   89 am   BACKBONE|DICT|INTERRES
   175   89   90 1    
   176   89  210 1    
   177   90   91 1    
   178   90   92 1    
   179   90  211 1    
   180   91  212 1    
   181   91  213 1    
   182   91  214 1    
   183   92   93 2    
   184   92   94 am   BACKBONE|DICT|INTERRES
   185   94   95 1    
   186   94  215 1    
   187   95   96 1    
   188   95   97 1    
   189   95  216 1    
   190   96  217 1    
   191   96  218 1    
   192   96  219 1    
   193   97   98 2    
   194   97   99 am   BACKBONE|DICT|INTERRES
   195   99  100 1    
   196   99  220 1    
   197  100  101 1    
   198  100  102 1    
   199  100  221 1    
   200  101  222 1    
   201  101  223 1    
   202  101  224 1    
   203  102  103 2    
   204  102  104 am   BACKBONE|DICT|INTERRES
   205  104  105 1    
   206  104  225 1    
   207  105  106 1    
   208  105  107 1    
   209  105  226 1    
   210  106  227 1    
   211  106  228 1    
   212  106  229 1    
   213  107  108 2    
   214  107  109 am   BACKBONE|DICT|INTERRES
   215  109  110 1    
   216  109  230 1    
   217  110  111 1    
   218  110  112 1    
   219  110  231 1    
   220  111  232 1    
   221  111  233 1    
   222  111  234 1    
   223  112  113 2    
   224  112  114 am   BACKBONE|DICT|INTERRES
   225  114  115 1    
   226  114  235 1    
   227  115  116 1    
   228  115  117 1    
   229  115  236 1    
   230  116  237 1    
   231  116  238 1    
   232  116  239 1    
   233  117  118 2    
   234  117  119 am   BACKBONE|DICT|INTERRES
   235  119  120 1    
   236  119  240 1    
   237  120  121 1    
   238  120  124 1    
   239  120  241 1    
   240  121  122 am   BACKBONE|DICT|INTERRES
   241  121  123 2    
   242  122  242 1    
   243  122  243 1    
   244  124  125 1    
   245  124  244 1    
   246  124  245 1    
   247  125  126 1    
   248  126  246 1    
   249  126  247 1    
@<TRIPOS>SUBSTRUCTURE
     1 UNK         1 GROUP             0       ****    0 ROOT    
