@<TRIPOS>MOLECULE
3R540
247   249    1
SMALL
USER_CHARGES


@<TRIPOS>ATOM
      1 CA          1.1937  -11.3751  -50.5920 C.3       0 UNK        -0.1800 
      2 C           0.8436  -11.5892  -49.1265 C.2       0 UNK         0.5000 
      3 O          -0.2720  -11.2734  -48.7141 O.2       0 UNK        -0.5000 
      4 N           1.7940  -12.1229  -48.3456 N.am      1 UNK        -0.5000 
      5 CA          1.6755  -12.4421  -46.9121 C.3       1 UNK         0.1400 
      6 C6          0.6060  -13.5242  -46.5977 C.3       23 UNK        -0.0398 
      7 S7          0.8815  -15.0936  -47.4897 S.3       23 UNK        -0.2404 
      8 C8         -0.4552  -15.0442  -48.7343 C.3       23 UNK        -0.0205 
      9 C9         -0.7933  -16.3967  -49.3603 C.ar      23 UNK        -0.0193 
     10 C10        -2.1069  -16.6393  -49.7780 C.ar      23 UNK        -0.1150 
     11 C11        -2.4614  -17.8571  -50.3669 C.ar      23 UNK        -0.0193 
     12 C12        -1.4870  -18.8441  -50.5333 C.ar      23 UNK        -0.1150 
     13 C13        -0.1693  -18.6174  -50.1273 C.ar      23 UNK        -0.0193 
     14 C14         0.1739  -17.3914  -49.5519 C.ar      23 UNK        -0.1150 
     15 C15         0.8803  -19.7044  -50.3015 C.3       23 UNK        -0.0205 
     16 S16         1.1944  -20.6036  -48.7482 S.3       23 UNK        -0.2404 
     17 C17        -0.4886  -21.1402  -48.2974 C.3       23 UNK        -0.0398 
     18 CA         -0.5017  -22.3719  -47.3680 C.3       11 UNK         0.1400 
     19 N           0.0779  -22.1112  -46.0494 N.am      11 UNK        -0.5000 
     20 C           0.3688  -23.0680  -45.1565 C.2       10 UNK         0.5000 
     21 O           0.2621  -24.2726  -45.3878 O.2       10 UNK        -0.5000 
     22 CA          0.8045  -22.6064  -43.7541 C.3       10 UNK         0.1400 
     23 CB          2.3020  -22.2665  -43.7271 C.3       10 UNK        -0.1800 
     24 N           0.0237  -21.4674  -43.2666 N.am      10 UNK        -0.5000 
     25 C          -1.2945  -21.5040  -43.0213 C.2       9 UNK         0.5000 
     26 O          -1.9820  -22.5193  -43.1387 O.2       9 UNK        -0.5000 
     27 CA         -1.9676  -20.1779  -42.6178 C.3       9 UNK         0.1400 
     28 CB         -1.7424  -19.8804  -41.1282 C.3       9 UNK        -0.1800 
     29 N          -1.5132  -19.0409  -43.4190 N.am      9 UNK        -0.5000 
     30 C          -1.6874  -18.9192  -44.7432 C.2       8 UNK         0.5000 
     31 O          -2.2927  -19.7369  -45.4332 O.2       8 UNK        -0.5000 
     32 CA         -1.0202  -17.7104  -45.4205 C.3       8 UNK         0.1400 
     33 CB         -1.8744  -16.4451  -45.2419 C.3       8 UNK        -0.1800 
     34 N           0.3362  -17.4853  -44.9182 N.am      8 UNK        -0.5000 
     35 C           1.3433  -18.3605  -45.0581 C.2       7 UNK         0.5000 
     36 O           1.2384  -19.4369  -45.6429 O.2       7 UNK        -0.5000 
     37 CA          2.6677  -18.0083  -44.3629 C.3       7 UNK         0.1400 
     38 CB          3.4889  -17.0215  -45.2066 C.3       7 UNK        -0.1800 
     39 N           2.4391  -17.4628  -43.0244 N.am      7 UNK        -0.5000 
     40 C           1.9997  -18.1943  -41.9876 C.2       6 UNK         0.5000 
     41 O           1.8007  -19.4072  -42.0494 O.2       6 UNK        -0.5000 
     42 CA          1.6881  -17.4510  -40.6730 C.3       6 UNK         0.1400 
     43 CB          2.9344  -17.3983  -39.7772 C.3       6 UNK        -0.1800 
     44 N           1.1899  -16.0920  -40.8830 N.am      6 UNK        -0.5000 
     45 C           0.0624  -15.7799  -41.5371 C.2       5 UNK         0.5000 
     46 O          -0.7374  -16.6211  -41.9464 O.2       5 UNK        -0.5000 
     47 CA         -0.1882  -14.2858  -41.8318 C.3       5 UNK         0.1400 
     48 CB         -1.1957  -13.7026  -40.8306 C.3       5 UNK        -0.1800 
     49 N           1.0228  -13.4541  -41.8338 N.am      5 UNK        -0.5000 
     50 C           2.0810  -13.6248  -42.6394 C.2       4 UNK         0.5000 
     51 O           2.1594  -14.5315  -43.4686 O.2       4 UNK        -0.5000 
     52 CA          3.2315  -12.6214  -42.4722 C.3       4 UNK         0.1400 
     53 CB          4.3325  -12.7769  -43.5383 C.3       4 UNK        -0.1800 
     54 N           2.7016  -11.2623  -42.5093 N.am      4 UNK        -0.5000 
     55 C           3.1381  -10.2368  -41.7667 C.2       3 UNK         0.5000 
     56 O           4.0125  -10.3476  -40.9053 O.2       3 UNK        -0.5000 
     57 CA          2.4830   -8.8606  -42.0304 C.3       3 UNK         0.1400 
     58 CB          3.3865   -7.6766  -41.6253 C.3       3 UNK        -0.1800 
     59 N           1.9983   -8.7034  -43.4082 N.am      3 UNK        -0.5000 
     60 C           2.7289   -8.7425  -44.5323 C.2       2 UNK         0.5000 
     61 O           3.9570   -8.8435  -44.5657 O.2       2 UNK        -0.5000 
     62 CA          1.9340   -8.7259  -45.8502 C.3       2 UNK         0.1400 
     63 CB          2.4584   -7.6463  -46.8109 C.3       2 UNK        -0.1800 
     64 N           1.9851  -10.0269  -46.5176 N.am      2 UNK        -0.5000 
     65 C           1.5071  -11.1811  -46.0274 C.2       1 UNK         0.5000 
     66 O           0.9620  -11.2701  -44.9246 O.2       1 UNK        -0.5000 
     67 C          -1.9310  -22.9330  -47.2507 C.2       11 UNK         0.5000 
     68 O          -2.2390  -23.9141  -47.9249 O.2       11 UNK        -0.5000 
     69 N          -2.7780  -22.3315  -46.4017 N.am      12 UNK        -0.5000 
     70 CA         -4.1644  -22.7473  -46.1579 C.3       12 UNK         0.1400 
     71 CB         -4.8449  -21.7763  -45.1831 C.3       12 UNK        -0.1800 
     72 C          -4.2850  -24.1978  -45.6575 C.2       12 UNK         0.5000 
     73 O          -5.1629  -24.9262  -46.1210 O.2       12 UNK        -0.5000 
     74 N          -3.3520  -24.6125  -44.7894 N.am      13 UNK        -0.5000 
     75 CA         -3.1951  -25.9901  -44.3134 C.3       13 UNK         0.1400 
     76 CB         -2.1480  -26.0117  -43.1896 C.3       13 UNK        -0.1800 
     77 C          -2.8238  -27.0003  -45.4226 C.2       13 UNK         0.5000 
     78 O          -3.0672  -28.1954  -45.2543 O.2       13 UNK        -0.5000 
     79 N          -2.2739  -26.5065  -46.5391 N.am      14 UNK        -0.5000 
     80 CA         -1.9391  -27.2573  -47.7483 C.3       14 UNK         0.1400 
     81 CB         -0.5022  -26.8943  -48.1664 C.3       14 UNK        -0.1800 
     82 C          -2.9570  -26.9842  -48.8774 C.2       14 UNK         0.5000 
     83 O          -2.5961  -27.0594  -50.0530 O.2       14 UNK        -0.5000 
     84 N          -4.2055  -26.6516  -48.5108 N.am      15 UNK        -0.5000 
     85 CA         -5.3406  -26.3529  -49.3935 C.3       15 UNK         0.1400 
     86 CB         -5.7643  -27.6077  -50.1859 C.3       15 UNK        -0.1800 
     87 C          -5.0778  -25.1306  -50.2960 C.2       15 UNK         0.5000 
     88 O          -5.2650  -25.1987  -51.5117 O.2       15 UNK        -0.5000 
     89 N          -4.6010  -24.0442  -49.6726 N.am      16 UNK        -0.5000 
     90 CA         -4.1556  -22.7902  -50.2932 C.3       16 UNK         0.1400 
     91 CB         -5.3366  -22.0435  -50.9428 C.3       16 UNK        -0.1800 
     92 C          -2.9681  -23.0172  -51.2507 C.2       16 UNK         0.5000 
     93 O          -2.9543  -22.4823  -52.3594 O.2       16 UNK        -0.5000 
     94 N          -2.0182  -23.8499  -50.7969 N.am      17 UNK        -0.5000 
     95 CA         -0.8555  -24.3698  -51.5236 C.3       17 UNK         0.1400 
     96 CB          0.1977  -23.2629  -51.7188 C.3       17 UNK        -0.1800 
     97 C          -1.2588  -25.0796  -52.8332 C.2       17 UNK         0.5000 
     98 O          -0.7207  -24.7770  -53.8993 O.2       17 UNK        -0.5000 
     99 N          -2.2320  -25.9947  -52.7119 N.am      18 UNK        -0.5000 
    100 CA        -2.9196  -26.7121  -53.7891 C.3       18 UNK         0.1400 
    101 CB        -1.9660  -27.7113  -54.4766 C.3       18 UNK        -0.1800 
    102 C         -3.6207  -25.7530  -54.7764 C.2       18 UNK         0.5000 
    103 O         -3.4610  -25.8865  -55.9914 O.2       18 UNK        -0.5000 
    104 N         -4.3834  -24.8029  -54.2150 N.am      19 UNK        -0.5000 
    105 CA        -5.1421  -23.7436  -54.8847 C.3       19 UNK         0.1400 
    106 CB        -6.3519  -24.3418  -55.6314 C.3       19 UNK        -0.1800 
    107 C         -4.2616  -22.8479  -55.7807 C.2       19 UNK         0.5000 
    108 O         -4.4976  -22.7492  -56.9874 O.2       19 UNK        -0.5000 
    109 N         -3.2583  -22.2013  -55.1731 N.am      20 UNK        -0.5000 
    110 CA        -2.2726  -21.3263  -55.8180 C.3       20 UNK         0.1400 
    111 CB        -1.0550  -21.1905  -54.8862 C.3       20 UNK        -0.1800 
    112 C         -2.8459  -19.9531  -56.2427 C.2       20 UNK         0.5000 
    113 O         -2.3079  -18.9122  -55.8625 O.2       20 UNK        -0.5000 
    114 N         -3.9340  -19.9799  -57.0258 N.am      21 UNK        -0.5000 
    115 CA        -4.6874  -18.8424  -57.5728 C.3       21 UNK         0.1400 
    116 CB        -3.8169  -18.0223  -58.5480 C.3       21 UNK        -0.1800 
    117 C         -5.3711  -17.9651  -56.4991 C.2       21 UNK         0.5000 
    118 O         -5.6748  -16.7992  -56.7584 O.2       21 UNK        -0.5000 
    119 N         -5.6186  -18.5457  -55.3190 N.am      22 UNK        -0.5000 
    120 CA        -6.2447  -17.8886  -54.1589 C.3       22 UNK         0.1400 
    121 C         -7.7953  -17.7659  -54.2447 C.2       22 UNK         0.5000 
    122 N         -8.4625  -18.3664  -55.2229 N.am      22 UNK        -0.7600 
    123 O         -8.4060  -17.1038  -53.4101 O.2       22 UNK        -0.5000 
    124 C124       -5.8157  -18.5667  -52.8325 C.3       23 UNK        -0.0398 
    125 S125       -4.0077  -18.5048  -52.5812 S.3       23 UNK        -0.2404 
    126 C126       -3.8976  -18.1124  -50.8058 C.3       23 UNK        -0.0205 
    127 H127        2.2105  -11.6972  -50.8180 H         1 UNK         0.0600 
    128 H128        1.1061  -10.3194  -50.8486 H         1 UNK         0.0600 
    129 H129        0.5101  -11.9395  -51.2262 H         1 UNK         0.0600 
    130 H130        2.6833  -12.3635  -48.7611 H         1 UNK         0.3000 
    131 H131        2.6416  -12.8601  -46.6264 H         1 UNK         0.0600 
    132 H132        0.6185  -13.7695  -45.5351 H         1 UNK         0.0800 
    133 H133       -0.3967  -13.1457  -46.7981 H         1 UNK         0.0800 
    134 H134       -1.3517  -14.6356  -48.2661 H         1 UNK         0.0800 
    135 H135       -0.1754  -14.3536  -49.5297 H         1 UNK         0.0800 
    136 H136       -2.8584  -15.8736  -49.6444 H         1 UNK         0.1150 
    137 H137       -1.7578  -19.7884  -50.9853 H         1 UNK         0.1150 
    138 H138        1.1963  -17.2239  -49.2451 H         1 UNK         0.1150 
    139 H139        0.5738  -20.4080  -51.0757 H         1 UNK         0.0800 
    140 H140        1.8140  -19.2597  -50.6483 H         1 UNK         0.0800 
    141 H141       -1.0215  -21.3681  -49.2220 H         1 UNK         0.0800 
    142 H142       -1.0094  -20.2994  -47.8357 H         1 UNK         0.0800 
    143 H143        0.1027  -23.1484  -47.8426 H         1 UNK         0.0600 
    144 H144        0.2657  -21.1402  -45.8147 H         1 UNK         0.3000 
    145 H145        0.6366  -23.4389  -43.0677 H         1 UNK         0.0600 
    146 H146        2.6312  -22.0171  -42.7183 H         1 UNK         0.0600 
    147 H147        2.9002  -23.1139  -44.0641 H         1 UNK         0.0600 
    148 H148        2.5370  -21.4216  -44.3741 H         1 UNK         0.0600 
    149 H149        0.5324  -20.6051  -43.1025 H         1 UNK         0.3000 
    150 H150       -3.0414  -20.2863  -42.7808 H         1 UNK         0.0600 
    151 H151       -2.1248  -20.6913  -40.5071 H         1 UNK         0.0600 
    152 H152       -2.2560  -18.9675  -40.8259 H         1 UNK         0.0600 
    153 H153       -0.6843  -19.7611  -40.8963 H         1 UNK         0.0600 
    154 H154       -1.0450  -18.2882  -42.9227 H         1 UNK         0.3000 
    155 H155       -0.9459  -17.9216  -46.4898 H         1 UNK         0.0600 
    156 H156       -2.8631  -16.5842  -45.6805 H         1 UNK         0.0600 
    157 H157       -1.4239  -15.5845  -45.7328 H         1 UNK         0.0600 
    158 H158       -2.0175  -16.1922  -44.1919 H         1 UNK         0.0600 
    159 H159        0.5030  -16.6338  -44.4028 H         1 UNK         0.3000 
    160 H160        3.2497  -18.9268  -44.2619 H         1 UNK         0.0600 
    161 H161        2.9469  -16.0944  -45.3923 H         1 UNK         0.0600 
    162 H162        3.7314  -17.4534  -46.1783 H         1 UNK         0.0600 
    163 H163        4.4292  -16.7682  -44.7170 H         1 UNK         0.0600 
    164 H164        2.5163  -16.4559  -42.9301 H         1 UNK         0.3000 
    165 H165        0.9130  -18.0136  -40.1491 H         1 UNK         0.0600 
    166 H166        2.7079  -16.9457  -38.8117 H         1 UNK         0.0600 
    167 H167        3.3174  -18.4011  -39.5829 H         1 UNK         0.0600 
    168 H168        3.7383  -16.8235  -40.2388 H         1 UNK         0.0600 
    169 H169        1.7844  -15.3378  -40.5743 H         1 UNK         0.3000 
    170 H170       -0.6259  -14.2267  -42.8305 H         1 UNK         0.0600 
    171 H171       -2.1205  -14.2813  -40.8243 H         1 UNK         0.0600 
    172 H172       -0.7997  -13.7051  -39.8143 H         1 UNK         0.0600 
    173 H173       -1.4587  -12.6764  -41.0876 H         1 UNK         0.0600 
    174 H174        1.0374  -12.6806  -41.1847 H         1 UNK         0.3000 
    175 H175        3.6722  -12.8239  -41.4941 H         1 UNK         0.0600 
    176 H176        3.9479  -12.5928  -44.5413 H         1 UNK         0.0600 
    177 H177        5.1512  -12.0789  -43.3627 H         1 UNK         0.0600 
    178 H178        4.7546  -13.7826  -43.5251 H         1 UNK         0.0600 
    179 H179        1.9734  -11.0991  -43.1996 H         1 UNK         0.3000 
    180 H180        1.5978   -8.8271  -41.3938 H         1 UNK         0.0600 
    181 H181        4.3339   -7.6850  -42.1648 H         1 UNK         0.0600 
    182 H182        3.6184   -7.7078  -40.5601 H         1 UNK         0.0600 
    183 H183        2.8973   -6.7223  -41.8206 H         1 UNK         0.0600 
    184 H184        0.9930   -8.6553  -43.5034 H         1 UNK         0.3000 
    185 H185        0.8877   -8.5018  -45.6323 H         1 UNK         0.0600 
    186 H186        2.4309   -6.6618  -46.3423 H         1 UNK         0.0600 
    187 H187        3.4893   -7.8381  -47.1115 H         1 UNK         0.0600 
    188 H188        1.8502   -7.5930  -47.7141 H         1 UNK         0.0600 
    189 H189        2.4343  -10.0490  -47.4209 H         1 UNK         0.3000 
    190 H190       -2.4730  -21.4900  -45.9156 H         1 UNK         0.3000 
    191 H191       -4.6952  -22.6831  -47.1088 H         1 UNK         0.0600 
    192 H192       -4.8411  -20.7583  -45.5726 H         1 UNK         0.0600 
    193 H193       -5.8862  -22.0554  -45.0174 H         1 UNK         0.0600 
    194 H194       -4.3506  -21.7668  -44.2124 H         1 UNK         0.0600 
    195 H195       -2.6937  -23.9294  -44.4265 H         1 UNK         0.3000 
    196 H196       -4.1521  -26.3066  -43.8939 H         1 UNK         0.0600 
    197 H197       -2.0329  -27.0158  -42.7797 H         1 UNK         0.0600 
    198 H198       -2.4374  -25.3560  -42.3681 H         1 UNK         0.0600 
    199 H199       -1.1700  -25.6880  -43.5464 H         1 UNK         0.0600 
    200 H200       -2.1405  -25.5043  -46.6089 H         1 UNK         0.3000 
    201 H201       -1.9701  -28.3297  -47.5479 H         1 UNK         0.0600 
    202 H202        0.2031  -27.0965  -47.3601 H         1 UNK         0.0600 
    203 H203       -0.4118  -25.8399  -48.4280 H         1 UNK         0.0600 
    204 H204       -0.1815  -27.4780  -49.0299 H         1 UNK         0.0600 
    205 H205       -4.3925  -26.5498  -47.5213 H         1 UNK         0.3000 
    206 H206       -6.1723  -26.0787  -48.7430 H         1 UNK         0.0600 
    207 H207       -5.9663  -28.4453  -49.5185 H         1 UNK         0.0600 
    208 H208       -6.6756  -27.4194  -50.7546 H         1 UNK         0.0600 
    209 H209       -4.9979  -27.9215  -50.8952 H         1 UNK         0.0600 
    210 H210       -4.3891  -24.1389  -48.6889 H         1 UNK         0.3000 
    211 H211       -3.7792  -22.1556  -49.4906 H         1 UNK         0.0600 
    212 H212       -5.7677  -22.5993  -51.7745 H         1 UNK         0.0600 
    213 H213       -5.0130  -21.0782  -51.3279 H         1 UNK         0.0600 
    214 H214       -6.1292  -21.8550  -50.2189 H         1 UNK         0.0600 
    215 H215       -2.1425  -24.2137  -49.8573 H         1 UNK         0.3000 
    216 H216       -0.4100  -25.1375  -50.8896 H         1 UNK         0.0600 
    217 H217        1.0763  -23.6421  -52.2416 H         1 UNK         0.0600 
    218 H218        0.5371  -22.8780  -50.7581 H         1 UNK         0.0600 
    219 H219       -0.1952  -22.4276  -52.2972 H         1 UNK         0.0600 
    220 H220       -2.5616  -26.2059  -51.7730 H         1 UNK         0.3000 
    221 H221       -3.7117  -27.2901  -53.3105 H         1 UNK         0.0600 
    222 H222       -1.1629  -27.2048  -55.0127 H         1 UNK         0.0600 
    223 H223       -1.5116  -28.3847  -53.7498 H         1 UNK         0.0600 
    224 H224       -2.5025  -28.3278  -55.1987 H         1 UNK         0.0600 
    225 H225       -4.4771  -24.8199  -53.2022 H         1 UNK         0.3000 
    226 H226       -5.5316  -23.0992  -54.0962 H         1 UNK         0.0600 
    227 H227       -6.9832  -24.9195  -54.9563 H         1 UNK         0.0600 
    228 H228       -6.9724  -23.5551  -56.0622 H         1 UNK         0.0600 
    229 H229       -6.0435  -24.9984  -56.4456 H         1 UNK         0.0600 
    230 H230       -3.1399  -22.3295  -54.1684 H         1 UNK         0.3000 
    231 H231       -1.9311  -21.8185  -56.7307 H         1 UNK         0.0600 
    232 H232       -1.3275  -20.7292  -53.9358 H         1 UNK         0.0600 
    233 H233       -0.2745  -20.5790  -55.3402 H         1 UNK         0.0600 
    234 H234       -0.6159  -22.1646  -54.6737 H         1 UNK         0.0600 
    235 H235       -4.2948  -20.9024  -57.2596 H         1 UNK         0.3000 
    236 H236       -5.4998  -19.2798  -58.1547 H         1 UNK         0.0600 
    237 H237       -3.3557  -18.6630  -59.2995 H         1 UNK         0.0600 
    238 H238       -4.4154  -17.2817  -59.0798 H         1 UNK         0.0600 
    239 H239       -3.0218  -17.4861  -58.0294 H         1 UNK         0.0600 
    240 H240       -5.3165  -19.4982  -55.1839 H         1 UNK         0.3000 
    241 H241       -5.8770  -16.8610  -54.1269 H         1 UNK         0.0600 
    242 H242       -9.4654  -18.2739  -55.2694 H         1 UNK         0.3800 
    243 H243       -7.9765  -18.9073  -55.9195 H         1 UNK         0.3800 
    244 H244       -6.1375  -19.6087  -52.8188 H         1 UNK         0.0800 
    245 H245       -6.3048  -18.0855  -51.9839 H         1 UNK         0.0800 
    246 H246       -4.3072  -18.9391  -50.2242 H         1 UNK         0.0800 
    247 H247       -4.5198  -17.2415  -50.5941 H         1 UNK         0.0800 
@<TRIPOS>BOND
     1    1    2 1    
     2    1  127 1    
     3    1  128 1    
     4    1  129 1    
     5    2    3 2    
     6    2    4 am   BACKBONE|DICT|INTERRES
     7    4    5 1    
     8    4  130 1    
     9    5    6 1    
    10    5   65 1    
    11    5  131 1    
    12    6    7 1    
    13    6  132 1    
    14    6  133 1    
    15    7    8 1    
    16    8    9 1    
    17    8  134 1    
    18    8  135 1    
    19    9   10 ar   
    20    9   14 ar   
    21   10   11 ar   
    22   10  136 1    
    23   11   12 ar   
    24   11  126 1    
    25   12   13 ar   
    26   12  137 1    
    27   13   14 ar   
    28   13   15 1    
    29   14  138 1    
    30   15   16 1    
    31   15  139 1    
    32   15  140 1    
    33   16   17 1    
    34   17   18 1    
    35   17  141 1    
    36   17  142 1    
    37   18   19 1    
    38   18   67 1    
    39   18  143 1    
    40   19   20 am   BACKBONE|DICT|INTERRES
    41   19  144 1    
    42   20   21 2    
    43   20   22 1    
    44   22   23 1    
    45   22   24 1    
    46   22  145 1    
    47   23  146 1    
    48   23  147 1    
    49   23  148 1    
    50   24   25 am   BACKBONE|DICT|INTERRES
    51   24  149 1    
    52   25   26 2    
    53   25   27 1    
    54   27   28 1    
    55   27   29 1    
    56   27  150 1    
    57   28  151 1    
    58   28  152 1    
    59   28  153 1    
    60   29   30 am   BACKBONE|DICT|INTERRES
    61   29  154 1    
    62   30   31 2    
    63   30   32 1    
    64   32   33 1    
    65   32   34 1    
    66   32  155 1    
    67   33  156 1    
    68   33  157 1    
    69   33  158 1    
    70   34   35 am   BACKBONE|DICT|INTERRES
    71   34  159 1    
    72   35   36 2    
    73   35   37 1    
    74   37   38 1    
    75   37   39 1    
    76   37  160 1    
    77   38  161 1    
    78   38  162 1    
    79   38  163 1    
    80   39   40 am   BACKBONE|DICT|INTERRES
    81   39  164 1    
    82   40   41 2    
    83   40   42 1    
    84   42   43 1    
    85   42   44 1    
    86   42  165 1    
    87   43  166 1    
    88   43  167 1    
    89   43  168 1    
    90   44   45 am   BACKBONE|DICT|INTERRES
    91   44  169 1    
    92   45   46 2    
    93   45   47 1    
    94   47   48 1    
    95   47   49 1    
    96   47  170 1    
    97   48  171 1    
    98   48  172 1    
    99   48  173 1    
   100   49   50 am   BACKBONE|DICT|INTERRES
   101   49  174 1    
   102   50   51 2    
   103   50   52 1    
   104   52   53 1    
   105   52   54 1    
   106   52  175 1    
   107   53  176 1    
   108   53  177 1    
   109   53  178 1    
   110   54   55 am   BACKBONE|DICT|INTERRES
   111   54  179 1    
   112   55   56 2    
   113   55   57 1    
   114   57   58 1    
   115   57   59 1    
   116   57  180 1    
   117   58  181 1    
   118   58  182 1    
   119   58  183 1    
   120   59   60 am   BACKBONE|DICT|INTERRES
   121   59  184 1    
   122   60   61 2    
   123   60   62 1    
   124   62   63 1    
   125   62   64 1    
   126   62  185 1    
   127   63  186 1    
   128   63  187 1    
   129   63  188 1    
   130   64   65 am   BACKBONE|DICT|INTERRES
   131   64  189 1    
   132   65   66 2    
   133   67   68 2    
   134   67   69 am   BACKBONE|DICT|INTERRES
   135   69   70 1    
   136   69  190 1    
   137   70   71 1    
   138   70   72 1    
   139   70  191 1    
   140   71  192 1    
   141   71  193 1    
   142   71  194 1    
   143   72   73 2    
   144   72   74 am   BACKBONE|DICT|INTERRES
   145   74   75 1    
   146   74  195 1    
   147   75   76 1    
   148   75   77 1    
   149   75  196 1    
   150   76  197 1    
   151   76  198 1    
   152   76  199 1    
   153   77   78 2    
   154   77   79 am   BACKBONE|DICT|INTERRES
   155   79   80 1    
   156   79  200 1    
   157   80   81 1    
   158   80   82 1    
   159   80  201 1    
   160   81  202 1    
   161   81  203 1    
   162   81  204 1    
   163   82   83 2    
   164   82   84 am   BACKBONE|DICT|INTERRES
   165   84   85 1    
   166   84  205 1    
   167   85   86 1    
   168   85   87 1    
   169   85  206 1    
   170   86  207 1    
   171   86  208 1    
   172   86  209 1    
   173   87   88 2    
   174   87   89 am   BACKBONE|DICT|INTERRES
   175   89   90 1    
   176   89  210 1    
   177   90   91 1    
   178   90   92 1    
   179   90  211 1    
   180   91  212 1    
   181   91  213 1    
   182   91  214 1    
   183   92   93 2    
   184   92   94 am   BACKBONE|DICT|INTERRES
   185   94   95 1    
   186   94  215 1    
   187   95   96 1    
   188   95   97 1    
   189   95  216 1    
   190   96  217 1    
   191   96  218 1    
   192   96  219 1    
   193   97   98 2    
   194   97   99 am   BACKBONE|DICT|INTERRES
   195   99  100 1    
   196   99  220 1    
   197  100  101 1    
   198  100  102 1    
   199  100  221 1    
   200  101  222 1    
   201  101  223 1    
   202  101  224 1    
   203  102  103 2    
   204  102  104 am   BACKBONE|DICT|INTERRES
   205  104  105 1    
   206  104  225 1    
   207  105  106 1    
   208  105  107 1    
   209  105  226 1    
   210  106  227 1    
   211  106  228 1    
   212  106  229 1    
   213  107  108 2    
   214  107  109 am   BACKBONE|DICT|INTERRES
   215  109  110 1    
   216  109  230 1    
   217  110  111 1    
   218  110  112 1    
   219  110  231 1    
   220  111  232 1    
   221  111  233 1    
   222  111  234 1    
   223  112  113 2    
   224  112  114 am   BACKBONE|DICT|INTERRES
   225  114  115 1    
   226  114  235 1    
   227  115  116 1    
   228  115  117 1    
   229  115  236 1    
   230  116  237 1    
   231  116  238 1    
   232  116  239 1    
   233  117  118 2    
   234  117  119 am   BACKBONE|DICT|INTERRES
   235  119  120 1    
   236  119  240 1    
   237  120  121 1    
   238  120  124 1    
   239  120  241 1    
   240  121  122 am   BACKBONE|DICT|INTERRES
   241  121  123 2    
   242  122  242 1    
   243  122  243 1    
   244  124  125 1    
   245  124  244 1    
   246  124  245 1    
   247  125  126 1    
   248  126  246 1    
   249  126  247 1    
@<TRIPOS>SUBSTRUCTURE
     1 UNK         1 GROUP             0       ****    0 ROOT    
