@<TRIPOS>MOLECULE
3R540
247   249    1
SMALL
USER_CHARGES


@<TRIPOS>ATOM
      1 CA         -2.8534  -13.2560  -51.3693 C.3       0 UNK        -0.1800 
      2 C          -1.9883  -13.1603  -50.1215 C.2       0 UNK         0.5000 
      3 O          -2.3801  -12.5125  -49.1502 O.2       0 UNK        -0.5000 
      4 N          -0.8175  -13.8133  -50.1336 N.am      1 UNK        -0.5000 
      5 CA          0.1676  -13.8189  -49.0413 C.3       1 UNK         0.1400 
      6 C6          1.5131  -14.4609  -49.4632 C.3       23 UNK        -0.0398 
      7 S7          1.3554  -16.1669  -50.0937 S.3       23 UNK        -0.2404 
      8 C8          3.0588  -16.7727  -49.8856 C.3       23 UNK        -0.0205 
      9 C9          3.2171  -18.2003  -50.3895 C.ar      23 UNK        -0.0193 
     10 C10         3.0147  -18.4815  -51.7429 C.ar      23 UNK        -0.1150 
     11 C11         3.1839  -19.7766  -52.2356 C.ar      23 UNK        -0.0193 
     12 C12         3.5774  -20.7970  -51.3660 C.ar      23 UNK        -0.1150 
     13 C13         3.7955  -20.5304  -50.0100 C.ar      23 UNK        -0.0193 
     14 C14         3.6020  -19.2314  -49.5241 C.ar      23 UNK        -0.1150 
     15 C15         4.2996  -21.6382  -49.0936 C.3       23 UNK        -0.0205 
     16 S16         3.0259  -22.8891  -48.7353 S.3       23 UNK        -0.2404 
     17 C17         2.1051  -22.0777  -47.3900 C.3       23 UNK        -0.0398 
     18 CA          1.0287  -23.0010  -46.7639 C.3       11 UNK         0.1400 
     19 N           0.6791  -22.5878  -45.4005 N.am      11 UNK        -0.5000 
     20 C          -0.1429  -23.2563  -44.5774 C.2       10 UNK         0.5000 
     21 O          -0.6459  -24.3467  -44.8482 O.2       10 UNK        -0.5000 
     22 CA         -0.5168  -22.5606  -43.2549 C.3       10 UNK         0.1400 
     23 CB          0.5776  -22.7581  -42.1959 C.3       10 UNK        -0.1800 
     24 N          -0.7829  -21.1322  -43.4334 N.am      10 UNK        -0.5000 
     25 C          -1.7869  -20.6355  -44.1703 C.2       9 UNK         0.5000 
     26 O          -2.6403  -21.3332  -44.7148 O.2       9 UNK        -0.5000 
     27 CA         -1.8091  -19.1120  -44.3863 C.3       9 UNK         0.1400 
     28 CB         -2.4504  -18.3975  -43.1887 C.3       9 UNK        -0.1800 
     29 N          -0.4742  -18.5679  -44.6442 N.am      9 UNK        -0.5000 
     30 C           0.2683  -18.8775  -45.7175 C.2       8 UNK         0.5000 
     31 O          -0.1275  -19.5956  -46.6328 O.2       8 UNK        -0.5000 
     32 CA          1.7108  -18.3475  -45.7541 C.3       8 UNK         0.1400 
     33 CB          1.7631  -16.9331  -46.3340 C.3       8 UNK        -0.1800 
     34 N           2.3308  -18.3536  -44.4330 N.am      8 UNK        -0.5000 
     35 C           2.6923  -19.4640  -43.7774 C.2       7 UNK         0.5000 
     36 O           2.5971  -20.5969  -44.2491 O.2       7 UNK        -0.5000 
     37 CA          3.1897  -19.2700  -42.3336 C.3       7 UNK         0.1400 
     38 CB          4.6824  -18.9092  -42.3174 C.3       7 UNK        -0.1800 
     39 N           2.4302  -18.2368  -41.6246 N.am      7 UNK        -0.5000 
     40 C           1.1334  -18.3455  -41.3013 C.2       6 UNK         0.5000 
     41 O           0.4650  -19.3561  -41.5134 O.2       6 UNK        -0.5000 
     42 CA          0.4603  -17.1078  -40.6798 C.3       6 UNK         0.1400 
     43 CB          0.5736  -17.1462  -39.1488 C.3       6 UNK        -0.1800 
     44 N           1.0134  -15.8452  -41.1762 N.am      6 UNK        -0.5000 
     45 C           0.8658  -15.3846  -42.4256 C.2       5 UNK         0.5000 
     46 O           0.2469  -15.9803  -43.3093 O.2       5 UNK        -0.5000 
     47 CA          1.5967  -14.0766  -42.7486 C.3       5 UNK         0.1400 
     48 CB          2.9746  -14.3689  -43.3682 C.3       5 UNK        -0.1800 
     49 N           0.8158  -13.2467  -43.6651 N.am      5 UNK        -0.5000 
     50 C           0.8340  -11.9063  -43.6515 C.2       4 UNK         0.5000 
     51 O           1.4733  -11.2469  -42.8299 O.2       4 UNK        -0.5000 
     52 CA          0.0287  -11.1541  -44.7243 C.3       4 UNK         0.1400 
     53 CB          0.9256  -10.8262  -45.9295 C.3       4 UNK        -0.1800 
     54 N          -1.1415  -11.8958  -45.1910 N.am      4 UNK        -0.5000 
     55 C          -2.3941  -11.6915  -44.7587 C.2       3 UNK         0.5000 
     56 O          -2.6788  -10.9138  -43.8468 O.2       3 UNK        -0.5000 
     57 CA         -3.5329  -12.4476  -45.4745 C.3       3 UNK         0.1400 
     58 CB         -4.3036  -11.4975  -46.4043 C.3       3 UNK        -0.1800 
     59 N          -3.0545  -13.5855  -46.2586 N.am      3 UNK        -0.5000 
     60 C          -2.7743  -14.7872  -45.7355 C.2       2 UNK         0.5000 
     61 O          -2.9877  -15.0769  -44.5594 O.2       2 UNK        -0.5000 
     62 CA         -2.1290  -15.8342  -46.6671 C.3       2 UNK         0.1400 
     63 CB         -3.1917  -16.8051  -47.1995 C.3       2 UNK        -0.1800 
     64 N          -1.4065  -15.2615  -47.8048 N.am      2 UNK        -0.5000 
     65 C          -0.3670  -14.4189  -47.7224 C.2       1 UNK         0.5000 
     66 O           0.1307  -14.0635  -46.6544 O.2       1 UNK        -0.5000 
     67 C          -0.2224  -23.1066  -47.6620 C.2       11 UNK         0.5000 
     68 O          -0.4292  -24.1322  -48.3103 O.2       11 UNK        -0.5000 
     69 N          -1.0619  -22.0636  -47.6360 N.am      12 UNK        -0.5000 
     70 CA         -2.3209  -21.9829  -48.3697 C.3       12 UNK         0.1400 
     71 CB         -2.9055  -20.5784  -48.2118 C.3       12 UNK        -0.1800 
     72 C          -3.3537  -23.0329  -47.9339 C.2       12 UNK         0.5000 
     73 O          -4.0738  -23.5512  -48.7870 O.2       12 UNK        -0.5000 
     74 N          -3.4111  -23.3291  -46.6296 N.am      13 UNK        -0.5000 
     75 CA         -4.2533  -24.3749  -46.0533 C.3       13 UNK         0.1400 
     76 CB         -4.2818  -24.2377  -44.5239 C.3       13 UNK        -0.1800 
     77 C          -3.7936  -25.7812  -46.4728 C.2       13 UNK         0.5000 
     78 O          -4.6308  -26.5976  -46.8563 O.2       13 UNK        -0.5000 
     79 N          -2.4748  -26.0242  -46.4406 N.am      14 UNK        -0.5000 
     80 CA         -1.8457  -27.2707  -46.8862 C.3       14 UNK         0.1400 
     81 CB         -0.3596  -27.2643  -46.4971 C.3       14 UNK        -0.1800 
     82 C          -2.0161  -27.5192  -48.3973 C.2       14 UNK         0.5000 
     83 O          -2.2554  -28.6563  -48.8050 O.2       14 UNK        -0.5000 
     84 N          -1.9286  -26.4455  -49.1936 N.am      15 UNK        -0.5000 
     85 CA         -2.1795  -26.4445  -50.6363 C.3       15 UNK         0.1400 
     86 CB         -1.5893  -25.1572  -51.2351 C.3       15 UNK        -0.1800 
     87 C          -3.6735  -26.5600  -51.0053 C.2       15 UNK         0.5000 
     88 O          -3.9813  -26.8302  -52.1666 O.2       15 UNK        -0.5000 
     89 N          -4.5648  -26.3222  -50.0298 N.am      16 UNK        -0.5000 
     90 CA         -6.0248  -26.2207  -50.1490 C.3       16 UNK         0.1400 
     91 CB         -6.6449  -27.5714  -50.5623 C.3       16 UNK        -0.1800 
     92 C          -6.4731  -25.0446  -51.0461 C.2       16 UNK         0.5000 
     93 O          -7.5264  -25.1118  -51.6822 O.2       16 UNK        -0.5000 
     94 N          -5.6566  -23.9848  -51.0741 N.am      17 UNK        -0.5000 
     95 CA         -5.8703  -22.7632  -51.8448 C.3       17 UNK         0.1400 
     96 CB         -4.5092  -22.2603  -52.3494 C.3       17 UNK        -0.1800 
     97 C          -6.5579  -21.6699  -51.0107 C.2       17 UNK         0.5000 
     98 O          -7.2298  -20.8132  -51.5853 O.2       17 UNK        -0.5000 
     99 N          -6.3564  -21.6996  -49.6829 N.am      18 UNK        -0.5000 
    100 CA        -6.8786  -20.8010  -48.6389 C.3       18 UNK         0.1400 
    101 CB        -8.4164  -20.8503  -48.5784 C.3       18 UNK        -0.1800 
    102 C         -6.3726  -19.3432  -48.7113 C.2       18 UNK         0.5000 
    103 O         -5.9683  -18.7961  -47.6867 O.2       18 UNK        -0.5000 
    104 N         -6.3678  -18.7560  -49.9125 N.am      19 UNK        -0.5000 
    105 CA        -5.8644  -17.4128  -50.2153 C.3       19 UNK         0.1400 
    106 CB        -6.8171  -16.7585  -51.2291 C.3       19 UNK        -0.1800 
    107 C         -4.4242  -17.4330  -50.7685 C.2       19 UNK         0.5000 
    108 O         -3.8914  -16.3762  -51.1075 O.2       19 UNK        -0.5000 
    109 N         -3.8336  -18.6306  -50.8865 N.am      20 UNK        -0.5000 
    110 CA        -2.5406  -18.9711  -51.4931 C.3       20 UNK         0.1400 
    111 CB        -1.3685  -18.1667  -50.8959 C.3       20 UNK        -0.1800 
    112 C         -2.5683  -18.8589  -53.0253 C.2       20 UNK         0.5000 
    113 O         -2.3040  -19.8488  -53.7053 O.2       20 UNK        -0.5000 
    114 N         -2.8885  -17.6613  -53.5347 N.am      21 UNK        -0.5000 
    115 CA        -3.0117  -17.2451  -54.9408 C.3       21 UNK         0.1400 
    116 CB        -4.1151  -18.0457  -55.6580 C.3       21 UNK        -0.1800 
    117 C         -1.6986  -17.2584  -55.7553 C.2       21 UNK         0.5000 
    118 O         -1.5274  -16.4078  -56.6290 O.2       21 UNK        -0.5000 
    119 N         -0.7936  -18.1951  -55.4552 N.am      22 UNK        -0.5000 
    120 CA         0.5428  -18.3447  -56.0508 C.3       22 UNK         0.1400 
    121 C          1.5765  -17.2455  -55.6596 C.2       22 UNK         0.5000 
    122 N          1.3079  -16.3922  -54.6786 N.am      22 UNK        -0.7600 
    123 O          2.6402  -17.1612  -56.2674 O.2       22 UNK        -0.5000 
    124 C124        1.1029  -19.7752  -55.8225 C.3       23 UNK        -0.0398 
    125 S125        1.1831  -20.2643  -54.0614 S.3       23 UNK        -0.2404 
    126 C126        2.9548  -20.0540  -53.7112 C.3       23 UNK        -0.0205 
    127 H127       -2.9205  -12.2830  -51.8555 H         1 UNK         0.0600 
    128 H128       -3.8609  -13.5758  -51.1027 H         1 UNK         0.0600 
    129 H129       -2.4513  -13.9721  -52.0865 H         1 UNK         0.0600 
    130 H130       -0.5568  -14.3489  -50.9494 H         1 UNK         0.3000 
    131 H131        0.3776  -12.7706  -48.8177 H         1 UNK         0.0600 
    132 H132        2.2182  -14.4455  -48.6298 H         1 UNK         0.0800 
    133 H133        1.9722  -13.8577  -50.2476 H         1 UNK         0.0800 
    134 H134        3.3458  -16.7010  -48.8365 H         1 UNK         0.0800 
    135 H135        3.7401  -16.1246  -50.4386 H         1 UNK         0.0800 
    136 H136        2.7182  -17.6884  -52.4154 H         1 UNK         0.1150 
    137 H137        3.7244  -21.7989  -51.7445 H         1 UNK         0.1150 
    138 H138        3.7781  -19.0179  -48.4795 H         1 UNK         0.1150 
    139 H139        5.1429  -22.1338  -49.5768 H         1 UNK         0.0800 
    140 H140        4.6889  -21.2276  -48.1607 H         1 UNK         0.0800 
    141 H141        1.6771  -21.1451  -47.7604 H         1 UNK         0.0800 
    142 H142        2.8345  -21.7960  -46.6299 H         1 UNK         0.0800 
    143 H143        1.4502  -24.0047  -46.6749 H         1 UNK         0.0600 
    144 H144        1.0896  -21.7213  -45.0702 H         1 UNK         0.3000 
    145 H145       -1.4327  -23.0247  -42.8836 H         1 UNK         0.0600 
    146 H146        0.2870  -22.3155  -41.2429 H         1 UNK         0.0600 
    147 H147        1.5219  -22.3063  -42.4986 H         1 UNK         0.0600 
    148 H148        0.7625  -23.8185  -42.0203 H         1 UNK         0.0600 
    149 H149       -0.1637  -20.4856  -42.9532 H         1 UNK         0.3000 
    150 H150       -2.4207  -18.9114  -45.2670 H         1 UNK         0.0600 
    151 H151       -3.5027  -18.6688  -43.0973 H         1 UNK         0.0600 
    152 H152       -2.4006  -17.3149  -43.2972 H         1 UNK         0.0600 
    153 H153       -1.9660  -18.6609  -42.2495 H         1 UNK         0.0600 
    154 H154       -0.1060  -17.9091  -43.9674 H         1 UNK         0.3000 
    155 H155        2.2883  -19.0022  -46.4099 H         1 UNK         0.0600 
    156 H156        1.2818  -16.9051  -47.3100 H         1 UNK         0.0600 
    157 H157        2.7899  -16.5908  -46.4590 H         1 UNK         0.0600 
    158 H158        1.2474  -16.2186  -45.6952 H         1 UNK         0.0600 
    159 H159        2.4040  -17.4655  -43.9611 H         1 UNK         0.3000 
    160 H160        3.0588  -20.2165  -41.8046 H         1 UNK         0.0600 
    161 H161        4.8744  -17.9571  -42.8138 H         1 UNK         0.0600 
    162 H162        5.2728  -19.6711  -42.8283 H         1 UNK         0.0600 
    163 H163        5.0592  -18.8380  -41.2969 H         1 UNK         0.0600 
    164 H164        2.9149  -17.3802  -41.4023 H         1 UNK         0.3000 
    165 H165       -0.5988  -17.1384  -40.9428 H         1 UNK         0.0600 
    166 H166        0.0345  -16.3158  -38.6925 H         1 UNK         0.0600 
    167 H167        0.1469  -18.0673  -38.7492 H         1 UNK         0.0600 
    168 H168        1.6120  -17.0953  -38.8188 H         1 UNK         0.0600 
    169 H169        1.5453  -15.2999  -40.5128 H         1 UNK         0.3000 
    170 H170        1.7428  -13.5426  -41.8071 H         1 UNK         0.0600 
    171 H171        2.8829  -14.8654  -44.3346 H         1 UNK         0.0600 
    172 H172        3.5399  -13.4493  -43.5206 H         1 UNK         0.0600 
    173 H173        3.5721  -15.0116  -42.7206 H         1 UNK         0.0600 
    174 H174        0.2747  -13.7431  -44.3636 H         1 UNK         0.3000 
    175 H175       -0.2886  -10.2046  -44.2877 H         1 UNK         0.0600 
    176 H176        1.3348  -11.7257  -46.3896 H         1 UNK         0.0600 
    177 H177        0.3751  -10.2782  -46.6943 H         1 UNK         0.0600 
    178 H178        1.7690  -10.2038  -45.6277 H         1 UNK         0.0600 
    179 H179       -0.9666  -12.6049  -45.8941 H         1 UNK         0.3000 
    180 H180       -4.2256  -12.8038  -44.7091 H         1 UNK         0.0600 
    181 H181       -5.1285  -12.0109  -46.8985 H         1 UNK         0.0600 
    182 H182       -3.6576  -11.0789  -47.1769 H         1 UNK         0.0600 
    183 H183       -4.7287  -10.6629  -45.8454 H         1 UNK         0.0600 
    184 H184       -2.8494  -13.4074  -47.2357 H         1 UNK         0.3000 
    185 H185       -1.4103  -16.3940  -46.0684 H         1 UNK         0.0600 
    186 H186       -3.9048  -16.2980  -47.8496 H         1 UNK         0.0600 
    187 H187       -2.7363  -17.6154  -47.7670 H         1 UNK         0.0600 
    188 H188       -3.7594  -17.2570  -46.3853 H         1 UNK         0.0600 
    189 H189       -1.7588  -15.4845  -48.7244 H         1 UNK         0.3000 
    190 H190       -0.7960  -21.2359  -47.1062 H         1 UNK         0.3000 
    191 H191       -2.0985  -22.1469  -49.4258 H         1 UNK         0.0600 
    192 H192       -2.1804  -19.8201  -48.4965 H         1 UNK         0.0600 
    193 H193       -3.2145  -20.3739  -47.1866 H         1 UNK         0.0600 
    194 H194       -3.7778  -20.4586  -48.8485 H         1 UNK         0.0600 
    195 H195       -2.8530  -22.7823  -45.9800 H         1 UNK         0.3000 
    196 H196       -5.2704  -24.2312  -46.4241 H         1 UNK         0.0600 
    197 H197       -4.6727  -23.2653  -44.2239 H         1 UNK         0.0600 
    198 H198       -3.2880  -24.3461  -44.0894 H         1 UNK         0.0600 
    199 H199       -4.9218  -24.9985  -44.0754 H         1 UNK         0.0600 
    200 H200       -1.8524  -25.3077  -46.0772 H         1 UNK         0.3000 
    201 H201       -2.3304  -28.0950  -46.3591 H         1 UNK         0.0600 
    202 H202       -0.2360  -27.1686  -45.4182 H         1 UNK         0.0600 
    203 H203        0.1775  -26.4406  -46.9681 H         1 UNK         0.0600 
    204 H204        0.1281  -28.1916  -46.8000 H         1 UNK         0.0600 
    205 H205       -1.6371  -25.5616  -48.7840 H         1 UNK         0.3000 
    206 H206       -1.6629  -27.2985  -51.0787 H         1 UNK         0.0600 
    207 H207       -2.0701  -24.2680  -50.8261 H         1 UNK         0.0600 
    208 H208       -0.5205  -25.0817  -51.0339 H         1 UNK         0.0600 
    209 H209       -1.7185  -25.1310  -52.3179 H         1 UNK         0.0600 
    210 H210       -4.1977  -26.1085  -49.1118 H         1 UNK         0.3000 
    211 H211       -6.3888  -25.9868  -49.1477 H         1 UNK         0.0600 
    212 H212       -6.3900  -27.8397  -51.5877 H         1 UNK         0.0600 
    213 H213       -7.7328  -27.5383  -50.4952 H         1 UNK         0.0600 
    214 H214       -6.3051  -28.3757  -49.9097 H         1 UNK         0.0600 
    215 H215       -4.8527  -23.9976  -50.4530 H         1 UNK         0.3000 
    216 H216       -6.5013  -22.9742  -52.7108 H         1 UNK         0.0600 
    217 H217       -4.6221  -21.3497  -52.9393 H         1 UNK         0.0600 
    218 H218       -4.0289  -23.0016  -52.9883 H         1 UNK         0.0600 
    219 H219       -3.8284  -22.0409  -51.5263 H         1 UNK         0.0600 
    220 H220       -5.7598  -22.4426  -49.3369 H         1 UNK         0.3000 
    221 H221       -6.5055  -21.2079  -47.6974 H         1 UNK         0.0600 
    222 H222       -8.8750  -20.4498  -49.4829 H         1 UNK         0.0600 
    223 H223       -8.7722  -21.8721  -48.4466 H         1 UNK         0.0600 
    224 H224       -8.7911  -20.2647  -47.7380 H         1 UNK         0.0600 
    225 H225       -6.7375  -19.2965  -50.6927 H         1 UNK         0.3000 
    226 H226       -5.8586  -16.8032  -49.3099 H         1 UNK         0.0600 
    227 H227       -7.8343  -16.7124  -50.8397 H         1 UNK         0.0600 
    228 H228       -6.5114  -15.7359  -51.4547 H         1 UNK         0.0600 
    229 H229       -6.8430  -17.3098  -52.1700 H         1 UNK         0.0600 
    230 H230       -4.3918  -19.4204  -50.6023 H         1 UNK         0.3000 
    231 H231       -2.3653  -20.0206  -51.2521 H         1 UNK         0.0600 
    232 H232       -0.4144  -18.5640  -51.2458 H         1 UNK         0.0600 
    233 H233       -1.3540  -18.2081  -49.8085 H         1 UNK         0.0600 
    234 H234       -1.3991  -17.1154  -51.1812 H         1 UNK         0.0600 
    235 H235       -3.1017  -16.9387  -52.8531 H         1 UNK         0.3000 
    236 H236       -3.3373  -16.2043  -54.9047 H         1 UNK         0.0600 
    237 H237       -3.8554  -19.0999  -55.7575 H         1 UNK         0.0600 
    238 H238       -5.0610  -17.9822  -55.1200 H         1 UNK         0.0600 
    239 H239       -4.2857  -17.6576  -56.6629 H         1 UNK         0.0600 
    240 H240       -1.0463  -18.8833  -54.7519 H         1 UNK         0.3000 
    241 H241        0.4113  -18.2319  -57.1285 H         1 UNK         0.0600 
    242 H242        1.9794  -15.6790  -54.4440 H         1 UNK         0.3800 
    243 H243        0.4400  -16.4543  -54.1733 H         1 UNK         0.3800 
    244 H244        2.0820  -19.8929  -56.2901 H         1 UNK         0.0800 
    245 H245        0.4563  -20.4937  -56.3277 H         1 UNK         0.0800 
    246 H246        3.3599  -19.2266  -54.2954 H         1 UNK         0.0800 
    247 H247        3.4947  -20.9478  -54.0270 H         1 UNK         0.0800 
@<TRIPOS>BOND
     1    1    2 1    
     2    1  127 1    
     3    1  128 1    
     4    1  129 1    
     5    2    3 2    
     6    2    4 am   BACKBONE|DICT|INTERRES
     7    4    5 1    
     8    4  130 1    
     9    5    6 1    
    10    5   65 1    
    11    5  131 1    
    12    6    7 1    
    13    6  132 1    
    14    6  133 1    
    15    7    8 1    
    16    8    9 1    
    17    8  134 1    
    18    8  135 1    
    19    9   10 ar   
    20    9   14 ar   
    21   10   11 ar   
    22   10  136 1    
    23   11   12 ar   
    24   11  126 1    
    25   12   13 ar   
    26   12  137 1    
    27   13   14 ar   
    28   13   15 1    
    29   14  138 1    
    30   15   16 1    
    31   15  139 1    
    32   15  140 1    
    33   16   17 1    
    34   17   18 1    
    35   17  141 1    
    36   17  142 1    
    37   18   19 1    
    38   18   67 1    
    39   18  143 1    
    40   19   20 am   BACKBONE|DICT|INTERRES
    41   19  144 1    
    42   20   21 2    
    43   20   22 1    
    44   22   23 1    
    45   22   24 1    
    46   22  145 1    
    47   23  146 1    
    48   23  147 1    
    49   23  148 1    
    50   24   25 am   BACKBONE|DICT|INTERRES
    51   24  149 1    
    52   25   26 2    
    53   25   27 1    
    54   27   28 1    
    55   27   29 1    
    56   27  150 1    
    57   28  151 1    
    58   28  152 1    
    59   28  153 1    
    60   29   30 am   BACKBONE|DICT|INTERRES
    61   29  154 1    
    62   30   31 2    
    63   30   32 1    
    64   32   33 1    
    65   32   34 1    
    66   32  155 1    
    67   33  156 1    
    68   33  157 1    
    69   33  158 1    
    70   34   35 am   BACKBONE|DICT|INTERRES
    71   34  159 1    
    72   35   36 2    
    73   35   37 1    
    74   37   38 1    
    75   37   39 1    
    76   37  160 1    
    77   38  161 1    
    78   38  162 1    
    79   38  163 1    
    80   39   40 am   BACKBONE|DICT|INTERRES
    81   39  164 1    
    82   40   41 2    
    83   40   42 1    
    84   42   43 1    
    85   42   44 1    
    86   42  165 1    
    87   43  166 1    
    88   43  167 1    
    89   43  168 1    
    90   44   45 am   BACKBONE|DICT|INTERRES
    91   44  169 1    
    92   45   46 2    
    93   45   47 1    
    94   47   48 1    
    95   47   49 1    
    96   47  170 1    
    97   48  171 1    
    98   48  172 1    
    99   48  173 1    
   100   49   50 am   BACKBONE|DICT|INTERRES
   101   49  174 1    
   102   50   51 2    
   103   50   52 1    
   104   52   53 1    
   105   52   54 1    
   106   52  175 1    
   107   53  176 1    
   108   53  177 1    
   109   53  178 1    
   110   54   55 am   BACKBONE|DICT|INTERRES
   111   54  179 1    
   112   55   56 2    
   113   55   57 1    
   114   57   58 1    
   115   57   59 1    
   116   57  180 1    
   117   58  181 1    
   118   58  182 1    
   119   58  183 1    
   120   59   60 am   BACKBONE|DICT|INTERRES
   121   59  184 1    
   122   60   61 2    
   123   60   62 1    
   124   62   63 1    
   125   62   64 1    
   126   62  185 1    
   127   63  186 1    
   128   63  187 1    
   129   63  188 1    
   130   64   65 am   BACKBONE|DICT|INTERRES
   131   64  189 1    
   132   65   66 2    
   133   67   68 2    
   134   67   69 am   BACKBONE|DICT|INTERRES
   135   69   70 1    
   136   69  190 1    
   137   70   71 1    
   138   70   72 1    
   139   70  191 1    
   140   71  192 1    
   141   71  193 1    
   142   71  194 1    
   143   72   73 2    
   144   72   74 am   BACKBONE|DICT|INTERRES
   145   74   75 1    
   146   74  195 1    
   147   75   76 1    
   148   75   77 1    
   149   75  196 1    
   150   76  197 1    
   151   76  198 1    
   152   76  199 1    
   153   77   78 2    
   154   77   79 am   BACKBONE|DICT|INTERRES
   155   79   80 1    
   156   79  200 1    
   157   80   81 1    
   158   80   82 1    
   159   80  201 1    
   160   81  202 1    
   161   81  203 1    
   162   81  204 1    
   163   82   83 2    
   164   82   84 am   BACKBONE|DICT|INTERRES
   165   84   85 1    
   166   84  205 1    
   167   85   86 1    
   168   85   87 1    
   169   85  206 1    
   170   86  207 1    
   171   86  208 1    
   172   86  209 1    
   173   87   88 2    
   174   87   89 am   BACKBONE|DICT|INTERRES
   175   89   90 1    
   176   89  210 1    
   177   90   91 1    
   178   90   92 1    
   179   90  211 1    
   180   91  212 1    
   181   91  213 1    
   182   91  214 1    
   183   92   93 2    
   184   92   94 am   BACKBONE|DICT|INTERRES
   185   94   95 1    
   186   94  215 1    
   187   95   96 1    
   188   95   97 1    
   189   95  216 1    
   190   96  217 1    
   191   96  218 1    
   192   96  219 1    
   193   97   98 2    
   194   97   99 am   BACKBONE|DICT|INTERRES
   195   99  100 1    
   196   99  220 1    
   197  100  101 1    
   198  100  102 1    
   199  100  221 1    
   200  101  222 1    
   201  101  223 1    
   202  101  224 1    
   203  102  103 2    
   204  102  104 am   BACKBONE|DICT|INTERRES
   205  104  105 1    
   206  104  225 1    
   207  105  106 1    
   208  105  107 1    
   209  105  226 1    
   210  106  227 1    
   211  106  228 1    
   212  106  229 1    
   213  107  108 2    
   214  107  109 am   BACKBONE|DICT|INTERRES
   215  109  110 1    
   216  109  230 1    
   217  110  111 1    
   218  110  112 1    
   219  110  231 1    
   220  111  232 1    
   221  111  233 1    
   222  111  234 1    
   223  112  113 2    
   224  112  114 am   BACKBONE|DICT|INTERRES
   225  114  115 1    
   226  114  235 1    
   227  115  116 1    
   228  115  117 1    
   229  115  236 1    
   230  116  237 1    
   231  116  238 1    
   232  116  239 1    
   233  117  118 2    
   234  117  119 am   BACKBONE|DICT|INTERRES
   235  119  120 1    
   236  119  240 1    
   237  120  121 1    
   238  120  124 1    
   239  120  241 1    
   240  121  122 am   BACKBONE|DICT|INTERRES
   241  121  123 2    
   242  122  242 1    
   243  122  243 1    
   244  124  125 1    
   245  124  244 1    
   246  124  245 1    
   247  125  126 1    
   248  126  246 1    
   249  126  247 1    
@<TRIPOS>SUBSTRUCTURE
     1 UNK         1 GROUP             0       ****    0 ROOT    
