@<TRIPOS>MOLECULE
3R540
247   249    1
SMALL
USER_CHARGES


@<TRIPOS>ATOM
      1 CA          0.7279   -9.6424  -49.7828 C.3       0 UNK        -0.1800 
      2 C           1.1650  -10.2505  -48.4582 C.2       0 UNK         0.5000 
      3 O           1.8891   -9.6104  -47.6952 O.2       0 UNK        -0.5000 
      4 N           0.7120  -11.4755  -48.1662 N.am      1 UNK        -0.5000 
      5 CA          1.0403  -12.2566  -46.9636 C.3       1 UNK         0.1400 
      6 C6          0.9698  -13.7827  -47.2332 C.3       23 UNK        -0.0398 
      7 S7          2.1550  -14.2998  -48.5242 S.3       23 UNK        -0.2404 
      8 C8          1.0812  -14.4876  -49.9828 C.3       23 UNK        -0.0205 
      9 C9          0.3890  -15.8413  -50.0167 C.ar      23 UNK        -0.0193 
     10 C10         1.0676  -16.9560  -50.5156 C.ar      23 UNK        -0.1150 
     11 C11         0.4344  -18.1999  -50.5995 C.ar      23 UNK        -0.0193 
     12 C12        -0.8834  -18.3280  -50.1514 C.ar      23 UNK        -0.1150 
     13 C13        -1.5673  -17.2243  -49.6307 C.ar      23 UNK        -0.0193 
     14 C14        -0.9309  -15.9805  -49.5783 C.ar      23 UNK        -0.1150 
     15 C15        -2.9863  -17.3841  -49.1027 C.3       23 UNK        -0.0205 
     16 S16        -3.0885  -17.2406  -47.2835 S.3       23 UNK        -0.2404 
     17 C17        -1.7925  -18.3931  -46.7175 C.3       23 UNK        -0.0398 
     18 CA         -2.1931  -19.8820  -46.8362 C.3       11 UNK         0.1400 
     19 N          -1.0288  -20.7293  -47.0967 N.am      11 UNK        -0.5000 
     20 C          -1.0912  -21.9859  -47.5582 C.2       10 UNK         0.5000 
     21 O          -2.1397  -22.5511  -47.8550 O.2       10 UNK        -0.5000 
     22 CA          0.2391  -22.7534  -47.6687 C.3       10 UNK         0.1400 
     23 CB          0.8436  -22.5838  -49.0682 C.3       10 UNK        -0.1800 
     24 N           1.2210  -22.3325  -46.6699 N.am      10 UNK        -0.5000 
     25 C           1.0757  -22.4471  -45.3451 C.2       9 UNK         0.5000 
     26 O           0.1035  -22.9824  -44.8125 O.2       9 UNK        -0.5000 
     27 CA          2.1527  -21.7848  -44.4709 C.3       9 UNK         0.1400 
     28 CB          3.4366  -22.6316  -44.4040 C.3       9 UNK        -0.1800 
     29 N           2.4301  -20.3929  -44.8484 N.am      9 UNK        -0.5000 
     30 C           3.0398  -19.9009  -45.9381 C.2       8 UNK         0.5000 
     31 O           3.4594  -20.5921  -46.8665 O.2       8 UNK        -0.5000 
     32 CA          3.1831  -18.3690  -46.0065 C.3       8 UNK         0.1400 
     33 CB          1.9608  -17.7486  -46.6956 C.3       8 UNK        -0.1800 
     34 N           3.3316  -17.7745  -44.6778 N.am      8 UNK        -0.5000 
     35 C           4.4596  -17.8118  -43.9541 C.2       7 UNK         0.5000 
     36 O           5.5358  -18.2324  -44.3798 O.2       7 UNK        -0.5000 
     37 CA          4.3514  -17.3360  -42.4938 C.3       7 UNK         0.1400 
     38 CB          4.5437  -15.8147  -42.3953 C.3       7 UNK        -0.1800 
     39 N           3.0704  -17.7173  -41.8924 N.am      7 UNK        -0.5000 
     40 C           2.7489  -18.9748  -41.5488 C.2       6 UNK         0.5000 
     41 O           3.5288  -19.9230  -41.6313 O.2       6 UNK        -0.5000 
     42 CA          1.3135  -19.2339  -41.0523 C.3       6 UNK         0.1400 
     43 CB          1.2791  -19.3026  -39.5185 C.3       6 UNK        -0.1800 
     44 N           0.3504  -18.2291  -41.5018 N.am      6 UNK        -0.5000 
     45 C          -0.0872  -18.0768  -42.7598 C.2       5 UNK         0.5000 
     46 O           0.2580  -18.7989  -43.6960 O.2       5 UNK        -0.5000 
     47 CA         -1.0477  -16.8970  -43.0082 C.3       5 UNK         0.1400 
     48 CB         -2.5080  -17.3507  -42.8661 C.3       5 UNK        -0.1800 
     49 N          -0.7999  -15.7796  -42.0924 N.am      5 UNK        -0.5000 
     50 C           0.2935  -15.0096  -42.1392 C.2       4 UNK         0.5000 
     51 O           1.1693  -15.1169  -43.0009 O.2       4 UNK        -0.5000 
     52 CA          0.4840  -14.0174  -40.9880 C.3       4 UNK         0.1400 
     53 CB          1.3641  -14.6593  -39.8950 C.3       4 UNK        -0.1800 
     54 N           1.0985  -12.8105  -41.5275 N.am      4 UNK        -0.5000 
     55 C           1.3303  -11.6710  -40.8661 C.2       3 UNK         0.5000 
     56 O           1.0924  -11.5019  -39.6695 O.2       3 UNK        -0.5000 
     57 CA          1.8878  -10.5044  -41.7020 C.3       3 UNK         0.1400 
     58 CB          3.3849  -10.7030  -41.9879 C.3       3 UNK        -0.1800 
     59 N           1.1708  -10.3209  -42.9662 N.am      3 UNK        -0.5000 
     60 C          -0.1250   -9.9896  -43.0756 C.2       2 UNK         0.5000 
     61 O          -0.8601   -9.7772  -42.1104 O.2       2 UNK        -0.5000 
     62 CA         -0.7028   -9.8549  -44.4972 C.3       2 UNK         0.1400 
     63 CB         -0.8742   -8.3740  -44.8705 C.3       2 UNK        -0.1800 
     64 N           0.1113  -10.5025  -45.5259 N.am      2 UNK        -0.5000 
     65 C           0.1697  -11.8191  -45.7618 C.2       1 UNK         0.5000 
     66 O          -0.4396  -12.6524  -45.0901 O.2       1 UNK        -0.5000 
     67 C          -2.9872  -20.3728  -45.6076 C.2       11 UNK         0.5000 
     68 O          -4.2151  -20.4294  -45.6636 O.2       11 UNK        -0.5000 
     69 N          -2.2783  -20.7749  -44.5398 N.am      12 UNK        -0.5000 
     70 CA         -2.8680  -21.3804  -43.3400 C.3       12 UNK         0.1400 
     71 CB         -1.8214  -21.4453  -42.2175 C.3       12 UNK        -0.1800 
     72 C          -3.4662  -22.7734  -43.6150 C.2       12 UNK         0.5000 
     73 O          -4.5040  -23.1154  -43.0485 O.2       12 UNK        -0.5000 
     74 N          -2.8288  -23.5266  -44.5208 N.am      13 UNK        -0.5000 
     75 CA         -3.3085  -24.8054  -45.0504 C.3       13 UNK         0.1400 
     76 CB         -2.1047  -25.5826  -45.6070 C.3       13 UNK        -0.1800 
     77 C          -4.4059  -24.6557  -46.1293 C.2       13 UNK         0.5000 
     78 O          -4.8602  -25.6675  -46.6654 O.2       13 UNK        -0.5000 
     79 N          -4.7865  -23.4131  -46.4606 N.am      14 UNK        -0.5000 
     80 CA         -5.7416  -22.9588  -47.4781 C.3       14 UNK         0.1400 
     81 CB         -7.1502  -23.5337  -47.2387 C.3       14 UNK        -0.1800 
     82 C          -5.2908  -23.1847  -48.9331 C.2       14 UNK         0.5000 
     83 O          -5.5216  -22.3081  -49.7666 O.2       14 UNK        -0.5000 
     84 N          -4.6857  -24.3457  -49.2231 N.am      15 UNK        -0.5000 
     85 CA         -4.1522  -24.7738  -50.5220 C.3       15 UNK         0.1400 
     86 CB         -2.8722  -23.9838  -50.8654 C.3       15 UNK        -0.1800 
     87 C          -5.2075  -24.7211  -51.6459 C.2       15 UNK         0.5000 
     88 O          -4.9283  -24.2173  -52.7360 O.2       15 UNK        -0.5000 
     89 N          -6.4191  -25.2081  -51.3378 N.am      16 UNK        -0.5000 
     90 CA         -7.6137  -25.1903  -52.1925 C.3       16 UNK         0.1400 
     91 CB         -7.4241  -26.1196  -53.4108 C.3       16 UNK        -0.1800 
     92 C          -8.0517  -23.7576  -52.5750 C.2       16 UNK         0.5000 
     93 O          -8.4517  -23.5157  -53.7138 O.2       16 UNK        -0.5000 
     94 N          -7.9481  -22.8389  -51.6018 N.am      17 UNK        -0.5000 
     95 CA         -8.1488  -21.3895  -51.7114 C.3       17 UNK         0.1400 
     96 CB         -9.6016  -21.0455  -52.1041 C.3       17 UNK        -0.1800 
     97 C          -7.0880  -20.7382  -52.6228 C.2       17 UNK         0.5000 
     98 O          -7.4283  -19.9847  -53.5368 O.2       17 UNK        -0.5000 
     99 N          -5.8173  -21.0636  -52.3408 N.am      18 UNK        -0.5000 
    100 CA        -4.6032  -20.6550  -53.0541 C.3       18 UNK         0.1400 
    101 CB        -4.3001  -19.1638  -52.8026 C.3       18 UNK        -0.1800 
    102 C         -4.6369  -21.0288  -54.5517 C.2       18 UNK         0.5000 
    103 O         -4.4189  -20.1756  -55.4142 O.2       18 UNK        -0.5000 
    104 N         -4.9403  -22.3029  -54.8247 N.am      19 UNK        -0.5000 
    105 CA        -4.9881  -22.8864  -56.1651 C.3       19 UNK         0.1400 
    106 CB        -6.4162  -23.3647  -56.4639 C.3       19 UNK        -0.1800 
    107 C         -3.9873  -24.0440  -56.3071 C.2       19 UNK         0.5000 
    108 O         -3.4131  -24.2108  -57.3837 O.2       19 UNK        -0.5000 
    109 N         -3.7704  -24.8113  -55.2282 N.am      20 UNK        -0.5000 
    110 CA        -2.7843  -25.8940  -55.1697 C.3       20 UNK         0.1400 
    111 CB        -3.1597  -26.8588  -54.0342 C.3       20 UNK        -0.1800 
    112 C         -1.3489  -25.3659  -54.9802 C.2       20 UNK         0.5000 
    113 O         -0.3942  -26.0493  -55.3519 O.2       20 UNK        -0.5000 
    114 N         -1.2269  -24.1574  -54.4222 N.am      21 UNK        -0.5000 
    115 CA         0.0053  -23.4025  -54.2532 C.3       21 UNK         0.1400 
    116 CB         0.6661  -23.7638  -52.9131 C.3       21 UNK        -0.1800 
    117 C         -0.3659  -21.9167  -54.3073 C.2       21 UNK         0.5000 
    118 O         -1.4223  -21.5433  -53.7929 O.2       21 UNK        -0.5000 
    119 N          0.4988  -21.1085  -54.9307 N.am      22 UNK        -0.5000 
    120 CA         0.3358  -19.6540  -55.1283 C.3       22 UNK         0.1400 
    121 C         -0.8338  -19.2461  -56.0784 C.2       22 UNK         0.5000 
    122 N         -1.3640  -20.1466  -56.8968 N.am      22 UNK        -0.7600 
    123 O         -1.2415  -18.0879  -56.1087 O.2       22 UNK        -0.5000 
    124 C124        0.3293  -18.8501  -53.7974 C.3       23 UNK        -0.0398 
    125 S125        1.8524  -19.1081  -52.8239 S.3       23 UNK        -0.2404 
    126 C126        1.1756  -19.4076  -51.1598 C.3       23 UNK        -0.0205 
    127 H127        1.6002   -9.4032  -50.3910 H         1 UNK         0.0600 
    128 H128        0.1701   -8.7225  -49.6074 H         1 UNK         0.0600 
    129 H129        0.0933  -10.3226  -50.3515 H         1 UNK         0.0600 
    130 H130        0.0826  -11.9263  -48.8131 H         1 UNK         0.3000 
    131 H131        2.0713  -12.0318  -46.6813 H         1 UNK         0.0600 
    132 H132        1.2173  -14.3390  -46.3270 H         1 UNK         0.0800 
    133 H133       -0.0416  -14.0859  -47.5056 H         1 UNK         0.0800 
    134 H134        0.3495  -13.6803  -50.0209 H         1 UNK         0.0800 
    135 H135        1.6938  -14.3768  -50.8789 H         1 UNK         0.0800 
    136 H136        2.0891  -16.8519  -50.8540 H         1 UNK         0.1150 
    137 H137       -1.3741  -19.2904  -50.1970 H         1 UNK         0.1150 
    138 H138       -1.4635  -15.1263  -49.1850 H         1 UNK         0.1150 
    139 H139       -3.6242  -16.6224  -49.5530 H         1 UNK         0.0800 
    140 H140       -3.4038  -18.3448  -49.4071 H         1 UNK         0.0800 
    141 H141       -1.5181  -18.1363  -45.6954 H         1 UNK         0.0800 
    142 H142       -0.8959  -18.1935  -47.3011 H         1 UNK         0.0800 
    143 H143       -2.8493  -19.9915  -47.7024 H         1 UNK         0.0600 
    144 H144       -0.1231  -20.3500  -46.8677 H         1 UNK         0.3000 
    145 H145        0.0267  -23.8121  -47.5124 H         1 UNK         0.0600 
    146 H146        1.6932  -23.2508  -49.2144 H         1 UNK         0.0600 
    147 H147        0.1112  -22.8120  -49.8427 H         1 UNK         0.0600 
    148 H148        1.1889  -21.5633  -49.2282 H         1 UNK         0.0600 
    149 H149        2.0526  -21.8534  -47.0059 H         1 UNK         0.3000 
    150 H150        1.7455  -21.7357  -43.4597 H         1 UNK         0.0600 
    151 H151        3.2227  -23.6284  -44.0167 H         1 UNK         0.0600 
    152 H152        4.1711  -22.1752  -43.7401 H         1 UNK         0.0600 
    153 H153        3.9002  -22.7564  -45.3827 H         1 UNK         0.0600 
    154 H154        2.0253  -19.7095  -44.2196 H         1 UNK         0.3000 
    155 H155        4.0683  -18.1389  -46.6032 H         1 UNK         0.0600 
    156 H156        1.7954  -18.1833  -47.6824 H         1 UNK         0.0600 
    157 H157        2.0952  -16.6773  -46.8313 H         1 UNK         0.0600 
    158 H158        1.0563  -17.8947  -46.1075 H         1 UNK         0.0600 
    159 H159        2.4982  -17.3941  -44.2529 H         1 UNK         0.3000 
    160 H160        5.1536  -17.8133  -41.9265 H         1 UNK         0.0600 
    161 H161        3.7855  -15.2705  -42.9580 H         1 UNK         0.0600 
    162 H162        5.5158  -15.5212  -42.7931 H         1 UNK         0.0600 
    163 H163        4.5033  -15.4772  -41.3598 H         1 UNK         0.0600 
    164 H164        2.3715  -16.9933  -41.8143 H         1 UNK         0.3000 
    165 H165        1.0023  -20.2040  -41.4450 H         1 UNK         0.0600 
    166 H166        0.2832  -19.5608  -39.1578 H         1 UNK         0.0600 
    167 H167        1.9652  -20.0643  -39.1456 H         1 UNK         0.0600 
    168 H168        1.5658  -18.3525  -39.0659 H         1 UNK         0.0600 
    169 H169       -0.0010  -17.5987  -40.7970 H         1 UNK         0.3000 
    170 H170       -0.8900  -16.5452  -44.0299 H         1 UNK         0.0600 
    171 H171       -2.7384  -18.1614  -43.5558 H         1 UNK         0.0600 
    172 H172       -2.7249  -17.7081  -41.8587 H         1 UNK         0.0600 
    173 H173       -3.1965  -16.5355  -43.0893 H         1 UNK         0.0600 
    174 H174       -1.4812  -15.6316  -41.3614 H         1 UNK         0.3000 
    175 H175       -0.4912  -13.7566  -40.5723 H         1 UNK         0.0600 
    176 H176        2.3743  -14.8527  -40.2564 H         1 UNK         0.0600 
    177 H177        1.4426  -14.0240  -39.0134 H         1 UNK         0.0600 
    178 H178        0.9470  -15.6099  -39.5608 H         1 UNK         0.0600 
    179 H179        1.3138  -12.8640  -42.5150 H         1 UNK         0.3000 
    180 H180        1.7719   -9.5899  -41.1165 H         1 UNK         0.0600 
    181 H181        3.5667  -11.5837  -42.6052 H         1 UNK         0.0600 
    182 H182        3.9449  -10.8314  -41.0606 H         1 UNK         0.0600 
    183 H183        3.8058   -9.8393  -42.5031 H         1 UNK         0.0600 
    184 H184        1.6980  -10.4590  -43.8152 H         1 UNK         0.3000 
    185 H185       -1.6899  -10.3221  -44.4935 H         1 UNK         0.0600 
    186 H186       -1.5042   -7.8568  -44.1455 H         1 UNK         0.0600 
    187 H187        0.0842   -7.8543  -44.9033 H         1 UNK         0.0600 
    188 H188       -1.3483   -8.2657  -45.8462 H         1 UNK         0.0600 
    189 H189        0.6559   -9.8963  -46.1312 H         1 UNK         0.3000 
    190 H190       -1.2705  -20.7110  -44.5639 H         1 UNK         0.3000 
    191 H191       -3.6830  -20.7369  -43.0017 H         1 UNK         0.0600 
    192 H192       -0.9236  -21.9804  -42.5268 H         1 UNK         0.0600 
    193 H193       -1.5280  -20.4471  -41.8985 H         1 UNK         0.0600 
    194 H194       -2.2204  -21.9548  -41.3395 H         1 UNK         0.0600 
    195 H195       -1.9401  -23.1948  -44.8806 H         1 UNK         0.3000 
    196 H196       -3.7368  -25.3844  -44.2298 H         1 UNK         0.0600 
    197 H197       -1.3191  -25.6872  -44.8582 H         1 UNK         0.0600 
    198 H198       -1.6761  -25.0841  -46.4760 H         1 UNK         0.0600 
    199 H199       -2.3942  -26.5877  -45.9159 H         1 UNK         0.0600 
    200 H200       -4.3068  -22.6564  -45.9913 H         1 UNK         0.3000 
    201 H201       -5.8085  -21.8780  -47.3462 H         1 UNK         0.0600 
    202 H202       -7.8718  -23.0902  -47.9259 H         1 UNK         0.0600 
    203 H203       -7.4941  -23.3217  -46.2263 H         1 UNK         0.0600 
    204 H204       -7.1841  -24.6134  -47.3856 H         1 UNK         0.0600 
    205 H205       -4.5856  -25.0048  -48.4567 H         1 UNK         0.3000 
    206 H206       -3.8738  -25.8230  -50.4157 H         1 UNK         0.0600 
    207 H207       -2.1147  -24.1157  -50.0936 H         1 UNK         0.0600 
    208 H208       -3.0662  -22.9155  -50.9622 H         1 UNK         0.0600 
    209 H209       -2.4352  -24.3251  -51.8035 H         1 UNK         0.0600 
    210 H210       -6.5487  -25.5909  -50.4116 H         1 UNK         0.3000 
    211 H211       -8.4278  -25.6008  -51.5935 H         1 UNK         0.0600 
    212 H212       -7.1761  -27.1328  -53.0952 H         1 UNK         0.0600 
    213 H213       -8.3368  -26.1809  -54.0043 H         1 UNK         0.0600 
    214 H214       -6.6280  -25.7743  -54.0696 H         1 UNK         0.0600 
    215 H215       -7.5556  -23.1441  -50.7227 H         1 UNK         0.3000 
    216 H216       -7.9800  -20.9837  -50.7127 H         1 UNK         0.0600 
    217 H217       -9.7725  -19.9698  -52.0490 H         1 UNK         0.0600 
    218 H218       -9.8372  -21.3585  -53.1213 H         1 UNK         0.0600 
    219 H219      -10.3149  -21.5222  -51.4320 H         1 UNK         0.0600 
    220 H220       -5.6620  -21.6662  -51.5359 H         1 UNK         0.3000 
    221 H221       -3.7891  -21.2310  -52.6137 H         1 UNK         0.0600 
    222 H222       -5.0667  -18.5167  -53.2298 H         1 UNK         0.0600 
    223 H223       -4.2347  -18.9500  -51.7362 H         1 UNK         0.0600 
    224 H224       -3.3451  -18.8823  -53.2486 H         1 UNK         0.0600 
    225 H225       -5.1015  -22.9344  -54.0439 H         1 UNK         0.3000 
    226 H226       -4.7206  -22.1400  -56.9157 H         1 UNK         0.0600 
    227 H227       -7.1301  -22.5445  -56.3842 H         1 UNK         0.0600 
    228 H228       -6.4906  -23.7670  -57.4748 H         1 UNK         0.0600 
    229 H229       -6.7319  -24.1473  -55.7749 H         1 UNK         0.0600 
    230 H230       -4.2701  -24.6143  -54.3644 H         1 UNK         0.3000 
    231 H231       -2.8158  -26.4489  -56.1097 H         1 UNK         0.0600 
    232 H232       -2.5005  -27.7277  -54.0300 H         1 UNK         0.0600 
    233 H233       -4.1806  -27.2247  -54.1459 H         1 UNK         0.0600 
    234 H234       -3.0774  -26.3840  -53.0570 H         1 UNK         0.0600 
    235 H235       -2.0626  -23.6407  -54.1796 H         1 UNK         0.3000 
    236 H236        0.6901  -23.6291  -55.0732 H         1 UNK         0.0600 
    237 H237        0.9485  -24.8161  -52.8827 H         1 UNK         0.0600 
    238 H238        1.5709  -23.1766  -52.7511 H         1 UNK         0.0600 
    239 H239       -0.0050  -23.5735  -52.0759 H         1 UNK         0.0600 
    240 H240        1.3416  -21.5039  -55.3222 H         1 UNK         0.3000 
    241 H241        1.2281  -19.3443  -55.6732 H         1 UNK         0.0600 
    242 H242       -2.1272  -19.8746  -57.4959 H         1 UNK         0.3800 
    243 H243       -1.0348  -21.0976  -56.9008 H         1 UNK         0.3800 
    244 H244        0.2564  -17.7790  -53.9919 H         1 UNK         0.0800 
    245 H245       -0.5480  -19.1061  -53.2020 H         1 UNK         0.0800 
    246 H246        1.9973  -19.6567  -50.4875 H         1 UNK         0.0800 
    247 H247        0.5248  -20.2827  -51.2006 H         1 UNK         0.0800 
@<TRIPOS>BOND
     1    1    2 1    
     2    1  127 1    
     3    1  128 1    
     4    1  129 1    
     5    2    3 2    
     6    2    4 am   BACKBONE|DICT|INTERRES
     7    4    5 1    
     8    4  130 1    
     9    5    6 1    
    10    5   65 1    
    11    5  131 1    
    12    6    7 1    
    13    6  132 1    
    14    6  133 1    
    15    7    8 1    
    16    8    9 1    
    17    8  134 1    
    18    8  135 1    
    19    9   10 ar   
    20    9   14 ar   
    21   10   11 ar   
    22   10  136 1    
    23   11   12 ar   
    24   11  126 1    
    25   12   13 ar   
    26   12  137 1    
    27   13   14 ar   
    28   13   15 1    
    29   14  138 1    
    30   15   16 1    
    31   15  139 1    
    32   15  140 1    
    33   16   17 1    
    34   17   18 1    
    35   17  141 1    
    36   17  142 1    
    37   18   19 1    
    38   18   67 1    
    39   18  143 1    
    40   19   20 am   BACKBONE|DICT|INTERRES
    41   19  144 1    
    42   20   21 2    
    43   20   22 1    
    44   22   23 1    
    45   22   24 1    
    46   22  145 1    
    47   23  146 1    
    48   23  147 1    
    49   23  148 1    
    50   24   25 am   BACKBONE|DICT|INTERRES
    51   24  149 1    
    52   25   26 2    
    53   25   27 1    
    54   27   28 1    
    55   27   29 1    
    56   27  150 1    
    57   28  151 1    
    58   28  152 1    
    59   28  153 1    
    60   29   30 am   BACKBONE|DICT|INTERRES
    61   29  154 1    
    62   30   31 2    
    63   30   32 1    
    64   32   33 1    
    65   32   34 1    
    66   32  155 1    
    67   33  156 1    
    68   33  157 1    
    69   33  158 1    
    70   34   35 am   BACKBONE|DICT|INTERRES
    71   34  159 1    
    72   35   36 2    
    73   35   37 1    
    74   37   38 1    
    75   37   39 1    
    76   37  160 1    
    77   38  161 1    
    78   38  162 1    
    79   38  163 1    
    80   39   40 am   BACKBONE|DICT|INTERRES
    81   39  164 1    
    82   40   41 2    
    83   40   42 1    
    84   42   43 1    
    85   42   44 1    
    86   42  165 1    
    87   43  166 1    
    88   43  167 1    
    89   43  168 1    
    90   44   45 am   BACKBONE|DICT|INTERRES
    91   44  169 1    
    92   45   46 2    
    93   45   47 1    
    94   47   48 1    
    95   47   49 1    
    96   47  170 1    
    97   48  171 1    
    98   48  172 1    
    99   48  173 1    
   100   49   50 am   BACKBONE|DICT|INTERRES
   101   49  174 1    
   102   50   51 2    
   103   50   52 1    
   104   52   53 1    
   105   52   54 1    
   106   52  175 1    
   107   53  176 1    
   108   53  177 1    
   109   53  178 1    
   110   54   55 am   BACKBONE|DICT|INTERRES
   111   54  179 1    
   112   55   56 2    
   113   55   57 1    
   114   57   58 1    
   115   57   59 1    
   116   57  180 1    
   117   58  181 1    
   118   58  182 1    
   119   58  183 1    
   120   59   60 am   BACKBONE|DICT|INTERRES
   121   59  184 1    
   122   60   61 2    
   123   60   62 1    
   124   62   63 1    
   125   62   64 1    
   126   62  185 1    
   127   63  186 1    
   128   63  187 1    
   129   63  188 1    
   130   64   65 am   BACKBONE|DICT|INTERRES
   131   64  189 1    
   132   65   66 2    
   133   67   68 2    
   134   67   69 am   BACKBONE|DICT|INTERRES
   135   69   70 1    
   136   69  190 1    
   137   70   71 1    
   138   70   72 1    
   139   70  191 1    
   140   71  192 1    
   141   71  193 1    
   142   71  194 1    
   143   72   73 2    
   144   72   74 am   BACKBONE|DICT|INTERRES
   145   74   75 1    
   146   74  195 1    
   147   75   76 1    
   148   75   77 1    
   149   75  196 1    
   150   76  197 1    
   151   76  198 1    
   152   76  199 1    
   153   77   78 2    
   154   77   79 am   BACKBONE|DICT|INTERRES
   155   79   80 1    
   156   79  200 1    
   157   80   81 1    
   158   80   82 1    
   159   80  201 1    
   160   81  202 1    
   161   81  203 1    
   162   81  204 1    
   163   82   83 2    
   164   82   84 am   BACKBONE|DICT|INTERRES
   165   84   85 1    
   166   84  205 1    
   167   85   86 1    
   168   85   87 1    
   169   85  206 1    
   170   86  207 1    
   171   86  208 1    
   172   86  209 1    
   173   87   88 2    
   174   87   89 am   BACKBONE|DICT|INTERRES
   175   89   90 1    
   176   89  210 1    
   177   90   91 1    
   178   90   92 1    
   179   90  211 1    
   180   91  212 1    
   181   91  213 1    
   182   91  214 1    
   183   92   93 2    
   184   92   94 am   BACKBONE|DICT|INTERRES
   185   94   95 1    
   186   94  215 1    
   187   95   96 1    
   188   95   97 1    
   189   95  216 1    
   190   96  217 1    
   191   96  218 1    
   192   96  219 1    
   193   97   98 2    
   194   97   99 am   BACKBONE|DICT|INTERRES
   195   99  100 1    
   196   99  220 1    
   197  100  101 1    
   198  100  102 1    
   199  100  221 1    
   200  101  222 1    
   201  101  223 1    
   202  101  224 1    
   203  102  103 2    
   204  102  104 am   BACKBONE|DICT|INTERRES
   205  104  105 1    
   206  104  225 1    
   207  105  106 1    
   208  105  107 1    
   209  105  226 1    
   210  106  227 1    
   211  106  228 1    
   212  106  229 1    
   213  107  108 2    
   214  107  109 am   BACKBONE|DICT|INTERRES
   215  109  110 1    
   216  109  230 1    
   217  110  111 1    
   218  110  112 1    
   219  110  231 1    
   220  111  232 1    
   221  111  233 1    
   222  111  234 1    
   223  112  113 2    
   224  112  114 am   BACKBONE|DICT|INTERRES
   225  114  115 1    
   226  114  235 1    
   227  115  116 1    
   228  115  117 1    
   229  115  236 1    
   230  116  237 1    
   231  116  238 1    
   232  116  239 1    
   233  117  118 2    
   234  117  119 am   BACKBONE|DICT|INTERRES
   235  119  120 1    
   236  119  240 1    
   237  120  121 1    
   238  120  124 1    
   239  120  241 1    
   240  121  122 am   BACKBONE|DICT|INTERRES
   241  121  123 2    
   242  122  242 1    
   243  122  243 1    
   244  124  125 1    
   245  124  244 1    
   246  124  245 1    
   247  125  126 1    
   248  126  246 1    
   249  126  247 1    
@<TRIPOS>SUBSTRUCTURE
     1 UNK         1 GROUP             0       ****    0 ROOT    
