@<TRIPOS>MOLECULE
3R540
247   249    1
SMALL
USER_CHARGES


@<TRIPOS>ATOM
      1 CA         -2.9208  -11.0208  -48.7969 C.3       0 UNK        -0.1800 
      2 C          -1.7219  -11.9218  -49.0562 C.2       0 UNK         0.5000 
      3 O          -1.1413  -11.8716  -50.1403 O.2       0 UNK        -0.5000 
      4 N          -1.3533  -12.7459  -48.0670 N.am      1 UNK        -0.5000 
      5 CA         -0.2326  -13.6923  -48.1366 C.3       1 UNK         0.1400 
      6 C6         -0.2857  -14.7240  -46.9822 C.3       23 UNK        -0.0398 
      7 S7         -1.7595  -15.8113  -46.9045 S.3       23 UNK        -0.2404 
      8 C8         -2.3233  -16.0353  -48.6313 C.3       23 UNK        -0.0205 
      9 C9         -1.3691  -16.7608  -49.5844 C.ar      23 UNK        -0.0193 
     10 C10        -1.7398  -16.8607  -50.9287 C.ar      23 UNK        -0.1150 
     11 C11        -0.9158  -17.4999  -51.8585 C.ar      23 UNK        -0.0193 
     12 C12         0.3050  -18.0333  -51.4397 C.ar      23 UNK        -0.1150 
     13 C13         0.6960  -17.9414  -50.1016 C.ar      23 UNK        -0.0193 
     14 C14        -0.1494  -17.3194  -49.1791 C.ar      23 UNK        -0.1150 
     15 C15         2.0473  -18.4858  -49.6644 C.3       23 UNK        -0.0205 
     16 S16         1.9687  -20.2499  -49.2333 S.3       23 UNK        -0.2404 
     17 C17         1.3945  -20.1782  -47.5032 C.3       23 UNK        -0.0398 
     18 CA          0.5959  -21.4364  -47.0959 C.3       11 UNK         0.1400 
     19 N           0.6159  -21.6551  -45.6496 N.am      11 UNK        -0.5000 
     20 C           0.2160  -22.7840  -45.0500 C.2       10 UNK         0.5000 
     21 O          -0.2188  -23.7618  -45.6596 O.2       10 UNK        -0.5000 
     22 CA          0.2724  -22.8085  -43.5123 C.3       10 UNK         0.1400 
     23 CB          1.7106  -23.0255  -43.0190 C.3       10 UNK        -0.1800 
     24 N          -0.2778  -21.5915  -42.9144 N.am      10 UNK        -0.5000 
     25 C          -1.5635  -21.2229  -43.0119 C.2       9 UNK         0.5000 
     26 O          -2.4260  -21.8950  -43.5756 O.2       9 UNK        -0.5000 
     27 CA         -1.9495  -19.8605  -42.4109 C.3       9 UNK         0.1400 
     28 CB         -2.1555  -19.9778  -40.8936 C.3       9 UNK        -0.1800 
     29 N          -0.9760  -18.8066  -42.7000 N.am      9 UNK        -0.5000 
     30 C          -0.6557  -18.3849  -43.9328 C.2       8 UNK         0.5000 
     31 O          -1.1457  -18.8413  -44.9644 O.2       8 UNK        -0.5000 
     32 CA          0.4465  -17.3182  -44.0340 C.3       8 UNK         0.1400 
     33 CB         -0.0595  -15.9494  -43.5519 C.3       8 UNK        -0.1800 
     34 N           1.6378  -17.6838  -43.2742 N.am      8 UNK        -0.5000 
     35 C           2.3731  -18.7887  -43.4519 C.2       7 UNK         0.5000 
     36 O           2.1642  -19.6226  -44.3318 O.2       7 UNK        -0.5000 
     37 CA          3.5008  -19.0238  -42.4350 C.3       7 UNK         0.1400 
     38 CB          4.7358  -18.1754  -42.7756 C.3       7 UNK        -0.1800 
     39 N           3.0675  -18.7344  -41.0681 N.am      7 UNK        -0.5000 
     40 C           2.1771  -19.4646  -40.3827 C.2       6 UNK         0.5000 
     41 O           1.6372  -20.4796  -40.8240 O.2       6 UNK        -0.5000 
     42 CA          1.8081  -18.9536  -38.9779 C.3       6 UNK         0.1400 
     43 CB          2.8819  -19.3524  -37.9543 C.3       6 UNK        -0.1800 
     44 N           1.6111  -17.5030  -38.9368 N.am      6 UNK        -0.5000 
     45 C           0.5934  -16.8695  -39.5351 C.2       5 UNK         0.5000 
     46 O          -0.2823  -17.4427  -40.1825 O.2       5 UNK        -0.5000 
     47 CA          0.5659  -15.3328  -39.4260 C.3       5 UNK         0.1400 
     48 CB         -0.0259  -14.9005  -38.0758 C.3       5 UNK        -0.1800 
     49 N           1.8574  -14.6634  -39.6268 N.am      5 UNK        -0.5000 
     50 C           2.6746  -14.8459  -40.6724 C.2       4 UNK         0.5000 
     51 O           2.5319  -15.7386  -41.5083 O.2       4 UNK        -0.5000 
     52 CA          3.8657  -13.8791  -40.8060 C.3       4 UNK         0.1400 
     53 CB          5.0770  -14.4199  -40.0312 C.3       4 UNK        -0.1800 
     54 N           4.2460  -13.6926  -42.2095 N.am      4 UNK        -0.5000 
     55 C           3.4596  -13.1510  -43.1496 C.2       3 UNK         0.5000 
     56 O           2.3715  -12.6160  -42.9144 O.2       3 UNK        -0.5000 
     57 CA          3.9669  -13.2498  -44.5962 C.3       3 UNK         0.1400 
     58 CB          3.9148  -14.7044  -45.1025 C.3       3 UNK        -0.1800 
     59 N           3.1306  -12.4188  -45.4558 N.am      3 UNK        -0.5000 
     60 C           3.5378  -11.7505  -46.5399 C.2       2 UNK         0.5000 
     61 O           4.7049  -11.7379  -46.9368 O.2       2 UNK        -0.5000 
     62 CA          2.4345  -10.9923  -47.3126 C.3       2 UNK         0.1400 
     63 CB          2.9230  -10.4103  -48.6558 C.3       2 UNK        -0.1800 
     64 N           1.2263  -11.8062  -47.5094 N.am      2 UNK        -0.5000 
     65 C           1.1444  -12.9930  -48.1356 C.2       1 UNK         0.5000 
     66 O           2.0957  -13.5522  -48.6821 O.2       1 UNK        -0.5000 
     67 C          -0.8396  -21.4321  -47.6597 C.2       11 UNK         0.5000 
     68 O          -1.0872  -22.0982  -48.6615 O.2       11 UNK        -0.5000 
     69 N          -1.7723  -20.7529  -46.9772 N.am      12 UNK        -0.5000 
     70 CA         -3.1925  -20.7130  -47.3365 C.3       12 UNK         0.1400 
     71 CB         -3.8825  -19.5900  -46.5488 C.3       12 UNK        -0.1800 
     72 C          -3.9292  -22.0527  -47.1286 C.2       12 UNK         0.5000 
     73 O          -4.9908  -22.2495  -47.7202 O.2       12 UNK        -0.5000 
     74 N          -3.3780  -22.9495  -46.3000 N.am      13 UNK        -0.5000 
     75 CA         -3.8583  -24.3218  -46.1509 C.3       13 UNK         0.1400 
     76 CB         -3.4560  -24.8744  -44.7749 C.3       13 UNK        -0.1800 
     77 C          -3.3333  -25.2193  -47.2848 C.2       13 UNK         0.5000 
     78 O          -4.1049  -26.0013  -47.8406 O.2       13 UNK        -0.5000 
     79 N          -2.0389  -25.0856  -47.6117 N.am      14 UNK        -0.5000 
     80 CA         -1.3651  -25.8178  -48.6860 C.3       14 UNK         0.1400 
     81 CB          0.1523  -25.5952  -48.5829 C.3       14 UNK        -0.1800 
     82 C          -1.8916  -25.4268  -50.0788 C.2       14 UNK         0.5000 
     83 O          -2.3144  -26.2946  -50.8439 O.2       14 UNK        -0.5000 
     84 N          -1.9004  -24.1203  -50.3608 N.am      15 UNK        -0.5000 
     85 CA         -2.5310  -23.5050  -51.5211 C.3       15 UNK         0.1400 
     86 CB         -1.6661  -22.3226  -51.9822 C.3       15 UNK        -0.1800 
     87 C          -3.9490  -23.0950  -51.0935 C.2       15 UNK         0.5000 
     88 O          -4.1967  -21.9275  -50.7857 O.2       15 UNK        -0.5000 
     89 N          -4.8101  -24.1178  -50.9931 N.am      16 UNK        -0.5000 
     90 CA         -6.1307  -24.1404  -50.3627 C.3       16 UNK         0.1400 
     91 CB         -6.8679  -25.4092  -50.8204 C.3       16 UNK        -0.1800 
     92 C          -6.9940  -22.8884  -50.6027 C.2       16 UNK         0.5000 
     93 O          -7.4732  -22.6786  -51.7176 O.2       16 UNK        -0.5000 
     94 N          -7.1553  -22.0870  -49.5415 N.am      17 UNK        -0.5000 
     95 CA         -7.9479  -20.8569  -49.4565 C.3       17 UNK         0.1400 
     96 CB         -9.4499  -21.1649  -49.6334 C.3       17 UNK        -0.1800 
     97 C          -7.4484  -19.7366  -50.3927 C.2       17 UNK         0.5000 
     98 O          -8.2529  -18.9312  -50.8644 O.2       17 UNK        -0.5000 
     99 N          -6.1300  -19.7109  -50.6429 N.am      18 UNK        -0.5000 
    100 CA        -5.4237  -18.8187  -51.5691 C.3       18 UNK         0.1400 
    101 CB        -5.5365  -17.3423  -51.1326 C.3       18 UNK        -0.1800 
    102 C         -5.8208  -19.0544  -53.0428 C.2       18 UNK         0.5000 
    103 O         -5.7955  -18.1239  -53.8509 O.2       18 UNK        -0.5000 
    104 N         -6.1649  -20.3056  -53.3631 N.am      19 UNK        -0.5000 
    105 CA        -6.4003  -20.8189  -54.7064 C.3       19 UNK         0.1400 
    106 CB        -7.8901  -21.1823  -54.8561 C.3       19 UNK        -0.1800 
    107 C         -5.4466  -22.0066  -54.9328 C.2       19 UNK         0.5000 
    108 O         -4.3557  -22.0250  -54.3569 O.2       19 UNK        -0.5000 
    109 N         -5.8491  -22.9696  -55.7750 N.am      20 UNK        -0.5000 
    110 CA        -5.1076  -24.1842  -56.1325 C.3       20 UNK         0.1400 
    111 CB        -5.0602  -25.1556  -54.9295 C.3       20 UNK        -0.1800 
    112 C         -3.7218  -23.8428  -56.7199 C.2       20 UNK         0.5000 
    113 O         -3.6510  -23.3525  -57.8485 O.2       20 UNK        -0.5000 
    114 N         -2.6577  -24.0495  -55.9320 N.am      21 UNK        -0.5000 
    115 CA        -1.2701  -23.7142  -56.2597 C.3       21 UNK         0.1400 
    116 CB        -0.3516  -24.2519  -55.1522 C.3       21 UNK        -0.1800 
    117 C         -1.0133  -22.2114  -56.5071 C.2       21 UNK         0.5000 
    118 O         -0.0372  -21.8819  -57.1826 O.2       21 UNK        -0.5000 
    119 N         -1.8912  -21.3319  -56.0014 N.am      22 UNK        -0.5000 
    120 CA        -1.9043  -19.8967  -56.3405 C.3       22 UNK         0.1400 
    121 C         -2.3803  -19.5898  -57.7938 C.2       22 UNK         0.5000 
    122 N         -2.9668  -20.5294  -58.5284 N.am      22 UNK        -0.7600 
    123 O         -2.2087  -18.4705  -58.2685 O.2       22 UNK        -0.5000 
    124 C124       -2.7213  -19.0517  -55.3299 C.3       23 UNK        -0.0398 
    125 S125       -2.1497  -19.2172  -53.6079 S.3       23 UNK        -0.2404 
    126 C126       -1.3469  -17.6163  -53.3118 C.3       23 UNK        -0.0205 
    127 H127       -2.6295   -9.9741  -48.8844 H         1 UNK         0.0600 
    128 H128       -3.3373  -11.1759  -47.8013 H         1 UNK         0.0600 
    129 H129       -3.7046  -11.2201  -49.5277 H         1 UNK         0.0600 
    130 H130       -1.8852  -12.7581  -47.2082 H         1 UNK         0.3000 
    131 H131       -0.2974  -14.2240  -49.0870 H         1 UNK         0.0600 
    132 H132        0.5915  -15.3721  -47.0159 H         1 UNK         0.0800 
    133 H133       -0.2194  -14.2056  -46.0244 H         1 UNK         0.0800 
    134 H134       -2.5900  -15.0650  -49.0510 H         1 UNK         0.0800 
    135 H135       -3.2508  -16.6078  -48.5938 H         1 UNK         0.0800 
    136 H136       -2.6781  -16.4372  -51.2548 H         1 UNK         0.1150 
    137 H137        0.9493  -18.5241  -52.1558 H         1 UNK         0.1150 
    138 H138        0.1602  -17.2689  -48.1483 H         1 UNK         0.1150 
    139 H139        2.7678  -18.3583  -50.4738 H         1 UNK         0.0800 
    140 H140        2.4392  -17.9134  -48.8220 H         1 UNK         0.0800 
    141 H141        0.8180  -19.2733  -47.3123 H         1 UNK         0.0800 
    142 H142        2.2932  -20.0940  -46.8918 H         1 UNK         0.0800 
    143 H143        1.1036  -22.3003  -47.5314 H         1 UNK         0.0600 
    144 H144        0.9866  -20.8973  -45.0810 H         1 UNK         0.3000 
    145 H145       -0.3322  -23.6520  -43.1724 H         1 UNK         0.0600 
    146 H146        1.7421  -23.1313  -41.9345 H         1 UNK         0.0600 
    147 H147        2.1380  -23.9330  -43.4472 H         1 UNK         0.0600 
    148 H148        2.3615  -22.1944  -43.2915 H         1 UNK         0.0600 
    149 H149        0.3676  -21.0017  -42.4001 H         1 UNK         0.3000 
    150 H150       -2.8992  -19.5616  -42.8595 H         1 UNK         0.0600 
    151 H151       -2.8741  -20.7628  -40.6549 H         1 UNK         0.0600 
    152 H152       -2.5409  -19.0476  -40.4760 H         1 UNK         0.0600 
    153 H153       -1.2239  -20.2153  -40.3785 H         1 UNK         0.0600 
    154 H154       -0.5386  -18.3647  -41.8966 H         1 UNK         0.3000 
    155 H155        0.7318  -17.2310  -45.0842 H         1 UNK         0.0600 
    156 H156       -0.2717  -15.9527  -42.4835 H         1 UNK         0.0600 
    157 H157       -0.9801  -15.6651  -44.0608 H         1 UNK         0.0600 
    158 H158        0.6766  -15.1678  -43.7401 H         1 UNK         0.0600 
    159 H159        1.9157  -17.0375  -42.5364 H         1 UNK         0.3000 
    160 H160        3.7851  -20.0768  -42.4884 H         1 UNK         0.0600 
    161 H161        5.5634  -18.3977  -42.1020 H         1 UNK         0.0600 
    162 H162        4.5265  -17.1078  -42.7066 H         1 UNK         0.0600 
    163 H163        5.0794  -18.3773  -43.7909 H         1 UNK         0.0600 
    164 H164        3.3969  -17.8704  -40.6628 H         1 UNK         0.3000 
    165 H165        0.8700  -19.4320  -38.6882 H         1 UNK         0.0600 
    166 H166        2.5873  -19.0687  -36.9438 H         1 UNK         0.0600 
    167 H167        3.0389  -20.4320  -37.9549 H         1 UNK         0.0600 
    168 H168        3.8415  -18.8808  -38.1696 H         1 UNK         0.0600 
    169 H169        2.2965  -16.9560  -38.4372 H         1 UNK         0.3000 
    170 H170       -0.1001  -14.9707  -40.2116 H         1 UNK         0.0600 
    171 H171       -0.9958  -15.3701  -37.9050 H         1 UNK         0.0600 
    172 H172        0.6236  -15.1766  -37.2443 H         1 UNK         0.0600 
    173 H173       -0.1793  -13.8218  -38.0387 H         1 UNK         0.0600 
    174 H174        2.0733  -13.9238  -38.9742 H         1 UNK         0.3000 
    175 H175        3.5816  -12.9082  -40.3952 H         1 UNK         0.0600 
    176 H176        5.3995  -15.3892  -40.4141 H         1 UNK         0.0600 
    177 H177        5.9233  -13.7355  -40.0940 H         1 UNK         0.0600 
    178 H178        4.8417  -14.5467  -38.9737 H         1 UNK         0.0600 
    179 H179        5.1102  -14.1289  -42.4942 H         1 UNK         0.3000 
    180 H180        4.9974  -12.8890  -44.6169 H         1 UNK         0.0600 
    181 H181        2.9053  -15.1139  -45.0460 H         1 UNK         0.0600 
    182 H182        4.5645  -15.3526  -44.5142 H         1 UNK         0.0600 
    183 H183        4.2442  -14.7734  -46.1395 H         1 UNK         0.0600 
    184 H184        2.1756  -12.3195  -45.1375 H         1 UNK         0.3000 
    185 H185        2.1425  -10.1529  -46.6799 H         1 UNK         0.0600 
    186 H186        3.7454   -9.7107  -48.5022 H         1 UNK         0.0600 
    187 H187        3.2783  -11.1889  -49.3313 H         1 UNK         0.0600 
    188 H188        2.1254   -9.8667  -49.1623 H         1 UNK         0.0600 
    189 H189        0.3790  -11.4362  -47.1023 H         1 UNK         0.3000 
    190 H190       -1.4966  -20.1992  -46.1680 H         1 UNK         0.3000 
    191 H191       -3.2614  -20.4710  -48.3995 H         1 UNK         0.0600 
    192 H192       -3.8339  -19.7685  -45.4739 H         1 UNK         0.0600 
    193 H193       -4.9346  -19.5064  -46.8241 H         1 UNK         0.0600 
    194 H194       -3.4161  -18.6251  -46.7495 H         1 UNK         0.0600 
    195 H195       -2.5428  -22.6955  -45.7891 H         1 UNK         0.3000 
    196 H196       -4.9494  -24.3251  -46.1991 H         1 UNK         0.0600 
    197 H197       -3.8199  -25.8941  -44.6437 H         1 UNK         0.0600 
    198 H198       -3.8804  -24.2723  -43.9715 H         1 UNK         0.0600 
    199 H199       -2.3748  -24.8931  -44.6412 H         1 UNK         0.0600 
    200 H200       -1.4644  -24.4460  -47.0719 H         1 UNK         0.3000 
    201 H201       -1.5611  -26.8822  -48.5419 H         1 UNK         0.0600 
    202 H202        0.5368  -25.9480  -47.6258 H         1 UNK         0.0600 
    203 H203        0.4144  -24.5408  -48.6773 H         1 UNK         0.0600 
    204 H204        0.6813  -26.1378  -49.3673 H         1 UNK         0.0600 
    205 H205       -1.5731  -23.4606  -49.6542 H         1 UNK         0.3000 
    206 H206       -2.5973  -24.2178  -52.3455 H         1 UNK         0.0600 
    207 H207       -2.0249  -21.9541  -52.9412 H         1 UNK         0.0600 
    208 H208       -1.6827  -21.4917  -51.2755 H         1 UNK         0.0600 
    209 H209       -0.6255  -22.6170  -52.1155 H         1 UNK         0.0600 
    210 H210       -4.4529  -25.0281  -51.2467 H         1 UNK         0.3000 
    211 H211       -5.9585  -24.2360  -49.2893 H         1 UNK         0.0600 
    212 H212       -6.9950  -25.4303  -51.9037 H         1 UNK         0.0600 
    213 H213       -7.8601  -25.4693  -50.3713 H         1 UNK         0.0600 
    214 H214       -6.3251  -26.3083  -50.5277 H         1 UNK         0.0600 
    215 H215       -6.5842  -22.2858  -48.7221 H         1 UNK         0.3000 
    216 H216       -7.8077  -20.4812  -48.4421 H         1 UNK         0.0600 
    217 H217      -10.0582  -20.2852  -49.4201 H         1 UNK         0.0600 
    218 H218       -9.7738  -21.9531  -48.9540 H         1 UNK         0.0600 
    219 H219       -9.6807  -21.4823  -50.6508 H         1 UNK         0.0600 
    220 H220       -5.5637  -20.4719  -50.2788 H         1 UNK         0.3000 
    221 H221       -4.3710  -19.0961  -51.4989 H         1 UNK         0.0600 
    222 H222       -6.5579  -16.9698  -51.2072 H         1 UNK         0.0600 
    223 H223       -5.2031  -17.2093  -50.1038 H         1 UNK         0.0600 
    224 H224       -4.9180  -16.7021  -51.7615 H         1 UNK         0.0600 
    225 H225       -6.1347  -21.0111  -52.6369 H         1 UNK         0.3000 
    226 H226       -6.1503  -20.0635  -55.4533 H         1 UNK         0.0600 
    227 H227       -8.1371  -21.4351  -55.8875 H         1 UNK         0.0600 
    228 H228       -8.1654  -22.0306  -54.2286 H         1 UNK         0.0600 
    229 H229       -8.5264  -20.3433  -54.5738 H         1 UNK         0.0600 
    230 H230       -6.7441  -22.8593  -56.2298 H         1 UNK         0.3000 
    231 H231       -5.6676  -24.6735  -56.9307 H         1 UNK         0.0600 
    232 H232       -6.0670  -25.4440  -54.6271 H         1 UNK         0.0600 
    233 H233       -4.5739  -24.7188  -54.0571 H         1 UNK         0.0600 
    234 H234       -4.5279  -26.0727  -55.1848 H         1 UNK         0.0600 
    235 H235       -2.8228  -24.4148  -55.0066 H         1 UNK         0.3000 
    236 H236       -1.0212  -24.2350  -57.1865 H         1 UNK         0.0600 
    237 H237        0.6956  -24.0451  -55.3767 H         1 UNK         0.0600 
    238 H238       -0.5759  -23.7965  -54.1889 H         1 UNK         0.0600 
    239 H239       -0.4521  -25.3321  -55.0446 H         1 UNK         0.0600 
    240 H240       -2.6601  -21.6670  -55.4299 H         1 UNK         0.3000 
    241 H241       -0.8725  -19.5442  -56.2871 H         1 UNK         0.0600 
    242 H242       -3.1160  -21.4684  -58.1737 H         1 UNK         0.3800 
    243 H243       -3.2597  -20.3056  -59.4662 H         1 UNK         0.3800 
    244 H244       -2.7019  -17.9957  -55.6046 H         1 UNK         0.0800 
    245 H245       -3.7698  -19.3470  -55.3622 H         1 UNK         0.0800 
    246 H246       -0.4836  -17.5128  -53.9709 H         1 UNK         0.0800 
    247 H247       -2.0353  -16.8087  -53.5656 H         1 UNK         0.0800 
@<TRIPOS>BOND
     1    1    2 1    
     2    1  127 1    
     3    1  128 1    
     4    1  129 1    
     5    2    3 2    
     6    2    4 am   BACKBONE|DICT|INTERRES
     7    4    5 1    
     8    4  130 1    
     9    5    6 1    
    10    5   65 1    
    11    5  131 1    
    12    6    7 1    
    13    6  132 1    
    14    6  133 1    
    15    7    8 1    
    16    8    9 1    
    17    8  134 1    
    18    8  135 1    
    19    9   10 ar   
    20    9   14 ar   
    21   10   11 ar   
    22   10  136 1    
    23   11   12 ar   
    24   11  126 1    
    25   12   13 ar   
    26   12  137 1    
    27   13   14 ar   
    28   13   15 1    
    29   14  138 1    
    30   15   16 1    
    31   15  139 1    
    32   15  140 1    
    33   16   17 1    
    34   17   18 1    
    35   17  141 1    
    36   17  142 1    
    37   18   19 1    
    38   18   67 1    
    39   18  143 1    
    40   19   20 am   BACKBONE|DICT|INTERRES
    41   19  144 1    
    42   20   21 2    
    43   20   22 1    
    44   22   23 1    
    45   22   24 1    
    46   22  145 1    
    47   23  146 1    
    48   23  147 1    
    49   23  148 1    
    50   24   25 am   BACKBONE|DICT|INTERRES
    51   24  149 1    
    52   25   26 2    
    53   25   27 1    
    54   27   28 1    
    55   27   29 1    
    56   27  150 1    
    57   28  151 1    
    58   28  152 1    
    59   28  153 1    
    60   29   30 am   BACKBONE|DICT|INTERRES
    61   29  154 1    
    62   30   31 2    
    63   30   32 1    
    64   32   33 1    
    65   32   34 1    
    66   32  155 1    
    67   33  156 1    
    68   33  157 1    
    69   33  158 1    
    70   34   35 am   BACKBONE|DICT|INTERRES
    71   34  159 1    
    72   35   36 2    
    73   35   37 1    
    74   37   38 1    
    75   37   39 1    
    76   37  160 1    
    77   38  161 1    
    78   38  162 1    
    79   38  163 1    
    80   39   40 am   BACKBONE|DICT|INTERRES
    81   39  164 1    
    82   40   41 2    
    83   40   42 1    
    84   42   43 1    
    85   42   44 1    
    86   42  165 1    
    87   43  166 1    
    88   43  167 1    
    89   43  168 1    
    90   44   45 am   BACKBONE|DICT|INTERRES
    91   44  169 1    
    92   45   46 2    
    93   45   47 1    
    94   47   48 1    
    95   47   49 1    
    96   47  170 1    
    97   48  171 1    
    98   48  172 1    
    99   48  173 1    
   100   49   50 am   BACKBONE|DICT|INTERRES
   101   49  174 1    
   102   50   51 2    
   103   50   52 1    
   104   52   53 1    
   105   52   54 1    
   106   52  175 1    
   107   53  176 1    
   108   53  177 1    
   109   53  178 1    
   110   54   55 am   BACKBONE|DICT|INTERRES
   111   54  179 1    
   112   55   56 2    
   113   55   57 1    
   114   57   58 1    
   115   57   59 1    
   116   57  180 1    
   117   58  181 1    
   118   58  182 1    
   119   58  183 1    
   120   59   60 am   BACKBONE|DICT|INTERRES
   121   59  184 1    
   122   60   61 2    
   123   60   62 1    
   124   62   63 1    
   125   62   64 1    
   126   62  185 1    
   127   63  186 1    
   128   63  187 1    
   129   63  188 1    
   130   64   65 am   BACKBONE|DICT|INTERRES
   131   64  189 1    
   132   65   66 2    
   133   67   68 2    
   134   67   69 am   BACKBONE|DICT|INTERRES
   135   69   70 1    
   136   69  190 1    
   137   70   71 1    
   138   70   72 1    
   139   70  191 1    
   140   71  192 1    
   141   71  193 1    
   142   71  194 1    
   143   72   73 2    
   144   72   74 am   BACKBONE|DICT|INTERRES
   145   74   75 1    
   146   74  195 1    
   147   75   76 1    
   148   75   77 1    
   149   75  196 1    
   150   76  197 1    
   151   76  198 1    
   152   76  199 1    
   153   77   78 2    
   154   77   79 am   BACKBONE|DICT|INTERRES
   155   79   80 1    
   156   79  200 1    
   157   80   81 1    
   158   80   82 1    
   159   80  201 1    
   160   81  202 1    
   161   81  203 1    
   162   81  204 1    
   163   82   83 2    
   164   82   84 am   BACKBONE|DICT|INTERRES
   165   84   85 1    
   166   84  205 1    
   167   85   86 1    
   168   85   87 1    
   169   85  206 1    
   170   86  207 1    
   171   86  208 1    
   172   86  209 1    
   173   87   88 2    
   174   87   89 am   BACKBONE|DICT|INTERRES
   175   89   90 1    
   176   89  210 1    
   177   90   91 1    
   178   90   92 1    
   179   90  211 1    
   180   91  212 1    
   181   91  213 1    
   182   91  214 1    
   183   92   93 2    
   184   92   94 am   BACKBONE|DICT|INTERRES
   185   94   95 1    
   186   94  215 1    
   187   95   96 1    
   188   95   97 1    
   189   95  216 1    
   190   96  217 1    
   191   96  218 1    
   192   96  219 1    
   193   97   98 2    
   194   97   99 am   BACKBONE|DICT|INTERRES
   195   99  100 1    
   196   99  220 1    
   197  100  101 1    
   198  100  102 1    
   199  100  221 1    
   200  101  222 1    
   201  101  223 1    
   202  101  224 1    
   203  102  103 2    
   204  102  104 am   BACKBONE|DICT|INTERRES
   205  104  105 1    
   206  104  225 1    
   207  105  106 1    
   208  105  107 1    
   209  105  226 1    
   210  106  227 1    
   211  106  228 1    
   212  106  229 1    
   213  107  108 2    
   214  107  109 am   BACKBONE|DICT|INTERRES
   215  109  110 1    
   216  109  230 1    
   217  110  111 1    
   218  110  112 1    
   219  110  231 1    
   220  111  232 1    
   221  111  233 1    
   222  111  234 1    
   223  112  113 2    
   224  112  114 am   BACKBONE|DICT|INTERRES
   225  114  115 1    
   226  114  235 1    
   227  115  116 1    
   228  115  117 1    
   229  115  236 1    
   230  116  237 1    
   231  116  238 1    
   232  116  239 1    
   233  117  118 2    
   234  117  119 am   BACKBONE|DICT|INTERRES
   235  119  120 1    
   236  119  240 1    
   237  120  121 1    
   238  120  124 1    
   239  120  241 1    
   240  121  122 am   BACKBONE|DICT|INTERRES
   241  121  123 2    
   242  122  242 1    
   243  122  243 1    
   244  124  125 1    
   245  124  244 1    
   246  124  245 1    
   247  125  126 1    
   248  126  246 1    
   249  126  247 1    
@<TRIPOS>SUBSTRUCTURE
     1 UNK         1 GROUP             0       ****    0 ROOT    
