@<TRIPOS>MOLECULE
3R540
247   249    1
SMALL
USER_CHARGES


@<TRIPOS>ATOM
      1 CA          1.4532  -20.0063  -48.7616 C.3       0 UNK        -0.1800 
      2 C           1.1679  -18.5861  -48.2978 C.2       0 UNK         0.5000 
      3 O           0.9022  -18.3556  -47.1185 O.2       0 UNK        -0.5000 
      4 N           1.2368  -17.6235  -49.2234 N.am      1 UNK        -0.5000 
      5 CA          1.0609  -16.1949  -48.9601 C.3       1 UNK         0.1400 
      6 C6          0.5469  -15.4635  -50.2243 C.3       23 UNK        -0.0398 
      7 S7         -0.0389  -13.7571  -49.9287 S.3       23 UNK        -0.2404 
      8 C8         -1.4741  -13.9791  -48.8190 C.3       23 UNK        -0.0205 
      9 C9         -2.5046  -14.9943  -49.3053 C.ar      23 UNK        -0.0193 
     10 C10        -2.9531  -14.9925  -50.6325 C.ar      23 UNK        -0.1150 
     11 C11        -3.9100  -15.9168  -51.0616 C.ar      23 UNK        -0.0193 
     12 C12        -4.4383  -16.8293  -50.1448 C.ar      23 UNK        -0.1150 
     13 C13        -4.0237  -16.8239  -48.8116 C.ar      23 UNK        -0.0193 
     14 C14        -3.0444  -15.9159  -48.4007 C.ar      23 UNK        -0.1150 
     15 C15        -4.6796  -17.7694  -47.8183 C.3       23 UNK        -0.0205 
     16 S16        -4.0910  -19.4751  -48.0201 S.3       23 UNK        -0.2404 
     17 C17        -2.7850  -19.5545  -46.7500 C.3       23 UNK        -0.0398 
     18 CA         -1.8935  -20.8190  -46.8181 C.3       11 UNK         0.1400 
     19 N          -0.8429  -20.8007  -45.7965 N.am      11 UNK        -0.5000 
     20 C           0.1782  -21.6683  -45.7411 C.2       10 UNK         0.5000 
     21 O           0.3516  -22.5628  -46.5673 O.2       10 UNK        -0.5000 
     22 CA          1.1379  -21.5696  -44.5430 C.3       10 UNK         0.1400 
     23 CB          2.2595  -20.5551  -44.8027 C.3       10 UNK        -0.1800 
     24 N           0.4670  -21.2569  -43.2817 N.am      10 UNK        -0.5000 
     25 C          -0.4217  -22.0606  -42.6800 C.2       9 UNK         0.5000 
     26 O          -0.8308  -23.1141  -43.1695 O.2       9 UNK        -0.5000 
     27 CA         -0.9458  -21.6057  -41.3096 C.3       9 UNK         0.1400 
     28 CB          0.1122  -21.8339  -40.2187 C.3       9 UNK        -0.1800 
     29 N          -1.3177  -20.1940  -41.3358 N.am      9 UNK        -0.5000 
     30 C          -2.5327  -19.7390  -41.6699 C.2       8 UNK         0.5000 
     31 O          -3.4910  -20.4682  -41.9274 O.2       8 UNK        -0.5000 
     32 CA         -2.7012  -18.2083  -41.7551 C.3       8 UNK         0.1400 
     33 CB         -3.1149  -17.6336  -40.3923 C.3       8 UNK        -0.1800 
     34 N          -1.4969  -17.5176  -42.2211 N.am      8 UNK        -0.5000 
     35 C          -0.9436  -17.6959  -43.4295 C.2       7 UNK         0.5000 
     36 O          -1.4099  -18.4432  -44.2842 O.2       7 UNK        -0.5000 
     37 CA          0.3787  -16.9676  -43.7202 C.3       7 UNK         0.1400 
     38 CB          0.1022  -15.6283  -44.4192 C.3       7 UNK        -0.1800 
     39 N           1.2056  -16.7540  -42.5291 N.am      7 UNK        -0.5000 
     40 C           1.6639  -17.7264  -41.7217 C.2       6 UNK         0.5000 
     41 O           1.4418  -18.9235  -41.9107 O.2       6 UNK        -0.5000 
     42 CA          2.4735  -17.3095  -40.4764 C.3       6 UNK         0.1400 
     43 CB          3.9747  -17.5011  -40.7379 C.3       6 UNK        -0.1800 
     44 N           2.2426  -15.9300  -40.0446 N.am      6 UNK        -0.5000 
     45 C           1.0686  -15.4130  -39.6537 C.2       5 UNK         0.5000 
     46 O           0.0410  -16.0787  -39.5191 O.2       5 UNK        -0.5000 
     47 CA          1.0209  -13.8843  -39.4351 C.3       5 UNK         0.1400 
     48 CB          1.1295  -13.5553  -37.9386 C.3       5 UNK        -0.1800 
     49 N           2.0429  -13.1202  -40.1681 N.am      5 UNK        -0.5000 
     50 C           2.2337  -13.1465  -41.4951 C.2       4 UNK         0.5000 
     51 O           1.5861  -13.8703  -42.2546 O.2       4 UNK        -0.5000 
     52 CA          3.3769  -12.2701  -42.0464 C.3       4 UNK         0.1400 
     53 CB          4.7414  -12.8173  -41.5945 C.3       4 UNK        -0.1800 
     54 N           3.3667  -12.2300  -43.5075 N.am      4 UNK        -0.5000 
     55 C           2.4632  -11.6069  -44.2711 C.2       3 UNK         0.5000 
     56 O           1.6146  -10.8327  -43.8259 O.2       3 UNK        -0.5000 
     57 CA          2.4832  -11.9202  -45.7823 C.3       3 UNK         0.1400 
     58 CB          3.4286  -10.9686  -46.5397 C.3       3 UNK        -0.1800 
     59 N           2.7523  -13.3295  -46.1146 N.am      3 UNK        -0.5000 
     60 C           3.8804  -14.0421  -45.9675 C.2       2 UNK         0.5000 
     61 O           4.9187  -13.5838  -45.4900 O.2       2 UNK        -0.5000 
     62 CA          3.8425  -15.5299  -46.3772 C.3       2 UNK         0.1400 
     63 CB          3.9805  -16.4312  -45.1387 C.3       2 UNK        -0.1800 
     64 N           2.6344  -15.9209  -47.1098 N.am      2 UNK        -0.5000 
     65 C           2.3721  -15.6141  -48.3868 C.2       1 UNK         0.5000 
     66 O           3.1298  -14.9521  -49.0974 O.2       1 UNK        -0.5000 
     67 C          -2.7135  -22.1236  -46.7568 C.2       11 UNK         0.5000 
     68 O          -2.9871  -22.7072  -47.8053 O.2       11 UNK        -0.5000 
     69 N          -3.0495  -22.5790  -45.5420 N.am      12 UNK        -0.5000 
     70 CA         -3.7682  -23.8317  -45.3129 C.3       12 UNK         0.1400 
     71 CB         -4.2396  -23.8940  -43.8520 C.3       12 UNK        -0.1800 
     72 C          -2.9227  -25.0661  -45.6762 C.2       12 UNK         0.5000 
     73 O          -3.4496  -26.0094  -46.2665 O.2       12 UNK        -0.5000 
     74 N          -1.6274  -25.0267  -45.3362 N.am      13 UNK        -0.5000 
     75 CA         -0.6638  -26.0895  -45.6156 C.3       13 UNK         0.1400 
     76 CB          0.6131  -25.8428  -44.7971 C.3       13 UNK        -0.1800 
     77 C          -0.3319  -26.2291  -47.1133 C.2       13 UNK         0.5000 
     78 O          -0.3222  -27.3472  -47.6297 O.2       13 UNK        -0.5000 
     79 N          -0.0554  -25.1000  -47.7784 N.am      14 UNK        -0.5000 
     80 CA          0.4186  -25.0483  -49.1638 C.3       14 UNK         0.1400 
     81 CB          1.4529  -23.9165  -49.2844 C.3       14 UNK        -0.1800 
     82 C          -0.7067  -24.8592  -50.1982 C.2       14 UNK         0.5000 
     83 O          -0.4024  -24.7560  -51.3868 O.2       14 UNK        -0.5000 
     84 N          -1.9678  -24.7688  -49.7501 N.am      15 UNK        -0.5000 
     85 CA         -3.1724  -24.5061  -50.5509 C.3       15 UNK         0.1400 
     86 CB         -3.4912  -25.7028  -51.4711 C.3       15 UNK        -0.1800 
     87 C          -3.0741  -23.1708  -51.3178 C.2       15 UNK         0.5000 
     88 O          -3.2690  -23.1305  -52.5342 O.2       15 UNK        -0.5000 
     89 N          -2.7174  -22.1083  -50.5826 N.am      16 UNK        -0.5000 
     90 CA         -2.4351  -20.7501  -51.0643 C.3       16 UNK         0.1400 
     91 CB         -3.7162  -20.0967  -51.6250 C.3       16 UNK        -0.1800 
     92 C          -1.2616  -20.7040  -52.0668 C.2       16 UNK         0.5000 
     93 O          -1.3264  -19.9702  -53.0515 O.2       16 UNK        -0.5000 
     94 N          -0.2264  -21.5212  -51.8170 N.am      17 UNK        -0.5000 
     95 CA          0.9181  -21.7807  -52.7032 C.3       17 UNK         0.1400 
     96 CB          1.7900  -20.5194  -52.8820 C.3       17 UNK        -0.1800 
     97 C           0.4675  -22.4054  -54.0413 C.2       17 UNK         0.5000 
     98 O           0.8623  -21.9477  -55.1148 O.2       17 UNK        -0.5000 
     99 N          -0.3926  -23.4268  -53.9282 N.am      18 UNK        -0.5000 
    100 CA        -1.0628  -24.1808  -54.9916 C.3       18 UNK         0.1400 
    101 CB        -0.0357  -24.9304  -55.8650 C.3       18 UNK        -0.1800 
    102 C         -2.0692  -23.3656  -55.8353 C.2       18 UNK         0.5000 
    103 O         -2.5355  -23.8694  -56.8588 O.2       18 UNK        -0.5000 
    104 N         -2.4173  -22.1447  -55.4021 N.am      19 UNK        -0.5000 
    105 CA        -3.4099  -21.2925  -56.0610 C.3       19 UNK         0.1400 
    106 CB        -3.1610  -19.8220  -55.6930 C.3       19 UNK        -0.1800 
    107 C         -4.8606  -21.6894  -55.7297 C.2       19 UNK         0.5000 
    108 O         -5.7640  -21.2661  -56.4499 O.2       19 UNK        -0.5000 
    109 N         -5.0654  -22.4702  -54.6561 N.am      20 UNK        -0.5000 
    110 CA        -6.3502  -22.9815  -54.1670 C.3       20 UNK         0.1400 
    111 CB        -6.9265  -24.0239  -55.1474 C.3       20 UNK        -0.1800 
    112 C         -7.3357  -21.8407  -53.8418 C.2       20 UNK         0.5000 
    113 O         -8.3910  -21.7276  -54.4678 O.2       20 UNK        -0.5000 
    114 N         -6.9325  -20.9998  -52.8787 N.am      21 UNK        -0.5000 
    115 CA        -7.6125  -19.7818  -52.4242 C.3       21 UNK         0.1400 
    116 CB        -8.9973  -20.0970  -51.8192 C.3       21 UNK        -0.1800 
    117 C         -7.6471  -18.6894  -53.5136 C.2       21 UNK         0.5000 
    118 O         -8.7101  -18.1535  -53.8326 O.2       21 UNK        -0.5000 
    119 N         -6.4551  -18.3672  -54.0339 N.am      22 UNK        -0.5000 
    120 CA        -6.1791  -17.2453  -54.9524 C.3       22 UNK         0.1400 
    121 C         -6.7146  -17.4352  -56.4055 C.2       22 UNK         0.5000 
    122 N         -6.9662  -18.6503  -56.8729 N.am      22 UNK        -0.7600 
    123 O         -6.8862  -16.4659  -57.1405 O.2       22 UNK        -0.5000 
    124 C124       -6.5598  -15.8447  -54.3739 C.3       23 UNK        -0.0398 
    125 S125       -6.1555  -15.5328  -52.6171 S.3       23 UNK        -0.2404 
    126 C126       -4.3838  -15.9370  -52.5079 C.3       23 UNK        -0.0205 
    127 H127        2.1532  -20.0163  -49.5957 H         1 UNK         0.0600 
    128 H128        0.5323  -20.4937  -49.0767 H         1 UNK         0.0600 
    129 H129        1.8946  -20.5906  -47.9557 H         1 UNK         0.0600 
    130 H130        1.4945  -17.8652  -50.1694 H         1 UNK         0.3000 
    131 H131        0.2938  -16.0920  -48.1905 H         1 UNK         0.0600 
    132 H132       -0.2766  -16.0264  -50.6653 H         1 UNK         0.0800 
    133 H133        1.3195  -15.4329  -50.9944 H         1 UNK         0.0800 
    134 H134       -1.9719  -13.0153  -48.7065 H         1 UNK         0.0800 
    135 H135       -1.1100  -14.2446  -47.8257 H         1 UNK         0.0800 
    136 H136       -2.5514  -14.2735  -51.3324 H         1 UNK         0.1150 
    137 H137       -5.1929  -17.5336  -50.4659 H         1 UNK         0.1150 
    138 H138       -2.7223  -15.9109  -47.3687 H         1 UNK         0.1150 
    139 H139       -4.5199  -17.4331  -46.7926 H         1 UNK         0.0800 
    140 H140       -5.7592  -17.7544  -47.9748 H         1 UNK         0.0800 
    141 H141       -3.2667  -19.4844  -45.7735 H         1 UNK         0.0800 
    142 H142       -2.1593  -18.6662  -46.8522 H         1 UNK         0.0800 
    143 H143       -1.3926  -20.8083  -47.7867 H         1 UNK         0.0600 
    144 H144       -0.9108  -20.0604  -45.1024 H         1 UNK         0.3000 
    145 H145        1.6051  -22.5491  -44.4239 H         1 UNK         0.0600 
    146 H146        2.9677  -20.5274  -43.9744 H         1 UNK         0.0600 
    147 H147        2.8200  -20.8131  -45.7015 H         1 UNK         0.0600 
    148 H148        1.8674  -19.5498  -44.9388 H         1 UNK         0.0600 
    149 H149        0.7665  -20.4091  -42.8064 H         1 UNK         0.3000 
    150 H150       -1.8183  -22.2147  -41.0626 H         1 UNK         0.0600 
    151 H151        0.4067  -22.8832  -40.1753 H         1 UNK         0.0600 
    152 H152       -0.2737  -21.5637  -39.2356 H         1 UNK         0.0600 
    153 H153        1.0140  -21.2467  -40.3962 H         1 UNK         0.0600 
    154 H154       -0.5696  -19.5265  -41.2006 H         1 UNK         0.3000 
    155 H155       -3.5007  -18.0042  -42.4704 H         1 UNK         0.0600 
    156 H156       -2.3391  -17.7847  -39.6404 H         1 UNK         0.0600 
    157 H157       -4.0254  -18.1101  -40.0267 H         1 UNK         0.0600 
    158 H158       -3.3122  -16.5635  -40.4586 H         1 UNK         0.0600 
    159 H159       -1.0343  -16.9084  -41.5592 H         1 UNK         0.3000 
    160 H160        0.9513  -17.5884  -44.4082 H         1 UNK         0.0600 
    161 H161       -0.4898  -14.9625  -43.7900 H         1 UNK         0.0600 
    162 H162       -0.4475  -15.7798  -45.3493 H         1 UNK         0.0600 
    163 H163        1.0277  -15.1121  -44.6680 H         1 UNK         0.0600 
    164 H164        1.4133  -15.7849  -42.3022 H         1 UNK         0.3000 
    165 H165        2.1763  -17.9694  -39.6591 H         1 UNK         0.0600 
    166 H166        4.5620  -17.2925  -39.8435 H         1 UNK         0.0600 
    167 H167        4.1921  -18.5281  -41.0352 H         1 UNK         0.0600 
    168 H168        4.3304  -16.8468  -41.5352 H         1 UNK         0.0600 
    169 H169        3.0252  -15.2988  -40.1276 H         1 UNK         0.3000 
    170 H170        0.0461  -13.5434  -39.7897 H         1 UNK         0.0600 
    171 H171        0.3671  -14.0842  -37.3649 H         1 UNK         0.0600 
    172 H172        2.1015  -13.8407  -37.5343 H         1 UNK         0.0600 
    173 H173        0.9884  -12.4898  -37.7566 H         1 UNK         0.0600 
    174 H174        2.6261  -12.5147  -39.6085 H         1 UNK         0.3000 
    175 H175        3.2509  -11.2550  -41.6651 H         1 UNK         0.0600 
    176 H176        4.8974  -13.8409  -41.9385 H         1 UNK         0.0600 
    177 H177        5.5572  -12.2077  -41.9838 H         1 UNK         0.0600 
    178 H178        4.8321  -12.8171  -40.5078 H         1 UNK         0.0600 
    179 H179        4.0295  -12.8320  -43.9857 H         1 UNK         0.3000 
    180 H180        1.4731  -11.7277  -46.1474 H         1 UNK         0.0600 
    181 H181        4.4625  -11.0688  -46.2087 H         1 UNK         0.0600 
    182 H182        3.1383   -9.9291  -46.3832 H         1 UNK         0.0600 
    183 H183        3.3993  -11.1565  -47.6130 H         1 UNK         0.0600 
    184 H184        1.9595  -13.8294  -46.4881 H         1 UNK         0.3000 
    185 H185        4.7043  -15.7092  -47.0233 H         1 UNK         0.0600 
    186 H186        4.9324  -16.2590  -44.6349 H         1 UNK         0.0600 
    187 H187        3.1924  -16.2399  -44.4119 H         1 UNK         0.0600 
    188 H188        3.9427  -17.4874  -45.4068 H         1 UNK         0.0600 
    189 H189        1.9994  -16.5561  -46.6405 H         1 UNK         0.3000 
    190 H190       -2.7453  -22.0703  -44.7244 H         1 UNK         0.3000 
    191 H191       -4.6529  -23.8347  -45.9534 H         1 UNK         0.0600 
    192 H192       -3.4023  -23.8883  -43.1539 H         1 UNK         0.0600 
    193 H193       -4.8139  -24.8025  -43.6670 H         1 UNK         0.0600 
    194 H194       -4.8822  -23.0476  -43.6085 H         1 UNK         0.0600 
    195 H195       -1.2886  -24.2295  -44.8072 H         1 UNK         0.3000 
    196 H196       -1.0988  -27.0340  -45.2819 H         1 UNK         0.0600 
    197 H197        1.3406  -26.6394  -44.9579 H         1 UNK         0.0600 
    198 H198        0.3965  -25.8096  -43.7292 H         1 UNK         0.0600 
    199 H199        1.0910  -24.9015  -45.0696 H         1 UNK         0.0600 
    200 H200       -0.0572  -24.2147  -47.2743 H         1 UNK         0.3000 
    201 H201        0.9244  -25.9840  -49.4107 H         1 UNK         0.0600 
    202 H202        2.2371  -24.0156  -48.5336 H         1 UNK         0.0600 
    203 H203        0.9929  -22.9368  -49.1579 H         1 UNK         0.0600 
    204 H204        1.9392  -23.9307  -50.2600 H         1 UNK         0.0600 
    205 H205       -2.1095  -24.8016  -48.7494 H         1 UNK         0.3000 
    206 H206       -3.9990  -24.3994  -49.8471 H         1 UNK         0.0600 
    207 H207       -4.4352  -25.5504  -51.9956 H         1 UNK         0.0600 
    208 H208       -3.5832  -26.6253  -50.8980 H         1 UNK         0.0600 
    209 H209       -2.7200  -25.8538  -52.2269 H         1 UNK         0.0600 
    210 H210       -2.6478  -22.2549  -49.5779 H         1 UNK         0.3000 
    211 H211       -2.1163  -20.1697  -50.1981 H         1 UNK         0.0600 
    212 H212       -3.5442  -19.0452  -51.8533 H         1 UNK         0.0600 
    213 H213       -4.5328  -20.1439  -50.9056 H         1 UNK         0.0600 
    214 H214       -4.0464  -20.5801  -52.5431 H         1 UNK         0.0600 
    215 H215       -0.2965  -22.1250  -51.0119 H         1 UNK         0.3000 
    216 H216        1.5311  -22.5336  -52.2069 H         1 UNK         0.0600 
    217 H217        2.6981  -20.7529  -53.4389 H         1 UNK         0.0600 
    218 H218        2.0976  -20.1096  -51.9218 H         1 UNK         0.0600 
    219 H219        1.2683  -19.7341  -53.4294 H         1 UNK         0.0600 
    220 H220       -0.6131  -23.7466  -52.9880 H         1 UNK         0.3000 
    221 H221       -1.6606  -24.9330  -54.4751 H         1 UNK         0.0600 
    222 H222        0.5569  -24.2460  -56.4723 H         1 UNK         0.0600 
    223 H223        0.6494  -25.5163  -55.2522 H         1 UNK         0.0600 
    224 H224       -0.5311  -25.6234  -56.5460 H         1 UNK         0.0600 
    225 H225       -2.0036  -21.7940  -54.5486 H         1 UNK         0.3000 
    226 H226       -3.2842  -21.3868  -57.1417 H         1 UNK         0.0600 
    227 H227       -3.3839  -19.6218  -54.6459 H         1 UNK         0.0600 
    228 H228       -2.1250  -19.5366  -55.8768 H         1 UNK         0.0600 
    229 H229       -3.7904  -19.1621  -56.2911 H         1 UNK         0.0600 
    230 H230       -4.2586  -22.7298  -54.0924 H         1 UNK         0.3000 
    231 H231       -6.1430  -23.4966  -53.2277 H         1 UNK         0.0600 
    232 H232       -6.2188  -24.8353  -55.3175 H         1 UNK         0.0600 
    233 H233       -7.1696  -23.5842  -56.1153 H         1 UNK         0.0600 
    234 H234       -7.8407  -24.4670  -54.7509 H         1 UNK         0.0600 
    235 H235       -6.0467  -21.1943  -52.4355 H         1 UNK         0.3000 
    236 H236       -7.0003  -19.3778  -51.6162 H         1 UNK         0.0600 
    237 H237       -9.4321  -19.2062  -51.3643 H         1 UNK         0.0600 
    238 H238       -8.9237  -20.8554  -51.0399 H         1 UNK         0.0600 
    239 H239       -9.7029  -20.4535  -52.5697 H         1 UNK         0.0600 
    240 H240       -5.6492  -18.8917  -53.7333 H         1 UNK         0.3000 
    241 H241       -5.0963  -17.2460  -55.0761 H         1 UNK         0.0600 
    242 H242       -7.3062  -18.7469  -57.8160 H         1 UNK         0.3800 
    243 H243       -6.7591  -19.4871  -56.3405 H         1 UNK         0.3800 
    244 H244       -6.0853  -15.0592  -54.9644 H         1 UNK         0.0800 
    245 H245       -7.6338  -15.6834  -54.4797 H         1 UNK         0.0800 
    246 H246       -3.8157  -15.2323  -53.1169 H         1 UNK         0.0800 
    247 H247       -4.1960  -16.9288  -52.9174 H         1 UNK         0.0800 
@<TRIPOS>BOND
     1    1    2 1    
     2    1  127 1    
     3    1  128 1    
     4    1  129 1    
     5    2    3 2    
     6    2    4 am   BACKBONE|DICT|INTERRES
     7    4    5 1    
     8    4  130 1    
     9    5    6 1    
    10    5   65 1    
    11    5  131 1    
    12    6    7 1    
    13    6  132 1    
    14    6  133 1    
    15    7    8 1    
    16    8    9 1    
    17    8  134 1    
    18    8  135 1    
    19    9   10 ar   
    20    9   14 ar   
    21   10   11 ar   
    22   10  136 1    
    23   11   12 ar   
    24   11  126 1    
    25   12   13 ar   
    26   12  137 1    
    27   13   14 ar   
    28   13   15 1    
    29   14  138 1    
    30   15   16 1    
    31   15  139 1    
    32   15  140 1    
    33   16   17 1    
    34   17   18 1    
    35   17  141 1    
    36   17  142 1    
    37   18   19 1    
    38   18   67 1    
    39   18  143 1    
    40   19   20 am   BACKBONE|DICT|INTERRES
    41   19  144 1    
    42   20   21 2    
    43   20   22 1    
    44   22   23 1    
    45   22   24 1    
    46   22  145 1    
    47   23  146 1    
    48   23  147 1    
    49   23  148 1    
    50   24   25 am   BACKBONE|DICT|INTERRES
    51   24  149 1    
    52   25   26 2    
    53   25   27 1    
    54   27   28 1    
    55   27   29 1    
    56   27  150 1    
    57   28  151 1    
    58   28  152 1    
    59   28  153 1    
    60   29   30 am   BACKBONE|DICT|INTERRES
    61   29  154 1    
    62   30   31 2    
    63   30   32 1    
    64   32   33 1    
    65   32   34 1    
    66   32  155 1    
    67   33  156 1    
    68   33  157 1    
    69   33  158 1    
    70   34   35 am   BACKBONE|DICT|INTERRES
    71   34  159 1    
    72   35   36 2    
    73   35   37 1    
    74   37   38 1    
    75   37   39 1    
    76   37  160 1    
    77   38  161 1    
    78   38  162 1    
    79   38  163 1    
    80   39   40 am   BACKBONE|DICT|INTERRES
    81   39  164 1    
    82   40   41 2    
    83   40   42 1    
    84   42   43 1    
    85   42   44 1    
    86   42  165 1    
    87   43  166 1    
    88   43  167 1    
    89   43  168 1    
    90   44   45 am   BACKBONE|DICT|INTERRES
    91   44  169 1    
    92   45   46 2    
    93   45   47 1    
    94   47   48 1    
    95   47   49 1    
    96   47  170 1    
    97   48  171 1    
    98   48  172 1    
    99   48  173 1    
   100   49   50 am   BACKBONE|DICT|INTERRES
   101   49  174 1    
   102   50   51 2    
   103   50   52 1    
   104   52   53 1    
   105   52   54 1    
   106   52  175 1    
   107   53  176 1    
   108   53  177 1    
   109   53  178 1    
   110   54   55 am   BACKBONE|DICT|INTERRES
   111   54  179 1    
   112   55   56 2    
   113   55   57 1    
   114   57   58 1    
   115   57   59 1    
   116   57  180 1    
   117   58  181 1    
   118   58  182 1    
   119   58  183 1    
   120   59   60 am   BACKBONE|DICT|INTERRES
   121   59  184 1    
   122   60   61 2    
   123   60   62 1    
   124   62   63 1    
   125   62   64 1    
   126   62  185 1    
   127   63  186 1    
   128   63  187 1    
   129   63  188 1    
   130   64   65 am   BACKBONE|DICT|INTERRES
   131   64  189 1    
   132   65   66 2    
   133   67   68 2    
   134   67   69 am   BACKBONE|DICT|INTERRES
   135   69   70 1    
   136   69  190 1    
   137   70   71 1    
   138   70   72 1    
   139   70  191 1    
   140   71  192 1    
   141   71  193 1    
   142   71  194 1    
   143   72   73 2    
   144   72   74 am   BACKBONE|DICT|INTERRES
   145   74   75 1    
   146   74  195 1    
   147   75   76 1    
   148   75   77 1    
   149   75  196 1    
   150   76  197 1    
   151   76  198 1    
   152   76  199 1    
   153   77   78 2    
   154   77   79 am   BACKBONE|DICT|INTERRES
   155   79   80 1    
   156   79  200 1    
   157   80   81 1    
   158   80   82 1    
   159   80  201 1    
   160   81  202 1    
   161   81  203 1    
   162   81  204 1    
   163   82   83 2    
   164   82   84 am   BACKBONE|DICT|INTERRES
   165   84   85 1    
   166   84  205 1    
   167   85   86 1    
   168   85   87 1    
   169   85  206 1    
   170   86  207 1    
   171   86  208 1    
   172   86  209 1    
   173   87   88 2    
   174   87   89 am   BACKBONE|DICT|INTERRES
   175   89   90 1    
   176   89  210 1    
   177   90   91 1    
   178   90   92 1    
   179   90  211 1    
   180   91  212 1    
   181   91  213 1    
   182   91  214 1    
   183   92   93 2    
   184   92   94 am   BACKBONE|DICT|INTERRES
   185   94   95 1    
   186   94  215 1    
   187   95   96 1    
   188   95   97 1    
   189   95  216 1    
   190   96  217 1    
   191   96  218 1    
   192   96  219 1    
   193   97   98 2    
   194   97   99 am   BACKBONE|DICT|INTERRES
   195   99  100 1    
   196   99  220 1    
   197  100  101 1    
   198  100  102 1    
   199  100  221 1    
   200  101  222 1    
   201  101  223 1    
   202  101  224 1    
   203  102  103 2    
   204  102  104 am   BACKBONE|DICT|INTERRES
   205  104  105 1    
   206  104  225 1    
   207  105  106 1    
   208  105  107 1    
   209  105  226 1    
   210  106  227 1    
   211  106  228 1    
   212  106  229 1    
   213  107  108 2    
   214  107  109 am   BACKBONE|DICT|INTERRES
   215  109  110 1    
   216  109  230 1    
   217  110  111 1    
   218  110  112 1    
   219  110  231 1    
   220  111  232 1    
   221  111  233 1    
   222  111  234 1    
   223  112  113 2    
   224  112  114 am   BACKBONE|DICT|INTERRES
   225  114  115 1    
   226  114  235 1    
   227  115  116 1    
   228  115  117 1    
   229  115  236 1    
   230  116  237 1    
   231  116  238 1    
   232  116  239 1    
   233  117  118 2    
   234  117  119 am   BACKBONE|DICT|INTERRES
   235  119  120 1    
   236  119  240 1    
   237  120  121 1    
   238  120  124 1    
   239  120  241 1    
   240  121  122 am   BACKBONE|DICT|INTERRES
   241  121  123 2    
   242  122  242 1    
   243  122  243 1    
   244  124  125 1    
   245  124  244 1    
   246  124  245 1    
   247  125  126 1    
   248  126  246 1    
   249  126  247 1    
@<TRIPOS>SUBSTRUCTURE
     1 UNK         1 GROUP             0       ****    0 ROOT    
