@<TRIPOS>MOLECULE
3R540
247   249    1
SMALL
USER_CHARGES


@<TRIPOS>ATOM
      1 CA         -4.5017  -12.7762  -49.3230 C.3       0 UNK        -0.1800 
      2 C          -3.5466  -13.3438  -48.2829 C.2       0 UNK         0.5000 
      3 O          -2.3376  -13.3460  -48.5026 O.2       0 UNK        -0.5000 
      4 N          -4.0861  -13.8172  -47.1535 N.am      1 UNK        -0.5000 
      5 CA         -3.3562  -14.4225  -46.0333 C.3       1 UNK         0.1400 
      6 C6         -4.2818  -15.4136  -45.2733 C.3       23 UNK        -0.0398 
      7 S7         -3.3757  -16.6524  -44.2851 S.3       23 UNK        -0.2404 
      8 C8         -3.4668  -18.1327  -45.3416 C.3       23 UNK        -0.0205 
      9 C9         -2.5987  -17.9831  -46.5791 C.ar      23 UNK        -0.0193 
     10 C10        -3.1601  -17.5793  -47.7943 C.ar      23 UNK        -0.1150 
     11 C11        -2.3552  -17.4039  -48.9227 C.ar      23 UNK        -0.0193 
     12 C12        -0.9842  -17.6612  -48.8348 C.ar      23 UNK        -0.1150 
     13 C13        -0.4087  -18.0446  -47.6197 C.ar      23 UNK        -0.0193 
     14 C14        -1.2229  -18.2121  -46.4970 C.ar      23 UNK        -0.1150 
     15 C15         1.1003  -18.1950  -47.5059 C.3       23 UNK        -0.0205 
     16 S16         1.6688  -19.8711  -47.9127 S.3       23 UNK        -0.2404 
     17 C17         1.4197  -20.7560  -46.3355 C.3       23 UNK        -0.0398 
     18 CA          0.7498  -22.1333  -46.5537 C.3       11 UNK         0.1400 
     19 N           1.2136  -23.1352  -45.5920 N.am      11 UNK        -0.5000 
     20 C           1.1337  -24.4574  -45.7923 C.2       10 UNK         0.5000 
     21 O           0.6552  -24.9658  -46.8058 O.2       10 UNK        -0.5000 
     22 CA          1.6525  -25.3619  -44.6602 C.3       10 UNK         0.1400 
     23 CB          3.1689  -25.5705  -44.7873 C.3       10 UNK        -0.1800 
     24 N           1.3455  -24.8339  -43.3303 N.am      10 UNK        -0.5000 
     25 C           0.1091  -24.7598  -42.8202 C.2       9 UNK         0.5000 
     26 O          -0.9016  -25.1322  -43.4167 O.2       9 UNK        -0.5000 
     27 CA         -0.0211  -24.1114  -41.4292 C.3       9 UNK         0.1400 
     28 CB          0.3386  -25.1175  -40.3256 C.3       9 UNK        -0.1800 
     29 N           0.7773  -22.8904  -41.2587 N.am      9 UNK        -0.5000 
     30 C           0.6626  -21.7992  -42.0255 C.2       8 UNK         0.5000 
     31 O          -0.0401  -21.7459  -43.0381 O.2       8 UNK        -0.5000 
     32 CA          1.4517  -20.5518  -41.6131 C.3       8 UNK         0.1400 
     33 CB          2.8301  -20.5169  -42.2949 C.3       8 UNK        -0.1800 
     34 N           0.6430  -19.4191  -42.0389 N.am      8 UNK        -0.5000 
     35 C           0.7180  -18.1564  -41.6182 C.2       7 UNK         0.5000 
     36 O           1.5563  -17.7348  -40.8180 O.2       7 UNK        -0.5000 
     37 CA         -0.3841  -17.2247  -42.1564 C.3       7 UNK         0.1400 
     38 CB         -1.4560  -16.9934  -41.0794 C.3       7 UNK        -0.1800 
     39 N           0.1059  -15.9294  -42.6236 N.am      7 UNK        -0.5000 
     40 C           1.0210  -15.7404  -43.5823 C.2       6 UNK         0.5000 
     41 O           1.6415  -16.6496  -44.1395 O.2       6 UNK        -0.5000 
     42 CA          1.2817  -14.2698  -43.9678 C.3       6 UNK         0.1400 
     43 CB          2.2449  -13.6105  -42.9689 C.3       6 UNK        -0.1800 
     44 N           1.8166  -14.1127  -45.3220 N.am      6 UNK        -0.5000 
     45 C           1.1811  -14.4773  -46.4454 C.2       5 UNK         0.5000 
     46 O           0.0371  -14.9257  -46.4560 O.2       5 UNK        -0.5000 
     47 CA          1.9480  -14.2821  -47.7664 C.3       5 UNK         0.1400 
     48 CB          1.0407  -14.3435  -49.0075 C.3       5 UNK        -0.1800 
     49 N           2.6293  -12.9922  -47.7566 N.am      5 UNK        -0.5000 
     50 C           3.9511  -12.8019  -47.8421 C.2       4 UNK         0.5000 
     51 O           4.7669  -13.7166  -47.9609 O.2       4 UNK        -0.5000 
     52 CA          4.4578  -11.3456  -47.7788 C.3       4 UNK         0.1400 
     53 CB          4.8669  -10.8579  -49.1775 C.3       4 UNK        -0.1800 
     54 N           3.4839  -10.4048  -47.2193 N.am      4 UNK        -0.5000 
     55 C           3.0809  -10.3839  -45.9423 C.2       3 UNK         0.5000 
     56 O           3.5199  -11.1464  -45.0807 O.2       3 UNK        -0.5000 
     57 CA          1.9968   -9.3570  -45.5553 C.3       3 UNK         0.1400 
     58 CB          1.6683   -8.3305  -46.6639 C.3       3 UNK        -0.1800 
     59 N           0.7688  -10.0061  -45.0847 N.am      3 UNK        -0.5000 
     60 C          -0.0019  -10.8740  -45.7568 C.2       2 UNK         0.5000 
     61 O           0.2474  -11.2896  -46.8917 O.2       2 UNK        -0.5000 
     62 CA         -1.2854  -11.3134  -45.0354 C.3       2 UNK         0.1400 
     63 CB         -2.3112  -10.1633  -45.0011 C.3       2 UNK        -0.1800 
     64 N          -1.8793  -12.4750  -45.6922 N.am      2 UNK        -0.5000 
     65 C          -2.7409  -13.3276  -45.1244 C.2       1 UNK         0.5000 
     66 O          -3.0886  -13.2327  -43.9453 O.2       1 UNK        -0.5000 
     67 C          -0.7888  -22.0504  -46.5814 C.2       11 UNK         0.5000 
     68 O          -1.3661  -21.9367  -47.6586 O.2       11 UNK        -0.5000 
     69 N          -1.4325  -22.1838  -45.4135 N.am      12 UNK        -0.5000 
     70 CA         -2.8840  -22.2927  -45.2718 C.3       12 UNK         0.1400 
     71 CB         -3.2603  -22.2205  -43.7849 C.3       12 UNK        -0.1800 
     72 C          -3.4430  -23.5722  -45.9234 C.2       12 UNK         0.5000 
     73 O          -4.4805  -23.5125  -46.5836 O.2       12 UNK        -0.5000 
     74 N          -2.7261  -24.6958  -45.7695 N.am      13 UNK        -0.5000 
     75 CA         -3.0317  -25.9635  -46.4358 C.3       13 UNK         0.1400 
     76 CB         -2.1488  -27.0808  -45.8609 C.3       13 UNK        -0.1800 
     77 C          -2.8855  -25.8772  -47.9670 C.2       13 UNK         0.5000 
     78 O          -3.7185  -26.4311  -48.6848 O.2       13 UNK        -0.5000 
     79 N          -1.8588  -25.1550  -48.4396 N.am      14 UNK        -0.5000 
     80 CA         -1.6612  -24.8309  -49.8521 C.3       14 UNK         0.1400 
     81 CB         -0.2713  -24.2092  -50.0629 C.3       14 UNK        -0.1800 
     82 C          -2.7758  -23.9166  -50.3909 C.2       14 UNK         0.5000 
     83 O          -3.3589  -24.2297  -51.4273 O.2       14 UNK        -0.5000 
     84 N          -3.0959  -22.8445  -49.6538 N.am      15 UNK        -0.5000 
     85 CA         -4.1517  -21.8785  -49.9665 C.3       15 UNK         0.1400 
     86 CB         -4.1811  -20.7881  -48.8870 C.3       15 UNK        -0.1800 
     87 C          -5.5419  -22.5207  -50.1119 C.2       15 UNK         0.5000 
     88 O          -6.2824  -22.1662  -51.0290 O.2       15 UNK        -0.5000 
     89 N          -5.8475  -23.5000  -49.2488 N.am      16 UNK        -0.5000 
     90 CA         -7.0654  -24.3136  -49.2980 C.3       16 UNK         0.1400 
     91 CB         -7.1343  -25.1890  -48.0378 C.3       16 UNK        -0.1800 
     92 C          -7.1888  -25.1806  -50.5702 C.2       16 UNK         0.5000 
     93 O          -8.3062  -25.5217  -50.9593 O.2       16 UNK        -0.5000 
     94 N          -6.0533  -25.4994  -51.2049 N.am      17 UNK        -0.5000 
     95 CA         -5.9596  -26.2157  -52.4778 C.3       17 UNK         0.1400 
     96 CB         -4.8060  -27.2293  -52.3781 C.3       17 UNK        -0.1800 
     97 C          -5.7546  -25.2607  -53.6748 C.2       17 UNK         0.5000 
     98 O          -5.5668  -25.7396  -54.7940 O.2       17 UNK        -0.5000 
     99 N          -5.7768  -23.9408  -53.4266 N.am      18 UNK        -0.5000 
    100 CA        -5.5081  -22.8428  -54.3640 C.3       18 UNK         0.1400 
    101 CB        -6.5646  -22.7965  -55.4874 C.3       18 UNK        -0.1800 
    102 C         -4.0578  -22.8193  -54.8972 C.2       18 UNK         0.5000 
    103 O         -3.8071  -22.2809  -55.9784 O.2       18 UNK        -0.5000 
    104 N         -3.1220  -23.3756  -54.1207 N.am      19 UNK        -0.5000 
    105 CA        -1.6815  -23.3052  -54.3433 C.3       19 UNK         0.1400 
    106 CB        -1.0672  -24.6699  -53.9839 C.3       19 UNK        -0.1800 
    107 C         -1.0701  -22.1561  -53.5159 C.2       19 UNK         0.5000 
    108 O         -1.7809  -21.4771  -52.7714 O.2       19 UNK        -0.5000 
    109 N          0.2443  -21.9513  -53.6792 N.am      20 UNK        -0.5000 
    110 CA         1.0301  -20.8315  -53.1463 C.3       20 UNK         0.1400 
    111 CB         1.0231  -20.8111  -51.5987 C.3       20 UNK        -0.1800 
    112 C          0.6195  -19.4934  -53.8014 C.2       20 UNK         0.5000 
    113 O          0.2065  -19.4905  -54.9646 O.2       20 UNK        -0.5000 
    114 N          0.7510  -18.3792  -53.0672 N.am      21 UNK        -0.5000 
    115 CA         0.5073  -17.0082  -53.5388 C.3       21 UNK         0.1400 
    116 CB         0.9060  -16.0259  -52.4257 C.3       21 UNK        -0.1800 
    117 C         -0.9357  -16.7255  -54.0108 C.2       21 UNK         0.5000 
    118 O         -1.1516  -15.7750  -54.7636 O.2       21 UNK        -0.5000 
    119 N         -1.8822  -17.5551  -53.5662 N.am      22 UNK        -0.5000 
    120 CA        -3.3077  -17.5380  -53.9216 C.3       22 UNK         0.1400 
    121 C         -3.7539  -18.8180  -54.6893 C.2       22 UNK         0.5000 
    122 N         -2.8433  -19.6049  -55.2498 N.am      22 UNK        -0.7600 
    123 O         -4.9448  -19.0929  -54.8085 O.2       22 UNK        -0.5000 
    124 C124       -4.1967  -17.2040  -52.6910 C.3       23 UNK        -0.0398 
    125 S125       -3.7858  -18.1594  -51.1864 S.3       23 UNK        -0.2404 
    126 C126       -2.9539  -16.8676  -50.2132 C.3       23 UNK        -0.0205 
    127 H127       -5.5408  -12.8408  -48.9994 H         1 UNK         0.0600 
    128 H128       -4.4027  -13.3246  -50.2599 H         1 UNK         0.0600 
    129 H129       -4.2686  -11.7286  -49.5135 H         1 UNK         0.0600 
    130 H130       -5.0850  -13.7423  -47.0256 H         1 UNK         0.3000 
    131 H131       -2.5300  -14.9992  -46.4517 H         1 UNK         0.0600 
    132 H132       -4.9127  -15.9514  -45.9815 H         1 UNK         0.0800 
    133 H133       -4.9784  -14.8841  -44.6212 H         1 UNK         0.0800 
    134 H134       -3.1309  -18.9965  -44.7661 H         1 UNK         0.0800 
    135 H135       -4.5035  -18.3340  -45.6154 H         1 UNK         0.0800 
    136 H136       -4.2198  -17.3788  -47.8600 H         1 UNK         0.1150 
    137 H137       -0.3552  -17.5205  -49.7011 H         1 UNK         0.1150 
    138 H138       -0.7833  -18.4845  -45.5488 H         1 UNK         0.1150 
    139 H139        1.5848  -17.4939  -48.1864 H         1 UNK         0.0800 
    140 H140        1.4377  -17.9185  -46.5062 H         1 UNK         0.0800 
    141 H141        0.8684  -20.1473  -45.6176 H         1 UNK         0.0800 
    142 H142        2.4132  -20.8868  -45.9048 H         1 UNK         0.0800 
    143 H143        1.0588  -22.4964  -47.5369 H         1 UNK         0.0600 
    144 H144        1.5580  -22.7971  -44.7061 H         1 UNK         0.3000 
    145 H145        1.1655  -26.3341  -44.7625 H         1 UNK         0.0600 
    146 H146        3.5346  -26.2712  -44.0365 H         1 UNK         0.0600 
    147 H147        3.4253  -25.9807  -45.7651 H         1 UNK         0.0600 
    148 H148        3.7172  -24.6349  -44.6696 H         1 UNK         0.0600 
    149 H149        2.1195  -24.4971  -42.7768 H         1 UNK         0.3000 
    150 H150       -1.0695  -23.8332  -41.3016 H         1 UNK         0.0600 
    151 H151        1.3912  -25.4007  -40.3643 H         1 UNK         0.0600 
    152 H152       -0.2509  -26.0304  -40.4217 H         1 UNK         0.0600 
    153 H153        0.1376  -24.7063  -39.3362 H         1 UNK         0.0600 
    154 H154        1.3863  -22.8618  -40.4535 H         1 UNK         0.3000 
    155 H155        1.5643  -20.5333  -40.5273 H         1 UNK         0.0600 
    156 H156        2.7410  -20.5186  -43.3817 H         1 UNK         0.0600 
    157 H157        3.4299  -21.3821  -42.0103 H         1 UNK         0.0600 
    158 H158        3.3899  -19.6262  -42.0093 H         1 UNK         0.0600 
    159 H159       -0.0944  -19.6932  -42.6771 H         1 UNK         0.3000 
    160 H160       -0.8590  -17.7088  -43.0121 H         1 UNK         0.0600 
    161 H161       -1.0418  -16.4964  -40.2012 H         1 UNK         0.0600 
    162 H162       -1.8874  -17.9392  -40.7488 H         1 UNK         0.0600 
    163 H163       -2.2743  -16.3796  -41.4559 H         1 UNK         0.0600 
    164 H164       -0.3261  -15.1214  -42.2009 H         1 UNK         0.3000 
    165 H165        0.3278  -13.7408  -43.9299 H         1 UNK         0.0600 
    166 H166        3.2432  -14.0458  -43.0271 H         1 UNK         0.0600 
    167 H167        2.3316  -12.5402  -43.1537 H         1 UNK         0.0600 
    168 H168        1.8946  -13.7297  -41.9429 H         1 UNK         0.0600 
    169 H169        2.7487  -13.7322  -45.3973 H         1 UNK         0.3000 
    170 H170        2.6657  -15.1019  -47.8312 H         1 UNK         0.0600 
    171 H171        0.4959  -15.2851  -49.0547 H         1 UNK         0.0600 
    172 H172        0.3046  -13.5392  -49.0014 H         1 UNK         0.0600 
    173 H173        1.6223  -14.2578  -49.9252 H         1 UNK         0.0600 
    174 H174        2.0250  -12.1906  -47.6064 H         1 UNK         0.3000 
    175 H175        5.3438  -11.3366  -47.1404 H         1 UNK         0.0600 
    176 H176        5.2960   -9.8565  -49.1371 H         1 UNK         0.0600 
    177 H177        5.6194  -11.5144  -49.6164 H         1 UNK         0.0600 
    178 H178        4.0157  -10.8328  -49.8591 H         1 UNK         0.0600 
    179 H179        3.0596   -9.7566  -47.8670 H         1 UNK         0.3000 
    180 H180        2.3988   -8.8027  -44.7060 H         1 UNK         0.0600 
    181 H181        2.5602   -7.7843  -46.9738 H         1 UNK         0.0600 
    182 H182        0.9525   -7.5906  -46.3052 H         1 UNK         0.0600 
    183 H183        1.2367   -8.7989  -47.5491 H         1 UNK         0.0600 
    184 H184        0.4886   -9.7507  -44.1482 H         1 UNK         0.3000 
    185 H185       -1.0126  -11.5857  -44.0138 H         1 UNK         0.0600 
    186 H186       -1.8992   -9.2755  -44.5202 H         1 UNK         0.0600 
    187 H187       -2.6220   -9.8776  -46.0069 H         1 UNK         0.0600 
    188 H188       -3.2049  -10.4421  -44.4428 H         1 UNK         0.0600 
    189 H189       -1.6005  -12.6252  -46.6590 H         1 UNK         0.3000 
    190 H190       -0.8893  -22.2239  -44.5535 H         1 UNK         0.3000 
    191 H191       -3.3330  -21.4356  -45.7768 H         1 UNK         0.0600 
    192 H192       -2.9260  -21.2835  -43.3393 H         1 UNK         0.0600 
    193 H193       -4.3413  -22.2778  -43.6524 H         1 UNK         0.0600 
    194 H194       -2.8141  -23.0375  -43.2169 H         1 UNK         0.0600 
    195 H195       -1.9169  -24.6839  -45.1581 H         1 UNK         0.3000 
    196 H196       -4.0728  -26.2111  -46.2180 H         1 UNK         0.0600 
    197 H197       -2.3785  -28.0389  -46.3286 H         1 UNK         0.0600 
    198 H198       -2.3080  -27.1959  -44.7886 H         1 UNK         0.0600 
    199 H199       -1.0893  -26.8827  -46.0218 H         1 UNK         0.0600 
    200 H200       -1.1798  -24.7828  -47.7855 H         1 UNK         0.3000 
    201 H201       -1.6976  -25.7656  -50.4156 H         1 UNK         0.0600 
    202 H202        0.5164  -24.8752  -49.7105 H         1 UNK         0.0600 
    203 H203       -0.1649  -23.2604  -49.5396 H         1 UNK         0.0600 
    204 H204       -0.0839  -24.0143  -51.1183 H         1 UNK         0.0600 
    205 H205       -2.5245  -22.6282  -48.8385 H         1 UNK         0.3000 
    206 H206       -3.8966  -21.4125  -50.9205 H         1 UNK         0.0600 
    207 H207       -3.2198  -20.2785  -48.8224 H         1 UNK         0.0600 
    208 H208       -4.9361  -20.0341  -49.1110 H         1 UNK         0.0600 
    209 H209       -4.4110  -21.1951  -47.9037 H         1 UNK         0.0600 
    210 H210       -5.2012  -23.6930  -48.4899 H         1 UNK         0.3000 
    211 H211       -7.9180  -23.6318  -49.2858 H         1 UNK         0.0600 
    212 H212       -6.2933  -25.8806  -47.9829 H         1 UNK         0.0600 
    213 H213       -8.0494  -25.7823  -48.0223 H         1 UNK         0.0600 
    214 H214       -7.1260  -24.5803  -47.1334 H         1 UNK         0.0600 
    215 H215       -5.1747  -25.1559  -50.8336 H         1 UNK         0.3000 
    216 H216       -6.8809  -26.7714  -52.6629 H         1 UNK         0.0600 
    217 H217       -4.7447  -27.8452  -53.2760 H         1 UNK         0.0600 
    218 H218       -4.9456  -27.9028  -51.5323 H         1 UNK         0.0600 
    219 H219       -3.8424  -26.7343  -52.2541 H         1 UNK         0.0600 
    220 H220       -5.9382  -23.6451  -52.4707 H         1 UNK         0.3000 
    221 H221       -5.6166  -21.9264  -53.7819 H         1 UNK         0.0600 
    222 H222       -6.4662  -23.6378  -56.1735 H         1 UNK         0.0600 
    223 H223       -7.5752  -22.8096  -55.0794 H         1 UNK         0.0600 
    224 H224       -6.4659  -21.8832  -56.0755 H         1 UNK         0.0600 
    225 H225       -3.3968  -23.7223  -53.2042 H         1 UNK         0.3000 
    226 H226       -1.4736  -23.1023  -55.3957 H         1 UNK         0.0600 
    227 H227        0.0113  -24.6807  -54.1430 H         1 UNK         0.0600 
    228 H228       -1.2500  -24.9381  -52.9447 H         1 UNK         0.0600 
    229 H229       -1.4902  -25.4603  -54.6042 H         1 UNK         0.0600 
    230 H230        0.7373  -22.5405  -54.3348 H         1 UNK         0.3000 
    231 H231        2.0579  -21.0135  -53.4627 H         1 UNK         0.0600 
    232 H232        0.0566  -20.5124  -51.1904 H         1 UNK         0.0600 
    233 H233        1.7715  -20.1215  -51.2074 H         1 UNK         0.0600 
    234 H234        1.2621  -21.7941  -51.1939 H         1 UNK         0.0600 
    235 H235        1.0869  -18.4709  -52.1199 H         1 UNK         0.3000 
    236 H236        1.1626  -16.8370  -54.3952 H         1 UNK         0.0600 
    237 H237        1.9469  -16.1596  -52.1307 H         1 UNK         0.0600 
    238 H238        0.7950  -14.9926  -52.7572 H         1 UNK         0.0600 
    239 H239        0.2852  -16.1509  -51.5387 H         1 UNK         0.0600 
    240 H240       -1.6075  -18.3178  -52.9633 H         1 UNK         0.3000 
    241 H241       -3.4779  -16.7405  -54.6465 H         1 UNK         0.0600 
    242 H242       -3.1533  -20.4495  -55.7173 H         1 UNK         0.3800 
    243 H243       -1.8532  -19.4059  -55.1711 H         1 UNK         0.3800 
    244 H244       -4.1006  -16.1406  -52.4691 H         1 UNK         0.0800 
    245 H245       -5.2547  -17.3471  -52.9153 H         1 UNK         0.0800 
    246 H246       -3.6694  -16.0782  -49.9786 H         1 UNK         0.0800 
    247 H247       -2.1756  -16.4019  -50.8195 H         1 UNK         0.0800 
@<TRIPOS>BOND
     1    1    2 1    
     2    1  127 1    
     3    1  128 1    
     4    1  129 1    
     5    2    3 2    
     6    2    4 am   BACKBONE|DICT|INTERRES
     7    4    5 1    
     8    4  130 1    
     9    5    6 1    
    10    5   65 1    
    11    5  131 1    
    12    6    7 1    
    13    6  132 1    
    14    6  133 1    
    15    7    8 1    
    16    8    9 1    
    17    8  134 1    
    18    8  135 1    
    19    9   10 ar   
    20    9   14 ar   
    21   10   11 ar   
    22   10  136 1    
    23   11   12 ar   
    24   11  126 1    
    25   12   13 ar   
    26   12  137 1    
    27   13   14 ar   
    28   13   15 1    
    29   14  138 1    
    30   15   16 1    
    31   15  139 1    
    32   15  140 1    
    33   16   17 1    
    34   17   18 1    
    35   17  141 1    
    36   17  142 1    
    37   18   19 1    
    38   18   67 1    
    39   18  143 1    
    40   19   20 am   BACKBONE|DICT|INTERRES
    41   19  144 1    
    42   20   21 2    
    43   20   22 1    
    44   22   23 1    
    45   22   24 1    
    46   22  145 1    
    47   23  146 1    
    48   23  147 1    
    49   23  148 1    
    50   24   25 am   BACKBONE|DICT|INTERRES
    51   24  149 1    
    52   25   26 2    
    53   25   27 1    
    54   27   28 1    
    55   27   29 1    
    56   27  150 1    
    57   28  151 1    
    58   28  152 1    
    59   28  153 1    
    60   29   30 am   BACKBONE|DICT|INTERRES
    61   29  154 1    
    62   30   31 2    
    63   30   32 1    
    64   32   33 1    
    65   32   34 1    
    66   32  155 1    
    67   33  156 1    
    68   33  157 1    
    69   33  158 1    
    70   34   35 am   BACKBONE|DICT|INTERRES
    71   34  159 1    
    72   35   36 2    
    73   35   37 1    
    74   37   38 1    
    75   37   39 1    
    76   37  160 1    
    77   38  161 1    
    78   38  162 1    
    79   38  163 1    
    80   39   40 am   BACKBONE|DICT|INTERRES
    81   39  164 1    
    82   40   41 2    
    83   40   42 1    
    84   42   43 1    
    85   42   44 1    
    86   42  165 1    
    87   43  166 1    
    88   43  167 1    
    89   43  168 1    
    90   44   45 am   BACKBONE|DICT|INTERRES
    91   44  169 1    
    92   45   46 2    
    93   45   47 1    
    94   47   48 1    
    95   47   49 1    
    96   47  170 1    
    97   48  171 1    
    98   48  172 1    
    99   48  173 1    
   100   49   50 am   BACKBONE|DICT|INTERRES
   101   49  174 1    
   102   50   51 2    
   103   50   52 1    
   104   52   53 1    
   105   52   54 1    
   106   52  175 1    
   107   53  176 1    
   108   53  177 1    
   109   53  178 1    
   110   54   55 am   BACKBONE|DICT|INTERRES
   111   54  179 1    
   112   55   56 2    
   113   55   57 1    
   114   57   58 1    
   115   57   59 1    
   116   57  180 1    
   117   58  181 1    
   118   58  182 1    
   119   58  183 1    
   120   59   60 am   BACKBONE|DICT|INTERRES
   121   59  184 1    
   122   60   61 2    
   123   60   62 1    
   124   62   63 1    
   125   62   64 1    
   126   62  185 1    
   127   63  186 1    
   128   63  187 1    
   129   63  188 1    
   130   64   65 am   BACKBONE|DICT|INTERRES
   131   64  189 1    
   132   65   66 2    
   133   67   68 2    
   134   67   69 am   BACKBONE|DICT|INTERRES
   135   69   70 1    
   136   69  190 1    
   137   70   71 1    
   138   70   72 1    
   139   70  191 1    
   140   71  192 1    
   141   71  193 1    
   142   71  194 1    
   143   72   73 2    
   144   72   74 am   BACKBONE|DICT|INTERRES
   145   74   75 1    
   146   74  195 1    
   147   75   76 1    
   148   75   77 1    
   149   75  196 1    
   150   76  197 1    
   151   76  198 1    
   152   76  199 1    
   153   77   78 2    
   154   77   79 am   BACKBONE|DICT|INTERRES
   155   79   80 1    
   156   79  200 1    
   157   80   81 1    
   158   80   82 1    
   159   80  201 1    
   160   81  202 1    
   161   81  203 1    
   162   81  204 1    
   163   82   83 2    
   164   82   84 am   BACKBONE|DICT|INTERRES
   165   84   85 1    
   166   84  205 1    
   167   85   86 1    
   168   85   87 1    
   169   85  206 1    
   170   86  207 1    
   171   86  208 1    
   172   86  209 1    
   173   87   88 2    
   174   87   89 am   BACKBONE|DICT|INTERRES
   175   89   90 1    
   176   89  210 1    
   177   90   91 1    
   178   90   92 1    
   179   90  211 1    
   180   91  212 1    
   181   91  213 1    
   182   91  214 1    
   183   92   93 2    
   184   92   94 am   BACKBONE|DICT|INTERRES
   185   94   95 1    
   186   94  215 1    
   187   95   96 1    
   188   95   97 1    
   189   95  216 1    
   190   96  217 1    
   191   96  218 1    
   192   96  219 1    
   193   97   98 2    
   194   97   99 am   BACKBONE|DICT|INTERRES
   195   99  100 1    
   196   99  220 1    
   197  100  101 1    
   198  100  102 1    
   199  100  221 1    
   200  101  222 1    
   201  101  223 1    
   202  101  224 1    
   203  102  103 2    
   204  102  104 am   BACKBONE|DICT|INTERRES
   205  104  105 1    
   206  104  225 1    
   207  105  106 1    
   208  105  107 1    
   209  105  226 1    
   210  106  227 1    
   211  106  228 1    
   212  106  229 1    
   213  107  108 2    
   214  107  109 am   BACKBONE|DICT|INTERRES
   215  109  110 1    
   216  109  230 1    
   217  110  111 1    
   218  110  112 1    
   219  110  231 1    
   220  111  232 1    
   221  111  233 1    
   222  111  234 1    
   223  112  113 2    
   224  112  114 am   BACKBONE|DICT|INTERRES
   225  114  115 1    
   226  114  235 1    
   227  115  116 1    
   228  115  117 1    
   229  115  236 1    
   230  116  237 1    
   231  116  238 1    
   232  116  239 1    
   233  117  118 2    
   234  117  119 am   BACKBONE|DICT|INTERRES
   235  119  120 1    
   236  119  240 1    
   237  120  121 1    
   238  120  124 1    
   239  120  241 1    
   240  121  122 am   BACKBONE|DICT|INTERRES
   241  121  123 2    
   242  122  242 1    
   243  122  243 1    
   244  124  125 1    
   245  124  244 1    
   246  124  245 1    
   247  125  126 1    
   248  126  246 1    
   249  126  247 1    
@<TRIPOS>SUBSTRUCTURE
     1 UNK         1 GROUP             0       ****    0 ROOT    
