@<TRIPOS>MOLECULE
3R540
247   249    1
SMALL
USER_CHARGES


@<TRIPOS>ATOM
      1 CA          4.1740  -13.0279  -52.4517 C.3       0 UNK        -0.1800 
      2 C           3.3154  -13.0800  -51.1958 C.2       0 UNK         0.5000 
      3 O           3.6089  -13.8562  -50.2867 O.2       0 UNK        -0.5000 
      4 N           2.2528  -12.2671  -51.1500 N.am      1 UNK        -0.5000 
      5 CA          1.3432  -12.1451  -50.0075 C.3       1 UNK         0.1400 
      6 C6          0.0244  -11.4384  -50.4147 C.3       23 UNK        -0.0398 
      7 S7         -1.3741  -11.8747  -49.3237 S.3       23 UNK        -0.2404 
      8 C8         -2.2073  -13.1768  -50.2881 C.3       23 UNK        -0.0205 
      9 C9         -1.3744  -14.4477  -50.3541 C.ar      23 UNK        -0.0193 
     10 C10        -0.5305  -14.6834  -51.4420 C.ar      23 UNK        -0.1150 
     11 C11         0.2613  -15.8333  -51.4936 C.ar      23 UNK        -0.0193 
     12 C12         0.1862  -16.7690  -50.4565 C.ar      23 UNK        -0.1150 
     13 C13        -0.6668  -16.5505  -49.3692 C.ar      23 UNK        -0.0193 
     14 C14        -1.4388  -15.3858  -49.3214 C.ar      23 UNK        -0.1150 
     15 C15        -0.7680  -17.5657  -48.2428 C.3       23 UNK        -0.0205 
     16 S16        -2.1575  -18.7009  -48.5328 S.3       23 UNK        -0.2404 
     17 C17        -2.3556  -19.4695  -46.8926 C.3       23 UNK        -0.0398 
     18 CA         -1.8115  -20.9227  -46.8611 C.3       11 UNK         0.1400 
     19 N          -0.5089  -21.0261  -46.1977 N.am      11 UNK        -0.5000 
     20 C           0.2422  -22.1372  -46.1725 C.2       10 UNK         0.5000 
     21 O          -0.0588  -23.1827  -46.7493 O.2       10 UNK        -0.5000 
     22 CA          1.5115  -22.0934  -45.3046 C.3       10 UNK         0.1400 
     23 CB          2.6396  -21.3319  -46.0161 C.3       10 UNK        -0.1800 
     24 N           1.2632  -21.5070  -43.9864 N.am      10 UNK        -0.5000 
     25 C           0.4270  -22.0278  -43.0760 C.2       9 UNK         0.5000 
     26 O          -0.1832  -23.0845  -43.2338 O.2       9 UNK        -0.5000 
     27 CA          0.1954  -21.2177  -41.7901 C.3       9 UNK         0.1400 
     28 CB          1.3313  -21.4626  -40.7862 C.3       9 UNK        -0.1800 
     29 N           0.0462  -19.7833  -42.0379 N.am      9 UNK        -0.5000 
     30 C          -0.9376  -19.2294  -42.7621 C.2       8 UNK         0.5000 
     31 O          -1.8460  -19.8718  -43.2881 O.2       8 UNK        -0.5000 
     32 CA         -0.8658  -17.7078  -42.9854 C.3       8 UNK         0.1400 
     33 CB         -1.3164  -16.9413  -41.7334 C.3       8 UNK        -0.1800 
     34 N           0.4703  -17.2643  -43.3797 N.am      8 UNK        -0.5000 
     35 C           1.1055  -17.6608  -44.4918 C.2       7 UNK         0.5000 
     36 O           0.6147  -18.4133  -45.3341 O.2       7 UNK        -0.5000 
     37 CA          2.5563  -17.1813  -44.6560 C.3       7 UNK         0.1400 
     38 CB          2.6075  -15.7372  -45.1802 C.3       7 UNK        -0.1800 
     39 N           3.3027  -17.2845  -43.4010 N.am      7 UNK        -0.5000 
     40 C           3.6484  -18.4445  -42.8232 C.2       6 UNK         0.5000 
     41 O           3.4026  -19.5496  -43.3060 O.2       6 UNK        -0.5000 
     42 CA          4.3532  -18.3549  -41.4573 C.3       6 UNK         0.1400 
     43 CB          5.8520  -18.0712  -41.6372 C.3       6 UNK        -0.1800 
     44 N           3.7671  -17.3359  -40.5857 N.am      6 UNK        -0.5000 
     45 C           2.5265  -17.3929  -40.0808 C.2       5 UNK         0.5000 
     46 O           1.7532  -18.3289  -40.2718 O.2       5 UNK        -0.5000 
     47 CA          2.0503  -16.1786  -39.2640 C.3       5 UNK         0.1400 
     48 CB          2.4363  -16.3375  -37.7860 C.3       5 UNK        -0.1800 
     49 N           2.5642  -14.9026  -39.7671 N.am      5 UNK        -0.5000 
     50 C           2.3229  -14.4112  -40.9893 C.2       4 UNK         0.5000 
     51 O           1.6716  -15.0042  -41.8535 O.2       4 UNK        -0.5000 
     52 CA          2.9800  -13.0578  -41.3121 C.3       4 UNK         0.1400 
     53 CB          4.3504  -13.2842  -41.9702 C.3       4 UNK        -0.1800 
     54 N           2.1689  -12.2294  -42.2013 N.am      4 UNK        -0.5000 
     55 C           0.9375  -11.7642  -41.9462 C.2       3 UNK         0.5000 
     56 O           0.3397  -11.9629  -40.8873 O.2       3 UNK        -0.5000 
     57 CA          0.2725  -10.8992  -43.0392 C.3       3 UNK         0.1400 
     58 CB         -0.0731   -9.5024  -42.4957 C.3       3 UNK        -0.1800 
     59 N           1.1143  -10.7374  -44.2292 N.am      3 UNK        -0.5000 
     60 C           1.1520  -11.5880  -45.2604 C.2       2 UNK         0.5000 
     61 O           0.4516  -12.5993  -45.3503 O.2       2 UNK        -0.5000 
     62 CA          2.1748  -11.2680  -46.3566 C.3       2 UNK         0.1400 
     63 CB          3.5636  -11.8251  -45.9945 C.3       2 UNK        -0.1800 
     64 N           1.7117  -11.8558  -47.6057 N.am      2 UNK        -0.5000 
     65 C           2.0295  -11.4248  -48.8287 C.2       1 UNK         0.5000 
     66 O           2.8000  -10.4855  -49.0469 O.2       1 UNK        -0.5000 
     67 C          -2.8453  -21.8912  -46.2541 C.2       11 UNK         0.5000 
     68 O          -3.5465  -22.5610  -47.0105 O.2       11 UNK        -0.5000 
     69 N          -2.9099  -21.9715  -44.9179 N.am      12 UNK        -0.5000 
     70 CA         -3.8028  -22.8722  -44.1873 C.3       12 UNK         0.1400 
     71 CB         -3.7436  -22.5591  -42.6848 C.3       12 UNK        -0.1800 
     72 C          -3.5011  -24.3582  -44.4520 C.2       12 UNK         0.5000 
     73 O          -4.4302  -25.1270  -44.7000 O.2       12 UNK        -0.5000 
     74 N          -2.2122  -24.7263  -44.4358 N.am      13 UNK        -0.5000 
     75 CA         -1.7256  -26.0782  -44.7189 C.3       13 UNK         0.1400 
     76 CB         -0.2271  -26.1613  -44.3910 C.3       13 UNK        -0.1800 
     77 C          -1.9874  -26.5206  -46.1701 C.2       13 UNK         0.5000 
     78 O          -2.3580  -27.6728  -46.3974 O.2       13 UNK        -0.5000 
     79 N          -1.8120  -25.5936  -47.1208 N.am      14 UNK        -0.5000 
     80 CA         -2.0644  -25.8090  -48.5463 C.3       14 UNK         0.1400 
     81 CB         -1.2501  -24.7783  -49.3446 C.3       14 UNK        -0.1800 
     82 C          -3.5553  -25.7177  -48.9298 C.2       14 UNK         0.5000 
     83 O          -3.8974  -26.0413  -50.0679 O.2       14 UNK        -0.5000 
     84 N          -4.4021  -25.2239  -48.0137 N.am      15 UNK        -0.5000 
     85 CA         -5.8137  -24.8693  -48.2062 C.3       15 UNK         0.1400 
     86 CB         -6.6704  -26.1329  -48.4278 C.3       15 UNK        -0.1800 
     87 C          -5.9893  -23.8149  -49.3204 C.2       15 UNK         0.5000 
     88 O          -6.8316  -23.9759  -50.2043 O.2       15 UNK        -0.5000 
     89 N          -5.1278  -22.7866  -49.2886 N.am      16 UNK        -0.5000 
     90 CA         -4.9443  -21.7428  -50.3042 C.3       16 UNK         0.1400 
     91 CB         -6.1548  -20.7882  -50.3311 C.3       16 UNK        -0.1800 
     92 C          -4.6003  -22.3312  -51.6901 C.2       16 UNK         0.5000 
     93 O          -5.1429  -21.8909  -52.7044 O.2       16 UNK        -0.5000 
     94 N          -3.7313  -23.3544  -51.6852 N.am      17 UNK        -0.5000 
     95 CA         -3.3352  -24.1980  -52.8186 C.3       17 UNK         0.1400 
     96 CB         -2.5140  -23.3869  -53.8391 C.3       17 UNK        -0.1800 
     97 C          -4.5507  -24.9079  -53.4469 C.2       17 UNK         0.5000 
     98 O          -4.7802  -24.7959  -54.6506 O.2       17 UNK        -0.5000 
     99 N          -5.3447  -25.5744  -52.5958 N.am      18 UNK        -0.5000 
    100 CA        -6.6420  -26.1919  -52.9051 C.3       18 UNK         0.1400 
    101 CB        -6.4457  -27.4587  -53.7627 C.3       18 UNK        -0.1800 
    102 C         -7.6399  -25.1865  -53.5268 C.2       18 UNK         0.5000 
    103 O         -8.3113  -25.4961  -54.5125 O.2       18 UNK        -0.5000 
    104 N         -7.6738  -23.9808  -52.9432 N.am      19 UNK        -0.5000 
    105 CA        -8.4381  -22.7921  -53.3327 C.3       19 UNK         0.1400 
    106 CB        -9.9535  -23.0581  -53.2209 C.3       19 UNK        -0.1800 
    107 C         -8.0510  -22.1704  -54.6949 C.2       19 UNK         0.5000 
    108 O         -8.7625  -21.2795  -55.1630 O.2       19 UNK        -0.5000 
    109 N         -6.9429  -22.6094  -55.3100 N.am      20 UNK        -0.5000 
    110 CA        -6.4604  -22.0919  -56.5944 C.3       20 UNK         0.1400 
    111 CB        -5.6672  -23.1912  -57.3182 C.3       20 UNK        -0.1800 
    112 C         -5.6030  -20.8174  -56.4583 C.2       20 UNK         0.5000 
    113 O         -5.3795  -20.1485  -57.4687 O.2       20 UNK        -0.5000 
    114 N         -5.1394  -20.5154  -55.2351 N.am      21 UNK        -0.5000 
    115 CA        -4.1732  -19.4777  -54.8544 C.3       21 UNK         0.1400 
    116 CB        -4.6246  -18.0739  -55.3091 C.3       21 UNK        -0.1800 
    117 C         -2.7341  -19.8050  -55.3074 C.2       21 UNK         0.5000 
    118 O         -2.5096  -20.7369  -56.0841 O.2       21 UNK        -0.5000 
    119 N         -1.7694  -19.0542  -54.7634 N.am      22 UNK        -0.5000 
    120 CA        -0.3297  -19.2308  -55.0068 C.3       22 UNK         0.1400 
    121 C          0.1126  -18.9874  -56.4819 C.2       22 UNK         0.5000 
    122 N          1.2227  -19.5790  -56.9041 N.am      22 UNK        -0.7600 
    123 O         -0.5166  -18.2490  -57.2375 O.2       22 UNK        -0.5000 
    124 C124        0.5151  -18.4142  -53.9934 C.3       23 UNK        -0.0398 
    125 S125        0.3352  -16.6036  -54.1504 S.3       23 UNK        -0.2404 
    126 C126        1.2115  -16.0336  -52.6631 C.3       23 UNK        -0.0205 
    127 H127        5.1898  -12.7238  -52.1990 H         1 UNK         0.0600 
    128 H128        3.7798  -12.3230  -53.1842 H         1 UNK         0.0600 
    129 H129        4.2175  -14.0124  -52.9175 H         1 UNK         0.0600 
    130 H130        2.0912  -11.6241  -51.9115 H         1 UNK         0.3000 
    131 H131        1.1092  -13.1621  -49.6857 H         1 UNK         0.0600 
    132 H132        0.1422  -10.3531  -50.4221 H         1 UNK         0.0800 
    133 H133       -0.2493  -11.7019  -51.4367 H         1 UNK         0.0800 
    134 H134       -2.4314  -12.8099  -51.2909 H         1 UNK         0.0800 
    135 H135       -3.1704  -13.3957  -49.8246 H         1 UNK         0.0800 
    136 H136       -0.4737  -13.9630  -52.2457 H         1 UNK         0.1150 
    137 H137        0.7905  -17.6644  -50.4936 H         1 UNK         0.1150 
    138 H138       -2.0936  -15.2106  -48.4791 H         1 UNK         0.1150 
    139 H139        0.1571  -18.1371  -48.1505 H         1 UNK         0.0800 
    140 H140       -0.9052  -17.0430  -47.2948 H         1 UNK         0.0800 
    141 H141       -3.4250  -19.4279  -46.6754 H         1 UNK         0.0800 
    142 H142       -1.8925  -18.8536  -46.1212 H         1 UNK         0.0800 
    143 H143       -1.6605  -21.2665  -47.8870 H         1 UNK         0.0600 
    144 H144       -0.1724  -20.1966  -45.7174 H         1 UNK         0.3000 
    145 H145        1.8430  -23.1227  -45.1523 H         1 UNK         0.0600 
    146 H146        3.5661  -21.3771  -45.4436 H         1 UNK         0.0600 
    147 H147        2.8427  -21.7624  -46.9974 H         1 UNK         0.0600 
    148 H148        2.3897  -20.2813  -46.1636 H         1 UNK         0.0600 
    149 H149        1.7677  -20.6549  -43.7641 H         1 UNK         0.3000 
    150 H150       -0.7337  -21.5721  -41.3395 H         1 UNK         0.0600 
    151 H151        1.4597  -22.5282  -40.5922 H         1 UNK         0.0600 
    152 H152        1.1219  -20.9824  -39.8304 H         1 UNK         0.0600 
    153 H153        2.2831  -21.0774  -41.1536 H         1 UNK         0.0600 
    154 H154        0.7342  -19.1783  -41.5964 H         1 UNK         0.3000 
    155 H155       -1.5492  -17.4586  -43.7997 H         1 UNK         0.0600 
    156 H156       -2.3336  -17.2172  -41.4530 H         1 UNK         0.0600 
    157 H157       -1.3051  -15.8646  -41.9047 H         1 UNK         0.0600 
    158 H158       -0.6729  -17.1496  -40.8789 H         1 UNK         0.0600 
    159 H159        0.9400  -16.6121  -42.7586 H         1 UNK         0.3000 
    160 H160        3.0392  -17.8258  -45.3937 H         1 UNK         0.0600 
    161 H161        2.1428  -15.0335  -44.4888 H         1 UNK         0.0600 
    162 H162        2.0827  -15.6502  -46.1326 H         1 UNK         0.0600 
    163 H163        3.6356  -15.4153  -45.3457 H         1 UNK         0.0600 
    164 H164        3.4839  -16.4230  -42.9083 H         1 UNK         0.3000 
    165 H165        4.2464  -19.3235  -40.9643 H         1 UNK         0.0600 
    166 H166        6.3737  -18.0874  -40.6802 H         1 UNK         0.0600 
    167 H167        6.3178  -18.8255  -42.2728 H         1 UNK         0.0600 
    168 H168        6.0273  -17.0987  -42.0991 H         1 UNK         0.0600 
    169 H169        4.3354  -16.5289  -40.3762 H         1 UNK         0.3000 
    170 H170        0.9611  -16.1446  -39.3293 H         1 UNK         0.0600 
    171 H171        2.0264  -15.5280  -37.1817 H         1 UNK         0.0600 
    172 H172        2.0479  -17.2726  -37.3800 H         1 UNK         0.0600 
    173 H173        3.5184  -16.3448  -37.6498 H         1 UNK         0.0600 
    174 H174        3.1209  -14.3599  -39.1225 H         1 UNK         0.3000 
    175 H175        3.1220  -12.5049  -40.3813 H         1 UNK         0.0600 
    176 H176        4.2580  -13.8089  -42.9224 H         1 UNK         0.0600 
    177 H177        4.8595  -12.3385  -42.1576 H         1 UNK         0.0600 
    178 H178        5.0020  -13.8793  -41.3290 H         1 UNK         0.0600 
    179 H179        2.5628  -12.0281  -43.1063 H         1 UNK         0.3000 
    180 H180       -0.6602  -11.3935  -43.3193 H         1 UNK         0.0600 
    181 H181        0.8188   -8.9639  -42.1728 H         1 UNK         0.0600 
    182 H182       -0.7449   -9.5684  -41.6389 H         1 UNK         0.0600 
    183 H183       -0.5753   -8.8985  -43.2517 H         1 UNK         0.0600 
    184 H184        1.7259   -9.9330  -44.2329 H         1 UNK         0.3000 
    185 H185        2.2325  -10.1829  -46.4678 H         1 UNK         0.0600 
    186 H186        3.9298  -11.3970  -45.0608 H         1 UNK         0.0600 
    187 H187        3.5418  -12.9087  -45.8749 H         1 UNK         0.0600 
    188 H188        4.2974  -11.5905  -46.7657 H         1 UNK         0.0600 
    189 H189        1.0263  -12.5921  -47.4848 H         1 UNK         0.3000 
    190 H190       -2.3362  -21.3464  -44.3569 H         1 UNK         0.3000 
    191 H191       -4.8206  -22.6764  -44.5310 H         1 UNK         0.0600 
    192 H192       -4.0308  -21.5265  -42.4859 H         1 UNK         0.0600 
    193 H193       -4.4255  -23.2003  -42.1250 H         1 UNK         0.0600 
    194 H194       -2.7432  -22.7114  -42.2799 H         1 UNK         0.0600 
    195 H195       -1.5087  -24.0370  -44.1802 H         1 UNK         0.3000 
    196 H196       -2.2566  -26.7689  -44.0607 H         1 UNK         0.0600 
    197 H197        0.1625  -27.1611  -44.5866 H         1 UNK         0.0600 
    198 H198       -0.0416  -25.9396  -43.3400 H         1 UNK         0.0600 
    199 H199        0.3543  -25.4575  -44.9880 H         1 UNK         0.0600 
    200 H200       -1.4489  -24.6825  -46.8570 H         1 UNK         0.3000 
    201 H201       -1.7151  -26.8063  -48.8213 H         1 UNK         0.0600 
    202 H202       -0.1895  -24.8416  -49.1002 H         1 UNK         0.0600 
    203 H203       -1.5782  -23.7586  -49.1377 H         1 UNK         0.0600 
    204 H204       -1.3409  -24.9474  -50.4174 H         1 UNK         0.0600 
    205 H205       -4.0095  -24.9510  -47.1222 H         1 UNK         0.3000 
    206 H206       -6.1444  -24.3987  -47.2792 H         1 UNK         0.0600 
    207 H207       -6.5336  -26.8466  -47.6155 H         1 UNK         0.0600 
    208 H208       -7.7312  -25.8827  -48.4651 H         1 UNK         0.0600 
    209 H209       -6.4213  -26.6369  -49.3619 H         1 UNK         0.0600 
    210 H210       -4.4917  -22.7416  -48.4922 H         1 UNK         0.3000 
    211 H211       -4.0738  -21.1614  -49.9968 H         1 UNK         0.0600 
    212 H212       -7.0702  -21.3003  -50.6255 H         1 UNK         0.0600 
    213 H213       -5.9945  -19.9700  -51.0342 H         1 UNK         0.0600 
    214 H214       -6.3227  -20.3434  -49.3504 H         1 UNK         0.0600 
    215 H215       -3.3981  -23.6663  -50.7857 H         1 UNK         0.3000 
    216 H216       -2.6899  -24.9826  -52.4225 H         1 UNK         0.0600 
    217 H217       -2.1103  -24.0342  -54.6182 H         1 UNK         0.0600 
    218 H218       -3.1257  -22.6319  -54.3308 H         1 UNK         0.0600 
    219 H219       -1.6731  -22.8823  -53.3638 H         1 UNK         0.0600 
    220 H220       -5.0508  -25.6265  -51.6243 H         1 UNK         0.3000 
    221 H221       -7.0718  -26.4993  -51.9507 H         1 UNK         0.0600 
    222 H222       -6.0526  -27.2215  -54.7518 H         1 UNK         0.0600 
    223 H223       -5.7550  -28.1536  -53.2852 H         1 UNK         0.0600 
    224 H224       -7.3901  -27.9855  -53.9033 H         1 UNK         0.0600 
    225 H225       -7.1161  -23.8667  -52.1004 H         1 UNK         0.3000 
    226 H226       -8.1882  -22.0341  -52.5904 H         1 UNK         0.0600 
    227 H227      -10.2103  -23.4679  -52.2440 H         1 UNK         0.0600 
    228 H228      -10.5245  -22.1371  -53.3434 H         1 UNK         0.0600 
    229 H229      -10.2992  -23.7586  -53.9814 H         1 UNK         0.0600 
    230 H230       -6.3841  -23.3334  -54.8726 H         1 UNK         0.3000 
    231 H231       -7.3206  -21.8435  -57.2197 H         1 UNK         0.0600 
    232 H232       -4.7137  -23.3876  -56.8271 H         1 UNK         0.0600 
    233 H233       -5.4453  -22.8962  -58.3444 H         1 UNK         0.0600 
    234 H234       -6.2262  -24.1262  -57.3604 H         1 UNK         0.0600 
    235 H235       -5.3629  -21.1592  -54.4805 H         1 UNK         0.3000 
    236 H236       -4.1651  -19.4834  -53.7634 H         1 UNK         0.0600 
    237 H237       -5.6638  -17.8859  -55.0391 H         1 UNK         0.0600 
    238 H238       -4.0232  -17.2974  -54.8357 H         1 UNK         0.0600 
    239 H239       -4.5266  -17.9417  -56.3868 H         1 UNK         0.0600 
    240 H240       -2.0195  -18.2810  -54.1649 H         1 UNK         0.3000 
    241 H241       -0.1272  -20.2844  -54.8034 H         1 UNK         0.0600 
    242 H242        1.7615  -20.1879  -56.3077 H         1 UNK         0.3800 
    243 H243        1.5283  -19.4225  -57.8523 H         1 UNK         0.3800 
    244 H244        1.5722  -18.6646  -54.0971 H         1 UNK         0.0800 
    245 H245        0.2422  -18.7026  -52.9772 H         1 UNK         0.0800 
    246 H246        2.0121  -16.7276  -52.4024 H         1 UNK         0.0800 
    247 H247        1.6988  -15.0853  -52.8927 H         1 UNK         0.0800 
@<TRIPOS>BOND
     1    1    2 1    
     2    1  127 1    
     3    1  128 1    
     4    1  129 1    
     5    2    3 2    
     6    2    4 am   BACKBONE|DICT|INTERRES
     7    4    5 1    
     8    4  130 1    
     9    5    6 1    
    10    5   65 1    
    11    5  131 1    
    12    6    7 1    
    13    6  132 1    
    14    6  133 1    
    15    7    8 1    
    16    8    9 1    
    17    8  134 1    
    18    8  135 1    
    19    9   10 ar   
    20    9   14 ar   
    21   10   11 ar   
    22   10  136 1    
    23   11   12 ar   
    24   11  126 1    
    25   12   13 ar   
    26   12  137 1    
    27   13   14 ar   
    28   13   15 1    
    29   14  138 1    
    30   15   16 1    
    31   15  139 1    
    32   15  140 1    
    33   16   17 1    
    34   17   18 1    
    35   17  141 1    
    36   17  142 1    
    37   18   19 1    
    38   18   67 1    
    39   18  143 1    
    40   19   20 am   BACKBONE|DICT|INTERRES
    41   19  144 1    
    42   20   21 2    
    43   20   22 1    
    44   22   23 1    
    45   22   24 1    
    46   22  145 1    
    47   23  146 1    
    48   23  147 1    
    49   23  148 1    
    50   24   25 am   BACKBONE|DICT|INTERRES
    51   24  149 1    
    52   25   26 2    
    53   25   27 1    
    54   27   28 1    
    55   27   29 1    
    56   27  150 1    
    57   28  151 1    
    58   28  152 1    
    59   28  153 1    
    60   29   30 am   BACKBONE|DICT|INTERRES
    61   29  154 1    
    62   30   31 2    
    63   30   32 1    
    64   32   33 1    
    65   32   34 1    
    66   32  155 1    
    67   33  156 1    
    68   33  157 1    
    69   33  158 1    
    70   34   35 am   BACKBONE|DICT|INTERRES
    71   34  159 1    
    72   35   36 2    
    73   35   37 1    
    74   37   38 1    
    75   37   39 1    
    76   37  160 1    
    77   38  161 1    
    78   38  162 1    
    79   38  163 1    
    80   39   40 am   BACKBONE|DICT|INTERRES
    81   39  164 1    
    82   40   41 2    
    83   40   42 1    
    84   42   43 1    
    85   42   44 1    
    86   42  165 1    
    87   43  166 1    
    88   43  167 1    
    89   43  168 1    
    90   44   45 am   BACKBONE|DICT|INTERRES
    91   44  169 1    
    92   45   46 2    
    93   45   47 1    
    94   47   48 1    
    95   47   49 1    
    96   47  170 1    
    97   48  171 1    
    98   48  172 1    
    99   48  173 1    
   100   49   50 am   BACKBONE|DICT|INTERRES
   101   49  174 1    
   102   50   51 2    
   103   50   52 1    
   104   52   53 1    
   105   52   54 1    
   106   52  175 1    
   107   53  176 1    
   108   53  177 1    
   109   53  178 1    
   110   54   55 am   BACKBONE|DICT|INTERRES
   111   54  179 1    
   112   55   56 2    
   113   55   57 1    
   114   57   58 1    
   115   57   59 1    
   116   57  180 1    
   117   58  181 1    
   118   58  182 1    
   119   58  183 1    
   120   59   60 am   BACKBONE|DICT|INTERRES
   121   59  184 1    
   122   60   61 2    
   123   60   62 1    
   124   62   63 1    
   125   62   64 1    
   126   62  185 1    
   127   63  186 1    
   128   63  187 1    
   129   63  188 1    
   130   64   65 am   BACKBONE|DICT|INTERRES
   131   64  189 1    
   132   65   66 2    
   133   67   68 2    
   134   67   69 am   BACKBONE|DICT|INTERRES
   135   69   70 1    
   136   69  190 1    
   137   70   71 1    
   138   70   72 1    
   139   70  191 1    
   140   71  192 1    
   141   71  193 1    
   142   71  194 1    
   143   72   73 2    
   144   72   74 am   BACKBONE|DICT|INTERRES
   145   74   75 1    
   146   74  195 1    
   147   75   76 1    
   148   75   77 1    
   149   75  196 1    
   150   76  197 1    
   151   76  198 1    
   152   76  199 1    
   153   77   78 2    
   154   77   79 am   BACKBONE|DICT|INTERRES
   155   79   80 1    
   156   79  200 1    
   157   80   81 1    
   158   80   82 1    
   159   80  201 1    
   160   81  202 1    
   161   81  203 1    
   162   81  204 1    
   163   82   83 2    
   164   82   84 am   BACKBONE|DICT|INTERRES
   165   84   85 1    
   166   84  205 1    
   167   85   86 1    
   168   85   87 1    
   169   85  206 1    
   170   86  207 1    
   171   86  208 1    
   172   86  209 1    
   173   87   88 2    
   174   87   89 am   BACKBONE|DICT|INTERRES
   175   89   90 1    
   176   89  210 1    
   177   90   91 1    
   178   90   92 1    
   179   90  211 1    
   180   91  212 1    
   181   91  213 1    
   182   91  214 1    
   183   92   93 2    
   184   92   94 am   BACKBONE|DICT|INTERRES
   185   94   95 1    
   186   94  215 1    
   187   95   96 1    
   188   95   97 1    
   189   95  216 1    
   190   96  217 1    
   191   96  218 1    
   192   96  219 1    
   193   97   98 2    
   194   97   99 am   BACKBONE|DICT|INTERRES
   195   99  100 1    
   196   99  220 1    
   197  100  101 1    
   198  100  102 1    
   199  100  221 1    
   200  101  222 1    
   201  101  223 1    
   202  101  224 1    
   203  102  103 2    
   204  102  104 am   BACKBONE|DICT|INTERRES
   205  104  105 1    
   206  104  225 1    
   207  105  106 1    
   208  105  107 1    
   209  105  226 1    
   210  106  227 1    
   211  106  228 1    
   212  106  229 1    
   213  107  108 2    
   214  107  109 am   BACKBONE|DICT|INTERRES
   215  109  110 1    
   216  109  230 1    
   217  110  111 1    
   218  110  112 1    
   219  110  231 1    
   220  111  232 1    
   221  111  233 1    
   222  111  234 1    
   223  112  113 2    
   224  112  114 am   BACKBONE|DICT|INTERRES
   225  114  115 1    
   226  114  235 1    
   227  115  116 1    
   228  115  117 1    
   229  115  236 1    
   230  116  237 1    
   231  116  238 1    
   232  116  239 1    
   233  117  118 2    
   234  117  119 am   BACKBONE|DICT|INTERRES
   235  119  120 1    
   236  119  240 1    
   237  120  121 1    
   238  120  124 1    
   239  120  241 1    
   240  121  122 am   BACKBONE|DICT|INTERRES
   241  121  123 2    
   242  122  242 1    
   243  122  243 1    
   244  124  125 1    
   245  124  244 1    
   246  124  245 1    
   247  125  126 1    
   248  126  246 1    
   249  126  247 1    
@<TRIPOS>SUBSTRUCTURE
     1 UNK         1 GROUP             0       ****    0 ROOT    
