@<TRIPOS>MOLECULE
3R540
247   249    1
SMALL
USER_CHARGES


@<TRIPOS>ATOM
      1 CA         -3.8808  -12.0401  -53.8735 C.3       0 UNK        -0.1800 
      2 C          -2.6107  -12.3176  -53.0813 C.2       0 UNK         0.5000 
      3 O          -1.5285  -11.9063  -53.4986 O.2       0 UNK        -0.5000 
      4 N          -2.7367  -13.0192  -51.9513 N.am      1 UNK        -0.5000 
      5 CA         -1.6508  -13.3351  -51.0266 C.3       1 UNK         0.1400 
      6 C6         -1.0106  -14.7091  -51.3431 C.3       23 UNK        -0.0398 
      7 S7          0.6035  -14.9268  -50.5177 S.3       23 UNK        -0.2404 
      8 C8          0.2172  -16.2262  -49.3020 C.3       23 UNK        -0.0205 
      9 C9          0.7526  -17.5851  -49.7344 C.ar      23 UNK        -0.0193 
     10 C10         0.2816  -18.2105  -50.8953 C.ar      23 UNK        -0.1150 
     11 C11         0.8047  -19.4446  -51.2972 C.ar      23 UNK        -0.0193 
     12 C12         1.7984  -20.0537  -50.5285 C.ar      23 UNK        -0.1150 
     13 C13         2.2400  -19.4651  -49.3414 C.ar      23 UNK        -0.0193 
     14 C14         1.7229  -18.2248  -48.9578 C.ar      23 UNK        -0.1150 
     15 C15         3.2612  -20.1718  -48.4593 C.3       23 UNK        -0.0205 
     16 S16         2.7790  -21.8746  -47.9966 S.3       23 UNK        -0.2404 
     17 C17         0.9923  -21.7144  -47.6605 C.3       23 UNK        -0.0398 
     18 CA          0.4482  -22.8610  -46.7813 C.3       11 UNK         0.1400 
     19 N           1.0171  -22.8495  -45.4322 N.am      11 UNK        -0.5000 
     20 C           0.8380  -23.7925  -44.4993 C.2       10 UNK         0.5000 
     21 O           0.2034  -24.8277  -44.7114 O.2       10 UNK        -0.5000 
     22 CA          1.3743  -23.4915  -43.0817 C.3       10 UNK         0.1400 
     23 CB          2.0089  -24.7285  -42.4154 C.3       10 UNK        -0.1800 
     24 N           2.2538  -22.3149  -43.0162 N.am      10 UNK        -0.5000 
     25 C           3.4946  -22.1771  -43.5076 C.2       9 UNK         0.5000 
     26 O           4.1356  -23.0938  -44.0215 O.2       9 UNK        -0.5000 
     27 CA          4.1161  -20.7653  -43.4647 C.3       9 UNK         0.1400 
     28 CB          4.1542  -20.1683  -44.8777 C.3       9 UNK        -0.1800 
     29 N           3.4025  -19.8278  -42.5959 N.am      9 UNK        -0.5000 
     30 C           3.5071  -19.7883  -41.2616 C.2       8 UNK         0.5000 
     31 O           4.2365  -20.5359  -40.6093 O.2       8 UNK        -0.5000 
     32 CA          2.6272  -18.7536  -40.5336 C.3       8 UNK         0.1400 
     33 CB          3.2997  -17.3724  -40.5291 C.3       8 UNK        -0.1800 
     34 N           1.2851  -18.6392  -41.1091 N.am      8 UNK        -0.5000 
     35 C           0.3733  -19.6224  -41.1086 C.2       7 UNK         0.5000 
     36 O           0.5587  -20.7302  -40.6047 O.2       7 UNK        -0.5000 
     37 CA         -0.9529  -19.3389  -41.8320 C.3       7 UNK         0.1400 
     38 CB         -1.8972  -18.5117  -40.9477 C.3       7 UNK        -0.1800 
     39 N          -0.7548  -18.6660  -43.1154 N.am      7 UNK        -0.5000 
     40 C          -0.1553  -19.2211  -44.1762 C.2       6 UNK         0.5000 
     41 O           0.2283  -20.3886  -44.2043 O.2       6 UNK        -0.5000 
     42 CA          0.0681  -18.3338  -45.4122 C.3       6 UNK         0.1400 
     43 CB         -1.1857  -18.3183  -46.2901 C.3       6 UNK        -0.1800 
     44 N           0.4574  -16.9676  -45.0781 N.am      6 UNK        -0.5000 
     45 C           1.5876  -16.6457  -44.4333 C.2       5 UNK         0.5000 
     46 O           2.4388  -17.4648  -44.0873 O.2       5 UNK        -0.5000 
     47 CA          1.7619  -15.1651  -44.0637 C.3       5 UNK         0.1400 
     48 CB          2.2499  -14.3545  -45.2737 C.3       5 UNK        -0.1800 
     49 N           0.5170  -14.5936  -43.5495 N.am      5 UNK        -0.5000 
     50 C          -0.0412  -14.9366  -42.3791 C.2       4 UNK         0.5000 
     51 O           0.4609  -15.7364  -41.5884 O.2       4 UNK        -0.5000 
     52 CA         -1.4142  -14.3148  -42.0654 C.3       4 UNK         0.1400 
     53 CB         -1.2523  -12.8948  -41.5029 C.3       4 UNK        -0.1800 
     54 N          -2.2932  -14.2778  -43.2363 N.am      4 UNK        -0.5000 
     55 C          -2.7916  -15.3655  -43.8422 C.2       3 UNK         0.5000 
     56 O          -2.5873  -16.5131  -43.4539 O.2       3 UNK        -0.5000 
     57 CA         -3.6248  -15.1397  -45.1167 C.3       3 UNK         0.1400 
     58 CB         -5.1100  -14.9664  -44.7673 C.3       3 UNK        -0.1800 
     59 N          -3.1733  -13.9913  -45.9035 N.am      3 UNK        -0.5000 
     60 C          -1.9804  -13.9037  -46.5050 C.2       2 UNK         0.5000 
     61 O          -1.1116  -14.7775  -46.4447 O.2       2 UNK        -0.5000 
     62 CA         -1.6948  -12.5907  -47.2519 C.3       2 UNK         0.1400 
     63 CB         -0.5566  -11.8151  -46.5704 C.3       2 UNK        -0.1800 
     64 N          -1.3493  -12.8205  -48.6519 N.am      2 UNK        -0.5000 
     65 C          -2.2060  -13.2360  -49.5933 C.2       1 UNK         0.5000 
     66 O          -3.3921  -13.4957  -49.3743 O.2       1 UNK        -0.5000 
     67 C          -1.0927  -22.8234  -46.7520 C.2       11 UNK         0.5000 
     68 O          -1.7202  -23.4354  -47.6116 O.2       11 UNK        -0.5000 
     69 N          -1.6728  -22.1604  -45.7400 N.am      12 UNK        -0.5000 
     70 CA         -3.1183  -22.1122  -45.4967 C.3       12 UNK         0.1400 
     71 CB         -3.4203  -20.9969  -44.4838 C.3       12 UNK        -0.1800 
     72 C          -3.7170  -23.4512  -45.0131 C.2       12 UNK         0.5000 
     73 O          -4.9399  -23.5955  -45.0233 O.2       12 UNK        -0.5000 
     74 N          -2.8665  -24.3943  -44.5823 N.am      13 UNK        -0.5000 
     75 CA         -3.2561  -25.7668  -44.2629 C.3       13 UNK         0.1400 
     76 CB         -2.4714  -26.2531  -43.0337 C.3       13 UNK        -0.1800 
     77 C          -3.0193  -26.6935  -45.4681 C.2       13 UNK         0.5000 
     78 O          -3.8488  -27.5644  -45.7328 O.2       13 UNK        -0.5000 
     79 N          -1.8957  -26.4961  -46.1738 N.am      14 UNK        -0.5000 
     80 CA         -1.4946  -27.2889  -47.3381 C.3       14 UNK         0.1400 
     81 CB         -0.0153  -27.0104  -47.6449 C.3       14 UNK        -0.1800 
     82 C          -2.3576  -27.0387  -48.5913 C.2       14 UNK         0.5000 
     83 O          -2.5911  -27.9723  -49.3605 O.2       14 UNK        -0.5000 
     84 N          -2.8023  -25.7931  -48.7798 N.am      15 UNK        -0.5000 
     85 CA         -3.6056  -25.3213  -49.9043 C.3       15 UNK         0.1400 
     86 CB         -2.6611  -24.7766  -50.9917 C.3       15 UNK        -0.1800 
     87 C          -4.6107  -24.2667  -49.4014 C.2       15 UNK         0.5000 
     88 O          -4.8174  -24.1520  -48.1916 O.2       15 UNK        -0.5000 
     89 N          -5.2423  -23.5220  -50.3203 N.am      16 UNK        -0.5000 
     90 CA         -6.1359  -22.4127  -49.9736 C.3       16 UNK         0.1400 
     91 CB         -7.1132  -22.1362  -51.1276 C.3       16 UNK        -0.1800 
     92 C          -5.3310  -21.1529  -49.6117 C.2       16 UNK         0.5000 
     93 O          -5.6227  -20.5141  -48.6009 O.2       16 UNK        -0.5000 
     94 N          -4.3190  -20.8453  -50.4388 N.am      17 UNK        -0.5000 
     95 CA         -3.2954  -19.8083  -50.2465 C.3       17 UNK         0.1400 
     96 CB         -2.3732  -20.1950  -49.0779 C.3       17 UNK        -0.1800 
     97 C          -3.8190  -18.3583  -50.1449 C.2       17 UNK         0.5000 
     98 O          -3.1046  -17.4840  -49.6564 O.2       17 UNK        -0.5000 
     99 N          -5.0376  -18.1089  -50.6429 N.am      18 UNK        -0.5000 
    100 CA        -5.6544  -16.7791  -50.7007 C.3       18 UNK         0.1400 
    101 CB        -7.1758  -16.9490  -50.8296 C.3       18 UNK        -0.1800 
    102 C         -5.1093  -15.9139  -51.8555 C.2       18 UNK         0.5000 
    103 O         -5.2724  -14.6935  -51.8361 O.2       18 UNK        -0.5000 
    104 N         -4.4779  -16.5613  -52.8388 N.am      19 UNK        -0.5000 
    105 CA        -3.8265  -15.9643  -53.9955 C.3       19 UNK         0.1400 
    106 CB        -4.7507  -16.0914  -55.2171 C.3       19 UNK        -0.1800 
    107 C         -2.5000  -16.6956  -54.2293 C.2       19 UNK         0.5000 
    108 O         -2.3067  -17.7916  -53.6981 O.2       19 UNK        -0.5000 
    109 N         -1.6234  -16.1042  -55.0509 N.am      20 UNK        -0.5000 
    110 CA        -0.3137  -16.6593  -55.4164 C.3       20 UNK         0.1400 
    111 CB         0.4718  -15.6050  -56.2101 C.3       20 UNK        -0.1800 
    112 C         -0.3907  -17.9865  -56.2020 C.2       20 UNK         0.5000 
    113 O          0.5499  -18.7785  -56.1468 O.2       20 UNK        -0.5000 
    114 N         -1.5232  -18.2233  -56.8821 N.am      21 UNK        -0.5000 
    115 CA        -1.8733  -19.4918  -57.5308 C.3       21 UNK         0.1400 
    116 CB        -3.0839  -19.2577  -58.4476 C.3       21 UNK        -0.1800 
    117 C         -2.1693  -20.6295  -56.5279 C.2       21 UNK         0.5000 
    118 O         -2.1421  -21.7992  -56.9097 O.2       21 UNK        -0.5000 
    119 N         -2.4357  -20.2636  -55.2684 N.am      22 UNK        -0.5000 
    120 CA        -2.6186  -21.1234  -54.0926 C.3       22 UNK         0.1400 
    121 C         -3.9607  -21.8987  -53.9907 C.2       22 UNK         0.5000 
    122 N         -4.8376  -21.8556  -54.9837 N.am      22 UNK        -0.7600 
    123 O         -4.2376  -22.4972  -52.9551 O.2       22 UNK        -0.5000 
    124 C124       -1.3697  -22.0019  -53.7803 C.3       23 UNK        -0.0398 
    125 S125       -0.6668  -21.6225  -52.1453 S.3       23 UNK        -0.2404 
    126 C126        0.2997  -20.1336  -52.5536 C.3       23 UNK        -0.0205 
    127 H127       -4.0243  -10.9657  -53.9878 H         1 UNK         0.0600 
    128 H128       -4.7633  -12.4493  -53.3812 H         1 UNK         0.0600 
    129 H129       -3.8095  -12.4832  -54.8668 H         1 UNK         0.0600 
    130 H130       -3.6535  -13.3305  -51.6393 H         1 UNK         0.3000 
    131 H131       -0.8838  -12.5632  -51.1246 H         1 UNK         0.0600 
    132 H132       -1.6933  -15.5273  -51.1069 H         1 UNK         0.0800 
    133 H133       -0.8199  -14.7838  -52.4142 H         1 UNK         0.0800 
    134 H134       -0.8557  -16.2873  -49.1232 H         1 UNK         0.0800 
    135 H135        0.6546  -15.9318  -48.3466 H         1 UNK         0.0800 
    136 H136       -0.4861  -17.7322  -51.4873 H         1 UNK         0.1150 
    137 H137        2.1975  -21.0112  -50.8328 H         1 UNK         0.1150 
    138 H138        2.0736  -17.7564  -48.0488 H         1 UNK         0.1150 
    139 H139        4.2171  -20.2072  -48.9831 H         1 UNK         0.0800 
    140 H140        3.4347  -19.5959  -47.5510 H         1 UNK         0.0800 
    141 H141        0.4810  -21.7030  -48.6253 H         1 UNK         0.0800 
    142 H142        0.7947  -20.7488  -47.1958 H         1 UNK         0.0800 
    143 H143        0.7348  -23.8061  -47.2454 H         1 UNK         0.0600 
    144 H144        1.4692  -21.9930  -45.1442 H         1 UNK         0.3000 
    145 H145        0.4968  -23.2239  -42.4915 H         1 UNK         0.0600 
    146 H146        2.3816  -24.4923  -41.4188 H         1 UNK         0.0600 
    147 H147        1.2763  -25.5290  -42.3061 H         1 UNK         0.0600 
    148 H148        2.8372  -25.1281  -43.0005 H         1 UNK         0.0600 
    149 H149        1.8184  -21.4836  -42.6378 H         1 UNK         0.3000 
    150 H150        5.1428  -20.8675  -43.1072 H         1 UNK         0.0600 
    151 H151        4.6917  -20.8192  -45.5686 H         1 UNK         0.0600 
    152 H152        4.6556  -19.2004  -44.8855 H         1 UNK         0.0600 
    153 H153        3.1466  -20.0264  -45.2698 H         1 UNK         0.0600 
    154 H154        2.8324  -19.1257  -43.0589 H         1 UNK         0.3000 
    155 H155        2.5191  -19.0814  -39.4977 H         1 UNK         0.0600 
    156 H156        4.2940  -17.4229  -40.0837 H         1 UNK         0.0600 
    157 H157        2.7194  -16.6540  -39.9498 H         1 UNK         0.0600 
    158 H158        3.4108  -16.9746  -41.5382 H         1 UNK         0.0600 
    159 H159        1.0399  -17.7442  -41.5193 H         1 UNK         0.3000 
    160 H160       -1.4297  -20.3012  -42.0237 H         1 UNK         0.0600 
    161 H161       -1.5001  -17.5149  -40.7545 H         1 UNK         0.0600 
    162 H162       -2.0556  -18.9962  -39.9835 H         1 UNK         0.0600 
    163 H163       -2.8741  -18.3969  -41.4177 H         1 UNK         0.0600 
    164 H164       -1.1401  -17.7298  -43.2018 H         1 UNK         0.3000 
    165 H165        0.8847  -18.7713  -45.9882 H         1 UNK         0.0600 
    166 H166       -1.0240  -17.7605  -47.2108 H         1 UNK         0.0600 
    167 H167       -1.4637  -19.3338  -46.5649 H         1 UNK         0.0600 
    168 H168       -2.0363  -17.8747  -45.7748 H         1 UNK         0.0600 
    169 H169       -0.1750  -16.2259  -45.3616 H         1 UNK         0.3000 
    170 H170        2.5188  -15.0988  -43.2791 H         1 UNK         0.0600 
    171 H171        3.2140  -14.7252  -45.6238 H         1 UNK         0.0600 
    172 H172        1.5550  -14.4170  -46.1115 H         1 UNK         0.0600 
    173 H173        2.3790  -13.3023  -45.0197 H         1 UNK         0.0600 
    174 H174        0.0161  -13.9686  -44.1624 H         1 UNK         0.3000 
    175 H175       -1.8921  -14.9320  -41.3016 H         1 UNK         0.0600 
    176 H176       -0.6118  -12.8962  -40.6199 H         1 UNK         0.0600 
    177 H177       -0.8046  -12.2187  -42.2324 H         1 UNK         0.0600 
    178 H178       -2.2141  -12.4774  -41.2042 H         1 UNK         0.0600 
    179 H179       -2.5159  -13.3697  -43.6156 H         1 UNK         0.3000 
    180 H180       -3.5257  -16.0297  -45.7409 H         1 UNK         0.0600 
    181 H181       -5.2819  -14.0733  -44.1652 H         1 UNK         0.0600 
    182 H182       -5.4790  -15.8215  -44.1993 H         1 UNK         0.0600 
    183 H183       -5.7203  -14.8886  -45.6673 H         1 UNK         0.0600 
    184 H184       -3.8316  -13.2328  -46.0086 H         1 UNK         0.3000 
    185 H185       -2.5896  -11.9651  -47.2238 H         1 UNK         0.0600 
    186 H186       -0.7744  -11.6424  -45.5157 H         1 UNK         0.0600 
    187 H187        0.3899  -12.3529  -46.6278 H         1 UNK         0.0600 
    188 H188       -0.4132  -10.8393  -47.0349 H         1 UNK         0.0600 
    189 H189       -0.3820  -12.6742  -48.9017 H         1 UNK         0.3000 
    190 H190       -1.0764  -21.6820  -45.0731 H         1 UNK         0.3000 
    191 H191       -3.6133  -21.8625  -46.4379 H         1 UNK         0.0600 
    192 H192       -2.9510  -21.1963  -43.5211 H         1 UNK         0.0600 
    193 H193       -4.4933  -20.9065  -44.3108 H         1 UNK         0.0600 
    194 H194       -3.0729  -20.0277  -44.8380 H         1 UNK         0.0600 
    195 H195       -1.8740  -24.2029  -44.6034 H         1 UNK         0.3000 
    196 H196       -4.3182  -25.8088  -44.0125 H         1 UNK         0.0600 
    197 H197       -2.7819  -27.2594  -42.7499 H         1 UNK         0.0600 
    198 H198       -2.6451  -25.6052  -42.1746 H         1 UNK         0.0600 
    199 H199       -1.3975  -26.2842  -43.2175 H         1 UNK         0.0600 
    200 H200       -1.2351  -25.7981  -45.8535 H         1 UNK         0.3000 
    201 H201       -1.5915  -28.3444  -47.0749 H         1 UNK         0.0600 
    202 H202        0.6146  -27.2088  -46.7774 H         1 UNK         0.0600 
    203 H203        0.1425  -25.9747  -47.9455 H         1 UNK         0.0600 
    204 H204        0.3398  -27.6444  -48.4582 H         1 UNK         0.0600 
    205 H205       -2.5733  -25.0709  -48.1004 H         1 UNK         0.3000 
    206 H206       -4.1855  -26.1506  -50.3137 H         1 UNK         0.0600 
    207 H207       -1.8584  -25.4805  -51.2118 H         1 UNK         0.0600 
    208 H208       -3.1927  -24.6066  -51.9264 H         1 UNK         0.0600 
    209 H209       -2.2028  -23.8350  -50.6865 H         1 UNK         0.0600 
    210 H210       -4.9920  -23.6109  -51.2989 H         1 UNK         0.3000 
    211 H211       -6.7311  -22.6932  -49.1016 H         1 UNK         0.0600 
    212 H212       -7.8167  -21.3476  -50.8577 H         1 UNK         0.0600 
    213 H213       -7.6981  -23.0241  -51.3680 H         1 UNK         0.0600 
    214 H214       -6.6012  -21.8178  -52.0351 H         1 UNK         0.0600 
    215 H215       -4.1906  -21.4439  -51.2489 H         1 UNK         0.3000 
    216 H216       -2.6827  -19.8119  -51.1447 H         1 UNK         0.0600 
    217 H217       -1.5281  -19.5117  -48.9973 H         1 UNK         0.0600 
    218 H218       -1.9632  -21.1938  -49.2234 H         1 UNK         0.0600 
    219 H219       -2.9085  -20.1852  -48.1292 H         1 UNK         0.0600 
    220 H220       -5.5746  -18.8803  -51.0099 H         1 UNK         0.3000 
    221 H221       -5.4458  -16.2511  -49.7674 H         1 UNK         0.0600 
    222 H222       -7.4466  -17.4715  -51.7480 H         1 UNK         0.0600 
    223 H223       -7.5820  -17.5126  -49.9893 H         1 UNK         0.0600 
    224 H224       -7.6772  -15.9803  -50.8428 H         1 UNK         0.0600 
    225 H225       -4.3096  -17.5521  -52.7320 H         1 UNK         0.3000 
    226 H226       -3.6088  -14.9146  -53.8093 H         1 UNK         0.0600 
    227 H227       -5.7019  -15.5884  -55.0415 H         1 UNK         0.0600 
    228 H228       -4.3038  -15.6359  -56.1014 H         1 UNK         0.0600 
    229 H229       -4.9642  -17.1347  -55.4541 H         1 UNK         0.0600 
    230 H230       -1.8567  -15.2115  -55.4615 H         1 UNK         0.3000 
    231 H231        0.2291  -16.8638  -54.4907 H         1 UNK         0.0600 
    232 H232        0.6082  -14.6936  -55.6274 H         1 UNK         0.0600 
    233 H233       -0.0358  -15.3392  -57.1381 H         1 UNK         0.0600 
    234 H234        1.4648  -15.9727  -56.4723 H         1 UNK         0.0600 
    235 H235       -2.2301  -17.5035  -56.8908 H         1 UNK         0.3000 
    236 H236       -1.0288  -19.8078  -58.1466 H         1 UNK         0.0600 
    237 H237       -3.3600  -20.1731  -58.9729 H         1 UNK         0.0600 
    238 H238       -3.9574  -18.9255  -57.8849 H         1 UNK         0.0600 
    239 H239       -2.8654  -18.5046  -59.2049 H         1 UNK         0.0600 
    240 H240       -2.4283  -19.2744  -55.0493 H         1 UNK         0.3000 
    241 H241       -2.7221  -20.3861  -53.3000 H         1 UNK         0.0600 
    242 H242       -5.7121  -22.3473  -54.8933 H         1 UNK         0.3800 
    243 H243       -4.6178  -21.3718  -55.8390 H         1 UNK         0.3800 
    244 H244       -1.6055  -23.0671  -53.8124 H         1 UNK         0.0800 
    245 H245       -0.5819  -21.8640  -54.5219 H         1 UNK         0.0800 
    246 H246        1.1452  -20.4095  -53.1853 H         1 UNK         0.0800 
    247 H247       -0.3123  -19.4483  -53.1407 H         1 UNK         0.0800 
@<TRIPOS>BOND
     1    1    2 1    
     2    1  127 1    
     3    1  128 1    
     4    1  129 1    
     5    2    3 2    
     6    2    4 am   BACKBONE|DICT|INTERRES
     7    4    5 1    
     8    4  130 1    
     9    5    6 1    
    10    5   65 1    
    11    5  131 1    
    12    6    7 1    
    13    6  132 1    
    14    6  133 1    
    15    7    8 1    
    16    8    9 1    
    17    8  134 1    
    18    8  135 1    
    19    9   10 ar   
    20    9   14 ar   
    21   10   11 ar   
    22   10  136 1    
    23   11   12 ar   
    24   11  126 1    
    25   12   13 ar   
    26   12  137 1    
    27   13   14 ar   
    28   13   15 1    
    29   14  138 1    
    30   15   16 1    
    31   15  139 1    
    32   15  140 1    
    33   16   17 1    
    34   17   18 1    
    35   17  141 1    
    36   17  142 1    
    37   18   19 1    
    38   18   67 1    
    39   18  143 1    
    40   19   20 am   BACKBONE|DICT|INTERRES
    41   19  144 1    
    42   20   21 2    
    43   20   22 1    
    44   22   23 1    
    45   22   24 1    
    46   22  145 1    
    47   23  146 1    
    48   23  147 1    
    49   23  148 1    
    50   24   25 am   BACKBONE|DICT|INTERRES
    51   24  149 1    
    52   25   26 2    
    53   25   27 1    
    54   27   28 1    
    55   27   29 1    
    56   27  150 1    
    57   28  151 1    
    58   28  152 1    
    59   28  153 1    
    60   29   30 am   BACKBONE|DICT|INTERRES
    61   29  154 1    
    62   30   31 2    
    63   30   32 1    
    64   32   33 1    
    65   32   34 1    
    66   32  155 1    
    67   33  156 1    
    68   33  157 1    
    69   33  158 1    
    70   34   35 am   BACKBONE|DICT|INTERRES
    71   34  159 1    
    72   35   36 2    
    73   35   37 1    
    74   37   38 1    
    75   37   39 1    
    76   37  160 1    
    77   38  161 1    
    78   38  162 1    
    79   38  163 1    
    80   39   40 am   BACKBONE|DICT|INTERRES
    81   39  164 1    
    82   40   41 2    
    83   40   42 1    
    84   42   43 1    
    85   42   44 1    
    86   42  165 1    
    87   43  166 1    
    88   43  167 1    
    89   43  168 1    
    90   44   45 am   BACKBONE|DICT|INTERRES
    91   44  169 1    
    92   45   46 2    
    93   45   47 1    
    94   47   48 1    
    95   47   49 1    
    96   47  170 1    
    97   48  171 1    
    98   48  172 1    
    99   48  173 1    
   100   49   50 am   BACKBONE|DICT|INTERRES
   101   49  174 1    
   102   50   51 2    
   103   50   52 1    
   104   52   53 1    
   105   52   54 1    
   106   52  175 1    
   107   53  176 1    
   108   53  177 1    
   109   53  178 1    
   110   54   55 am   BACKBONE|DICT|INTERRES
   111   54  179 1    
   112   55   56 2    
   113   55   57 1    
   114   57   58 1    
   115   57   59 1    
   116   57  180 1    
   117   58  181 1    
   118   58  182 1    
   119   58  183 1    
   120   59   60 am   BACKBONE|DICT|INTERRES
   121   59  184 1    
   122   60   61 2    
   123   60   62 1    
   124   62   63 1    
   125   62   64 1    
   126   62  185 1    
   127   63  186 1    
   128   63  187 1    
   129   63  188 1    
   130   64   65 am   BACKBONE|DICT|INTERRES
   131   64  189 1    
   132   65   66 2    
   133   67   68 2    
   134   67   69 am   BACKBONE|DICT|INTERRES
   135   69   70 1    
   136   69  190 1    
   137   70   71 1    
   138   70   72 1    
   139   70  191 1    
   140   71  192 1    
   141   71  193 1    
   142   71  194 1    
   143   72   73 2    
   144   72   74 am   BACKBONE|DICT|INTERRES
   145   74   75 1    
   146   74  195 1    
   147   75   76 1    
   148   75   77 1    
   149   75  196 1    
   150   76  197 1    
   151   76  198 1    
   152   76  199 1    
   153   77   78 2    
   154   77   79 am   BACKBONE|DICT|INTERRES
   155   79   80 1    
   156   79  200 1    
   157   80   81 1    
   158   80   82 1    
   159   80  201 1    
   160   81  202 1    
   161   81  203 1    
   162   81  204 1    
   163   82   83 2    
   164   82   84 am   BACKBONE|DICT|INTERRES
   165   84   85 1    
   166   84  205 1    
   167   85   86 1    
   168   85   87 1    
   169   85  206 1    
   170   86  207 1    
   171   86  208 1    
   172   86  209 1    
   173   87   88 2    
   174   87   89 am   BACKBONE|DICT|INTERRES
   175   89   90 1    
   176   89  210 1    
   177   90   91 1    
   178   90   92 1    
   179   90  211 1    
   180   91  212 1    
   181   91  213 1    
   182   91  214 1    
   183   92   93 2    
   184   92   94 am   BACKBONE|DICT|INTERRES
   185   94   95 1    
   186   94  215 1    
   187   95   96 1    
   188   95   97 1    
   189   95  216 1    
   190   96  217 1    
   191   96  218 1    
   192   96  219 1    
   193   97   98 2    
   194   97   99 am   BACKBONE|DICT|INTERRES
   195   99  100 1    
   196   99  220 1    
   197  100  101 1    
   198  100  102 1    
   199  100  221 1    
   200  101  222 1    
   201  101  223 1    
   202  101  224 1    
   203  102  103 2    
   204  102  104 am   BACKBONE|DICT|INTERRES
   205  104  105 1    
   206  104  225 1    
   207  105  106 1    
   208  105  107 1    
   209  105  226 1    
   210  106  227 1    
   211  106  228 1    
   212  106  229 1    
   213  107  108 2    
   214  107  109 am   BACKBONE|DICT|INTERRES
   215  109  110 1    
   216  109  230 1    
   217  110  111 1    
   218  110  112 1    
   219  110  231 1    
   220  111  232 1    
   221  111  233 1    
   222  111  234 1    
   223  112  113 2    
   224  112  114 am   BACKBONE|DICT|INTERRES
   225  114  115 1    
   226  114  235 1    
   227  115  116 1    
   228  115  117 1    
   229  115  236 1    
   230  116  237 1    
   231  116  238 1    
   232  116  239 1    
   233  117  118 2    
   234  117  119 am   BACKBONE|DICT|INTERRES
   235  119  120 1    
   236  119  240 1    
   237  120  121 1    
   238  120  124 1    
   239  120  241 1    
   240  121  122 am   BACKBONE|DICT|INTERRES
   241  121  123 2    
   242  122  242 1    
   243  122  243 1    
   244  124  125 1    
   245  124  244 1    
   246  124  245 1    
   247  125  126 1    
   248  126  246 1    
   249  126  247 1    
@<TRIPOS>SUBSTRUCTURE
     1 UNK         1 GROUP             0       ****    0 ROOT    
