@<TRIPOS>MOLECULE
3R540
247   249    1
SMALL
USER_CHARGES


@<TRIPOS>ATOM
      1 CA         -2.9708  -13.8689  -46.9896 C.3       0 UNK        -0.1800 
      2 C          -1.4785  -13.5741  -46.9975 C.2       0 UNK         0.5000 
      3 O          -0.9151  -13.2642  -45.9483 O.2       0 UNK        -0.5000 
      4 N          -0.8437  -13.6577  -48.1745 N.am      1 UNK        -0.5000 
      5 CA          0.5909  -13.4552  -48.4222 C.3       1 UNK         0.1400 
      6 C6          1.4889  -14.5567  -47.7907 C.3       23 UNK        -0.0398 
      7 S7          1.0591  -16.2231  -48.4002 S.3       23 UNK        -0.2404 
      8 C8          2.4132  -16.5228  -49.5717 C.3       23 UNK        -0.0205 
      9 C9          2.2334  -17.8563  -50.2763 C.ar      23 UNK        -0.0193 
     10 C10         1.6087  -17.9201  -51.5252 C.ar      23 UNK        -0.1150 
     11 C11         1.4568  -19.1449  -52.1829 C.ar      23 UNK        -0.0193 
     12 C12         1.9230  -20.3124  -51.5691 C.ar      23 UNK        -0.1150 
     13 C13         2.5274  -20.2658  -50.3092 C.ar      23 UNK        -0.0193 
     14 C14         2.6949  -19.0300  -49.6770 C.ar      23 UNK        -0.1150 
     15 C15         2.9978  -21.5559  -49.6446 C.3       23 UNK        -0.0205 
     16 S16         2.4862  -21.7020  -47.8989 S.3       23 UNK        -0.2404 
     17 C17         0.6791  -21.4654  -47.9983 C.3       23 UNK        -0.0398 
     18 CA         -0.0937  -22.5775  -47.2573 C.3       11 UNK         0.1400 
     19 N           0.1933  -22.5936  -45.8175 N.am      11 UNK        -0.5000 
     20 C          -0.2371  -23.5122  -44.9394 C.2       10 UNK         0.5000 
     21 O          -1.0407  -24.4046  -45.2160 O.2       10 UNK        -0.5000 
     22 CA          0.3039  -23.3950  -43.5080 C.3       10 UNK         0.1400 
     23 CB          1.7953  -23.7633  -43.4541 C.3       10 UNK        -0.1800 
     24 N           0.1159  -22.0355  -43.0106 N.am      10 UNK        -0.5000 
     25 C          -0.9473  -21.6307  -42.3033 C.2       9 UNK         0.5000 
     26 O          -1.8305  -22.3881  -41.8999 O.2       9 UNK        -0.5000 
     27 CA         -1.0602  -20.1215  -42.0060 C.3       9 UNK         0.1400 
     28 CB         -0.4691  -19.7937  -40.6264 C.3       9 UNK        -0.1800 
     29 N          -0.4217  -19.2671  -43.0085 N.am      9 UNK        -0.5000 
     30 C          -0.7810  -19.1895  -44.2972 C.2       8 UNK         0.5000 
     31 O          -1.6860  -19.8516  -44.7999 O.2       8 UNK        -0.5000 
     32 CA          0.0402  -18.2386  -45.1830 C.3       8 UNK         0.1400 
     33 CB         -0.4931  -16.8077  -45.0140 C.3       8 UNK        -0.1800 
     34 N           1.4827  -18.2454  -44.9182 N.am      8 UNK        -0.5000 
     35 C           2.2906  -19.3081  -44.7867 C.2       7 UNK         0.5000 
     36 O           1.8918  -20.4735  -44.8030 O.2       7 UNK        -0.5000 
     37 CA          3.7898  -19.0394  -44.5377 C.3       7 UNK         0.1400 
     38 CB          4.6088  -19.1954  -45.8327 C.3       7 UNK        -0.1800 
     39 N           4.0778  -17.7641  -43.8632 N.am      7 UNK        -0.5000 
     40 C           3.9612  -16.5158  -44.3359 C.2       6 UNK         0.5000 
     41 O           3.5763  -16.2424  -45.4731 O.2       6 UNK        -0.5000 
     42 CA          4.2005  -15.3912  -43.3150 C.3       6 UNK         0.1400 
     43 CB          4.5185  -14.0460  -43.9910 C.3       6 UNK        -0.1800 
     44 N           2.9981  -15.2313  -42.5037 N.am      6 UNK        -0.5000 
     45 C           2.6274  -15.9956  -41.4708 C.2       5 UNK         0.5000 
     46 O           3.3383  -16.8952  -41.0188 O.2       5 UNK        -0.5000 
     47 CA          1.2270  -15.7289  -40.8610 C.3       5 UNK         0.1400 
     48 CB          1.0982  -16.2823  -39.4304 C.3       5 UNK        -0.1800 
     49 N           0.8121  -14.3185  -40.8575 N.am      5 UNK        -0.5000 
     50 C           0.4676  -13.5956  -41.9301 C.2       4 UNK         0.5000 
     51 O           0.5118  -14.0351  -43.0823 O.2       4 UNK        -0.5000 
     52 CA          0.0585  -12.1350  -41.6881 C.3       4 UNK         0.1400 
     53 CB          1.2658  -11.2941  -41.2283 C.3       4 UNK        -0.1800 
     54 N          -0.4598  -11.6155  -42.9461 N.am      4 UNK        -0.5000 
     55 C          -1.1498  -10.4885  -43.1464 C.2       3 UNK         0.5000 
     56 O          -1.5006   -9.7252  -42.2447 O.2       3 UNK        -0.5000 
     57 CA         -1.4738  -10.1763  -44.6217 C.3       3 UNK         0.1400 
     58 CB         -2.0177   -8.7511  -44.8566 C.3       3 UNK        -0.1800 
     59 N          -0.3239  -10.4834  -45.4816 N.am      3 UNK        -0.5000 
     60 C           0.8615   -9.8543  -45.5266 C.2       2 UNK         0.5000 
     61 O           1.0916   -8.7843  -44.9623 O.2       2 UNK        -0.5000 
     62 CA          2.0084  -10.5535  -46.2906 C.3       2 UNK         0.1400 
     63 CB          3.2088  -10.7863  -45.3571 C.3       2 UNK        -0.1800 
     64 N           1.6191  -11.8449  -46.8625 N.am      2 UNK        -0.5000 
     65 C           1.0129  -12.0169  -48.0447 C.2       1 UNK         0.5000 
     66 O           0.7528  -11.0923  -48.8161 O.2       1 UNK        -0.5000 
     67 C          -1.5951  -22.5051  -47.5940 C.2       11 UNK         0.5000 
     68 O          -1.9897  -23.0144  -48.6445 O.2       11 UNK        -0.5000 
     69 N          -2.4122  -21.9296  -46.6991 N.am      12 UNK        -0.5000 
     70 CA         -3.8744  -21.9081  -46.7759 C.3       12 UNK         0.1400 
     71 CB         -4.4469  -21.2408  -45.5159 C.3       12 UNK        -0.1800 
     72 C          -4.5049  -23.2985  -46.9707 C.2       12 UNK         0.5000 
     73 O          -5.4510  -23.4229  -47.7483 O.2       12 UNK        -0.5000 
     74 N          -3.9397  -24.3062  -46.2939 N.am      13 UNK        -0.5000 
     75 CA         -4.3432  -25.7048  -46.3951 C.3       13 UNK         0.1400 
     76 CB         -4.4285  -26.3038  -44.9824 C.3       13 UNK        -0.1800 
     77 C          -3.3601  -26.5101  -47.2593 C.2       13 UNK         0.5000 
     78 O          -3.8007  -27.3061  -48.0882 O.2       13 UNK        -0.5000 
     79 N          -2.0514  -26.3042  -47.0494 N.am      14 UNK        -0.5000 
     80 CA         -0.9835  -27.1105  -47.6455 C.3       14 UNK         0.1400 
     81 CB          0.3308  -26.8519  -46.8923 C.3       14 UNK        -0.1800 
     82 C          -0.7894  -26.8819  -49.1541 C.2       14 UNK         0.5000 
     83 O          -0.4295  -27.8253  -49.8595 O.2       14 UNK        -0.5000 
     84 N          -1.0218  -25.6478  -49.6179 N.am      15 UNK        -0.5000 
     85 CA         -0.8732  -25.2451  -51.0183 C.3       15 UNK         0.1400 
     86 CB          0.1694  -24.1162  -51.0973 C.3       15 UNK        -0.1800 
     87 C          -2.2094  -24.7964  -51.6365 C.2       15 UNK         0.5000 
     88 O          -2.2346  -24.4811  -52.8245 O.2       15 UNK        -0.5000 
     89 N          -3.2823  -24.7561  -50.8308 N.am      16 UNK        -0.5000 
     90 CA         -4.6139  -24.2343  -51.1559 C.3       16 UNK         0.1400 
     91 CB         -5.3026  -25.0907  -52.2375 C.3       16 UNK        -0.1800 
     92 C          -4.5993  -22.7248  -51.4830 C.2       16 UNK         0.5000 
     93 O          -5.3561  -22.2592  -52.3400 O.2       16 UNK        -0.5000 
     94 N          -3.7504  -21.9676  -50.7700 N.am      17 UNK        -0.5000 
     95 CA         -3.6073  -20.5168  -50.9239 C.3       17 UNK         0.1400 
     96 CB         -2.3766  -20.0288  -50.1449 C.3       17 UNK        -0.1800 
     97 C          -4.8648  -19.7273  -50.5122 C.2       17 UNK         0.5000 
     98 O          -5.0779  -18.6297  -51.0247 O.2       17 UNK        -0.5000 
     99 N          -5.7064  -20.3140  -49.6475 N.am      18 UNK        -0.5000 
    100 CA        -7.0001  -19.7610  -49.2358 C.3       18 UNK         0.1400 
    101 CB        -7.5309  -20.5588  -48.0366 C.3       18 UNK        -0.1800 
    102 C         -8.0390  -19.7444  -50.3745 C.2       18 UNK         0.5000 
    103 O         -8.9220  -18.8865  -50.3779 O.2       18 UNK        -0.5000 
    104 N         -7.8961  -20.6715  -51.3311 N.am      19 UNK        -0.5000 
    105 CA        -8.6847  -20.7371  -52.5620 C.3       19 UNK         0.1400 
    106 CB        -8.8746  -22.2175  -52.9352 C.3       19 UNK        -0.1800 
    107 C         -8.0147  -19.9693  -53.7205 C.2       19 UNK         0.5000 
    108 O         -8.5760  -19.9317  -54.8159 O.2       19 UNK        -0.5000 
    109 N         -6.8183  -19.4084  -53.4736 N.am      20 UNK        -0.5000 
    110 CA        -5.9040  -18.7789  -54.4335 C.3       20 UNK         0.1400 
    111 CB        -6.5131  -17.4837  -55.0092 C.3       20 UNK        -0.1800 
    112 C         -5.4163  -19.7568  -55.5254 C.2       20 UNK         0.5000 
    113 O         -5.1091  -19.3335  -56.6409 O.2       20 UNK        -0.5000 
    114 N         -5.3590  -21.0514  -55.1842 N.am      21 UNK        -0.5000 
    115 CA        -5.0134  -22.1439  -56.0936 C.3       21 UNK         0.1400 
    116 CB        -5.9236  -23.3400  -55.7715 C.3       21 UNK        -0.1800 
    117 C         -3.5248  -22.5357  -56.0183 C.2       21 UNK         0.5000 
    118 O         -3.1011  -23.4253  -56.7585 O.2       21 UNK        -0.5000 
    119 N         -2.7622  -21.8844  -55.1312 N.am      22 UNK        -0.5000 
    120 CA        -1.3232  -22.0992  -54.9370 C.3       22 UNK         0.1400 
    121 C         -0.4426  -21.6697  -56.1480 C.2       22 UNK         0.5000 
    122 N          0.7651  -22.2076  -56.2604 N.am      22 UNK        -0.7600 
    123 O         -0.8240  -20.8388  -56.9700 O.2       22 UNK        -0.5000 
    124 C124       -0.8378  -21.4841  -53.5987 C.3       23 UNK        -0.0398 
    125 S125       -0.9412  -19.6603  -53.5062 S.3       23 UNK        -0.2404 
    126 C126        0.8193  -19.1923  -53.5663 C.3       23 UNK        -0.0205 
    127 H127       -3.1825  -14.6999  -46.3166 H         1 UNK         0.0600 
    128 H128       -3.3384  -14.1318  -47.9817 H         1 UNK         0.0600 
    129 H129       -3.5229  -12.9964  -46.6404 H         1 UNK         0.0600 
    130 H130       -1.3814  -13.8932  -48.9963 H         1 UNK         0.3000 
    131 H131        0.7179  -13.5229  -49.5040 H         1 UNK         0.0600 
    132 H132        1.3977  -14.5667  -46.7042 H         1 UNK         0.0800 
    133 H133        2.5422  -14.3617  -47.9998 H         1 UNK         0.0800 
    134 H134        3.3645  -16.5100  -49.0370 H         1 UNK         0.0800 
    135 H135        2.4525  -15.7120  -50.3008 H         1 UNK         0.0800 
    136 H136        1.2489  -17.0128  -51.9899 H         1 UNK         0.1150 
    137 H137        1.8215  -21.2626  -52.0702 H         1 UNK         0.1150 
    138 H138        3.1696  -18.9824  -48.7075 H         1 UNK         0.1150 
    139 H139        2.6270  -22.4268  -50.1865 H         1 UNK         0.0800 
    140 H140        4.0862  -21.6001  -49.6965 H         1 UNK         0.0800 
    141 H141        0.3870  -21.4359  -49.0488 H         1 UNK         0.0800 
    142 H142        0.4360  -20.4844  -47.5878 H         1 UNK         0.0800 
    143 H143        0.2530  -23.5338  -47.6528 H         1 UNK         0.0600 
    144 H144        0.8477  -21.8848  -45.4948 H         1 UNK         0.3000 
    145 H145       -0.2385  -24.1065  -42.8818 H         1 UNK         0.0600 
    146 H146        2.1697  -23.7303  -42.4310 H         1 UNK         0.0600 
    147 H147        1.9600  -24.7744  -43.8286 H         1 UNK         0.0600 
    148 H148        2.4065  -23.0878  -44.0540 H         1 UNK         0.0600 
    149 H149        0.7647  -21.3377  -43.3578 H         1 UNK         0.3000 
    150 H150       -2.1236  -19.8737  -41.9901 H         1 UNK         0.0600 
    151 H151       -0.9268  -20.4066  -39.8487 H         1 UNK         0.0600 
    152 H152       -0.6451  -18.7513  -40.3605 H         1 UNK         0.0600 
    153 H153        0.6064  -19.9731  -40.5958 H         1 UNK         0.0600 
    154 H154        0.3592  -18.7096  -42.6988 H         1 UNK         0.3000 
    155 H155       -0.0996  -18.5400  -46.2223 H         1 UNK         0.0600 
    156 H156        0.0445  -16.1017  -45.6423 H         1 UNK         0.0600 
    157 H157       -0.4024  -16.4618  -43.9840 H         1 UNK         0.0600 
    158 H158       -1.5466  -16.7462  -45.2893 H         1 UNK         0.0600 
    159 H159        1.9429  -17.3437  -44.9632 H         1 UNK         0.3000 
    160 H160        4.1253  -19.8146  -43.8471 H         1 UNK         0.0600 
    161 H161        4.2830  -18.5029  -46.6089 H         1 UNK         0.0600 
    162 H162        4.5074  -20.2036  -46.2348 H         1 UNK         0.0600 
    163 H163        5.6699  -19.0245  -45.6527 H         1 UNK         0.0600 
    164 H164        4.3012  -17.8508  -42.8788 H         1 UNK         0.3000 
    165 H165        5.0442  -15.6649  -42.6780 H         1 UNK         0.0600 
    166 H166        3.7016  -13.7146  -44.6330 H         1 UNK         0.0600 
    167 H167        4.6996  -13.2658  -43.2515 H         1 UNK         0.0600 
    168 H168        5.4126  -14.1229  -44.6107 H         1 UNK         0.0600 
    169 H169        2.2972  -14.5896  -42.8621 H         1 UNK         0.3000 
    170 H170        0.5187  -16.2777  -41.4850 H         1 UNK         0.0600 
    171 H171        0.0866  -16.1507  -39.0457 H         1 UNK         0.0600 
    172 H172        1.3153  -17.3508  -39.3963 H         1 UNK         0.0600 
    173 H173        1.7863  -15.7852  -38.7457 H         1 UNK         0.0600 
    174 H174        0.7923  -13.8718  -39.9519 H         1 UNK         0.3000 
    175 H175       -0.7302  -12.1103  -40.9339 H         1 UNK         0.0600 
    176 H176        2.0673  -11.3072  -41.9682 H         1 UNK         0.0600 
    177 H177        0.9868  -10.2540  -41.0598 H         1 UNK         0.0600 
    178 H178        1.6772  -11.6694  -40.2909 H         1 UNK         0.0600 
    179 H179       -0.2735  -12.2284  -43.7340 H         1 UNK         0.3000 
    180 H180       -2.2604  -10.8741  -44.9123 H         1 UNK         0.0600 
    181 H181       -1.3353   -7.9842  -44.4904 H         1 UNK         0.0600 
    182 H182       -2.9670   -8.6108  -44.3385 H         1 UNK         0.0600 
    183 H183       -2.1955   -8.5665  -45.9160 H         1 UNK         0.0600 
    184 H184       -0.3803  -11.3893  -45.9367 H         1 UNK         0.3000 
    185 H185        2.3245   -9.8843  -47.0934 H         1 UNK         0.0600 
    186 H186        2.9318  -11.3902  -44.4922 H         1 UNK         0.0600 
    187 H187        4.0237  -11.2918  -45.8758 H         1 UNK         0.0600 
    188 H188        3.6034   -9.8414  -44.9817 H         1 UNK         0.0600 
    189 H189        1.7370  -12.6477  -46.2615 H         1 UNK         0.3000 
    190 H190       -2.0054  -21.4663  -45.8917 H         1 UNK         0.3000 
    191 H191       -4.1475  -21.3000  -47.6372 H         1 UNK         0.0600 
    192 H192       -4.0353  -21.6807  -44.6065 H         1 UNK         0.0600 
    193 H193       -5.5311  -21.3441  -45.4637 H         1 UNK         0.0600 
    194 H194       -4.2255  -20.1738  -45.5029 H         1 UNK         0.0600 
    195 H195       -3.1276  -24.1088  -45.7214 H         1 UNK         0.3000 
    196 H196       -5.3320  -25.7836  -46.8523 H         1 UNK         0.0600 
    197 H197       -4.7214  -27.3539  -45.0196 H         1 UNK         0.0600 
    198 H198       -5.1708  -25.7807  -44.3793 H         1 UNK         0.0600 
    199 H199       -3.4729  -26.2461  -44.4593 H         1 UNK         0.0600 
    200 H200       -1.7594  -25.6291  -46.3460 H         1 UNK         0.3000 
    201 H201       -1.2450  -28.1618  -47.5065 H         1 UNK         0.0600 
    202 H202        0.2240  -27.0606  -45.8276 H         1 UNK         0.0600 
    203 H203        0.6623  -25.8191  -46.9992 H         1 UNK         0.0600 
    204 H204        1.1294  -27.4917  -47.2700 H         1 UNK         0.0600 
    205 H205       -1.3279  -24.9233  -48.9793 H         1 UNK         0.3000 
    206 H206       -0.5126  -26.0783  -51.6244 H         1 UNK         0.0600 
    207 H207        1.0971  -24.4004  -50.6008 H         1 UNK         0.0600 
    208 H208        0.4158  -23.8893  -52.1344 H         1 UNK         0.0600 
    209 H209       -0.1912  -23.1965  -50.6369 H         1 UNK         0.0600 
    210 H210       -3.1506  -25.0438  -49.8727 H         1 UNK         0.3000 
    211 H211       -5.2074  -24.3328  -50.2469 H         1 UNK         0.0600 
    212 H212       -4.7712  -25.0517  -53.1879 H         1 UNK         0.0600 
    213 H213       -6.3236  -24.7520  -52.4169 H         1 UNK         0.0600 
    214 H214       -5.3585  -26.1352  -51.9313 H         1 UNK         0.0600 
    215 H215       -3.1498  -22.4174  -50.0846 H         1 UNK         0.3000 
    216 H216       -3.4380  -20.3171  -51.9833 H         1 UNK         0.0600 
    217 H217       -1.4832  -20.5860  -50.4266 H         1 UNK         0.0600 
    218 H218       -2.5127  -20.1235  -49.0684 H         1 UNK         0.0600 
    219 H219       -2.1776  -18.9772  -50.3553 H         1 UNK         0.0600 
    220 H220       -5.4773  -21.2341  -49.3006 H         1 UNK         0.3000 
    221 H221       -6.8442  -18.7279  -48.9177 H         1 UNK         0.0600 
    222 H222       -7.6497  -21.6166  -48.2750 H         1 UNK         0.0600 
    223 H223       -6.8573  -20.4780  -47.1853 H         1 UNK         0.0600 
    224 H224       -8.5029  -20.1829  -47.7144 H         1 UNK         0.0600 
    225 H225       -7.1256  -21.3240  -51.2684 H         1 UNK         0.3000 
    226 H226       -9.6702  -20.2962  -52.3988 H         1 UNK         0.0600 
    227 H227       -9.3524  -22.7703  -52.1263 H         1 UNK         0.0600 
    228 H228       -9.5087  -22.3219  -53.8165 H         1 UNK         0.0600 
    229 H229       -7.9240  -22.7034  -53.1578 H         1 UNK         0.0600 
    230 H230       -6.4662  -19.4606  -52.5269 H         1 UNK         0.3000 
    231 H231       -5.0158  -18.4981  -53.8657 H         1 UNK         0.0600 
    232 H232       -5.7785  -16.9354  -55.5999 H         1 UNK         0.0600 
    233 H233       -6.8482  -16.8189  -54.2131 H         1 UNK         0.0600 
    234 H234       -7.3654  -17.6883  -55.6576 H         1 UNK         0.0600 
    235 H235       -5.5913  -21.3224  -54.2346 H         1 UNK         0.3000 
    236 H236       -5.2114  -21.8447  -57.1249 H         1 UNK         0.0600 
    237 H237       -6.9736  -23.0816  -55.9103 H         1 UNK         0.0600 
    238 H238       -5.7095  -24.1893  -56.4214 H         1 UNK         0.0600 
    239 H239       -5.7976  -23.6707  -54.7420 H         1 UNK         0.0600 
    240 H240       -3.1814  -21.1445  -54.5909 H         1 UNK         0.3000 
    241 H241       -1.1943  -23.1796  -54.8517 H         1 UNK         0.0600 
    242 H242        1.1036  -22.9006  -55.6114 H         1 UNK         0.3800 
    243 H243        1.3493  -21.9331  -57.0351 H         1 UNK         0.3800 
    244 H244       -1.4287  -21.8885  -52.7766 H         1 UNK         0.0800 
    245 H245        0.1815  -21.8098  -53.4038 H         1 UNK         0.0800 
    246 H246        0.8951  -18.2128  -54.0408 H         1 UNK         0.0800 
    247 H247        1.3715  -19.8760  -54.2126 H         1 UNK         0.0800 
@<TRIPOS>BOND
     1    1    2 1    
     2    1  127 1    
     3    1  128 1    
     4    1  129 1    
     5    2    3 2    
     6    2    4 am   BACKBONE|DICT|INTERRES
     7    4    5 1    
     8    4  130 1    
     9    5    6 1    
    10    5   65 1    
    11    5  131 1    
    12    6    7 1    
    13    6  132 1    
    14    6  133 1    
    15    7    8 1    
    16    8    9 1    
    17    8  134 1    
    18    8  135 1    
    19    9   10 ar   
    20    9   14 ar   
    21   10   11 ar   
    22   10  136 1    
    23   11   12 ar   
    24   11  126 1    
    25   12   13 ar   
    26   12  137 1    
    27   13   14 ar   
    28   13   15 1    
    29   14  138 1    
    30   15   16 1    
    31   15  139 1    
    32   15  140 1    
    33   16   17 1    
    34   17   18 1    
    35   17  141 1    
    36   17  142 1    
    37   18   19 1    
    38   18   67 1    
    39   18  143 1    
    40   19   20 am   BACKBONE|DICT|INTERRES
    41   19  144 1    
    42   20   21 2    
    43   20   22 1    
    44   22   23 1    
    45   22   24 1    
    46   22  145 1    
    47   23  146 1    
    48   23  147 1    
    49   23  148 1    
    50   24   25 am   BACKBONE|DICT|INTERRES
    51   24  149 1    
    52   25   26 2    
    53   25   27 1    
    54   27   28 1    
    55   27   29 1    
    56   27  150 1    
    57   28  151 1    
    58   28  152 1    
    59   28  153 1    
    60   29   30 am   BACKBONE|DICT|INTERRES
    61   29  154 1    
    62   30   31 2    
    63   30   32 1    
    64   32   33 1    
    65   32   34 1    
    66   32  155 1    
    67   33  156 1    
    68   33  157 1    
    69   33  158 1    
    70   34   35 am   BACKBONE|DICT|INTERRES
    71   34  159 1    
    72   35   36 2    
    73   35   37 1    
    74   37   38 1    
    75   37   39 1    
    76   37  160 1    
    77   38  161 1    
    78   38  162 1    
    79   38  163 1    
    80   39   40 am   BACKBONE|DICT|INTERRES
    81   39  164 1    
    82   40   41 2    
    83   40   42 1    
    84   42   43 1    
    85   42   44 1    
    86   42  165 1    
    87   43  166 1    
    88   43  167 1    
    89   43  168 1    
    90   44   45 am   BACKBONE|DICT|INTERRES
    91   44  169 1    
    92   45   46 2    
    93   45   47 1    
    94   47   48 1    
    95   47   49 1    
    96   47  170 1    
    97   48  171 1    
    98   48  172 1    
    99   48  173 1    
   100   49   50 am   BACKBONE|DICT|INTERRES
   101   49  174 1    
   102   50   51 2    
   103   50   52 1    
   104   52   53 1    
   105   52   54 1    
   106   52  175 1    
   107   53  176 1    
   108   53  177 1    
   109   53  178 1    
   110   54   55 am   BACKBONE|DICT|INTERRES
   111   54  179 1    
   112   55   56 2    
   113   55   57 1    
   114   57   58 1    
   115   57   59 1    
   116   57  180 1    
   117   58  181 1    
   118   58  182 1    
   119   58  183 1    
   120   59   60 am   BACKBONE|DICT|INTERRES
   121   59  184 1    
   122   60   61 2    
   123   60   62 1    
   124   62   63 1    
   125   62   64 1    
   126   62  185 1    
   127   63  186 1    
   128   63  187 1    
   129   63  188 1    
   130   64   65 am   BACKBONE|DICT|INTERRES
   131   64  189 1    
   132   65   66 2    
   133   67   68 2    
   134   67   69 am   BACKBONE|DICT|INTERRES
   135   69   70 1    
   136   69  190 1    
   137   70   71 1    
   138   70   72 1    
   139   70  191 1    
   140   71  192 1    
   141   71  193 1    
   142   71  194 1    
   143   72   73 2    
   144   72   74 am   BACKBONE|DICT|INTERRES
   145   74   75 1    
   146   74  195 1    
   147   75   76 1    
   148   75   77 1    
   149   75  196 1    
   150   76  197 1    
   151   76  198 1    
   152   76  199 1    
   153   77   78 2    
   154   77   79 am   BACKBONE|DICT|INTERRES
   155   79   80 1    
   156   79  200 1    
   157   80   81 1    
   158   80   82 1    
   159   80  201 1    
   160   81  202 1    
   161   81  203 1    
   162   81  204 1    
   163   82   83 2    
   164   82   84 am   BACKBONE|DICT|INTERRES
   165   84   85 1    
   166   84  205 1    
   167   85   86 1    
   168   85   87 1    
   169   85  206 1    
   170   86  207 1    
   171   86  208 1    
   172   86  209 1    
   173   87   88 2    
   174   87   89 am   BACKBONE|DICT|INTERRES
   175   89   90 1    
   176   89  210 1    
   177   90   91 1    
   178   90   92 1    
   179   90  211 1    
   180   91  212 1    
   181   91  213 1    
   182   91  214 1    
   183   92   93 2    
   184   92   94 am   BACKBONE|DICT|INTERRES
   185   94   95 1    
   186   94  215 1    
   187   95   96 1    
   188   95   97 1    
   189   95  216 1    
   190   96  217 1    
   191   96  218 1    
   192   96  219 1    
   193   97   98 2    
   194   97   99 am   BACKBONE|DICT|INTERRES
   195   99  100 1    
   196   99  220 1    
   197  100  101 1    
   198  100  102 1    
   199  100  221 1    
   200  101  222 1    
   201  101  223 1    
   202  101  224 1    
   203  102  103 2    
   204  102  104 am   BACKBONE|DICT|INTERRES
   205  104  105 1    
   206  104  225 1    
   207  105  106 1    
   208  105  107 1    
   209  105  226 1    
   210  106  227 1    
   211  106  228 1    
   212  106  229 1    
   213  107  108 2    
   214  107  109 am   BACKBONE|DICT|INTERRES
   215  109  110 1    
   216  109  230 1    
   217  110  111 1    
   218  110  112 1    
   219  110  231 1    
   220  111  232 1    
   221  111  233 1    
   222  111  234 1    
   223  112  113 2    
   224  112  114 am   BACKBONE|DICT|INTERRES
   225  114  115 1    
   226  114  235 1    
   227  115  116 1    
   228  115  117 1    
   229  115  236 1    
   230  116  237 1    
   231  116  238 1    
   232  116  239 1    
   233  117  118 2    
   234  117  119 am   BACKBONE|DICT|INTERRES
   235  119  120 1    
   236  119  240 1    
   237  120  121 1    
   238  120  124 1    
   239  120  241 1    
   240  121  122 am   BACKBONE|DICT|INTERRES
   241  121  123 2    
   242  122  242 1    
   243  122  243 1    
   244  124  125 1    
   245  124  244 1    
   246  124  245 1    
   247  125  126 1    
   248  126  246 1    
   249  126  247 1    
@<TRIPOS>SUBSTRUCTURE
     1 UNK         1 GROUP             0       ****    0 ROOT    
