@<TRIPOS>MOLECULE
3R540
247   249    1
SMALL
USER_CHARGES


@<TRIPOS>ATOM
      1 CA          1.8456  -12.0994  -49.5064 C.3       0 UNK        -0.1800 
      2 C           1.3740  -13.4077  -48.8761 C.2       0 UNK         0.5000 
      3 O           0.2230  -13.7873  -49.0697 O.2       0 UNK        -0.5000 
      4 N           2.2162  -14.1312  -48.1278 N.am      1 UNK        -0.5000 
      5 CA          3.6154  -13.8090  -47.8186 C.3       1 UNK         0.1400 
      6 C6          4.4739  -15.0801  -47.6064 C.3       23 UNK        -0.0398 
      7 S7          4.3862  -16.2109  -49.0419 S.3       23 UNK        -0.2404 
      8 C8          3.2527  -17.4902  -48.4154 C.3       23 UNK        -0.0205 
      9 C9          2.3151  -18.0038  -49.4971 C.ar      23 UNK        -0.0193 
     10 C10         1.0962  -17.3607  -49.7421 C.ar      23 UNK        -0.1150 
     11 C11         0.2285  -17.8373  -50.7302 C.ar      23 UNK        -0.0193 
     12 C12         0.5835  -18.9699  -51.4637 C.ar      23 UNK        -0.1150 
     13 C13         1.7851  -19.6344  -51.2130 C.ar      23 UNK        -0.0193 
     14 C14         2.6528  -19.1414  -50.2354 C.ar      23 UNK        -0.1150 
     15 C15         2.1448  -20.8826  -52.0011 C.3       23 UNK        -0.0205 
     16 S16         1.8162  -22.3996  -51.0513 S.3       23 UNK        -0.2404 
     17 C17        -0.0067  -22.4156  -50.9554 C.3       23 UNK        -0.0398 
     18 CA         -0.5107  -22.5653  -49.5026 C.3       11 UNK         0.1400 
     19 N          -0.1143  -21.4570  -48.6253 N.am      11 UNK        -0.5000 
     20 C          -0.0715  -21.5638  -47.2899 C.2       10 UNK         0.5000 
     21 O          -0.3876  -22.5855  -46.6808 O.2       10 UNK        -0.5000 
     22 CA          0.3554  -20.3153  -46.4989 C.3       10 UNK         0.1400 
     23 CB          1.8785  -20.1417  -46.5875 C.3       10 UNK        -0.1800 
     24 N          -0.3265  -19.0771  -46.9017 N.am      10 UNK        -0.5000 
     25 C          -1.6585  -18.9084  -46.9073 C.2       9 UNK         0.5000 
     26 O          -2.4570  -19.8227  -46.6990 O.2       9 UNK        -0.5000 
     27 CA         -2.1732  -17.4753  -47.1268 C.3       9 UNK         0.1400 
     28 CB         -3.7141  -17.3873  -47.1741 C.3       9 UNK        -0.1800 
     29 N          -1.6396  -16.6200  -46.0722 N.am      9 UNK        -0.5000 
     30 C          -1.5911  -15.2805  -46.1062 C.2       8 UNK         0.5000 
     31 O          -2.0895  -14.6027  -47.0038 O.2       8 UNK        -0.5000 
     32 CA         -0.8573  -14.5650  -44.9511 C.3       8 UNK         0.1400 
     33 CB         -1.8577  -13.8977  -43.9965 C.3       8 UNK        -0.1800 
     34 N           0.0166  -15.4499  -44.1785 N.am      8 UNK        -0.5000 
     35 C           1.1324  -16.0214  -44.6478 C.2       7 UNK         0.5000 
     36 O           1.5962  -15.7635  -45.7580 O.2       7 UNK        -0.5000 
     37 CA          1.8498  -17.0483  -43.7521 C.3       7 UNK         0.1400 
     38 CB          3.2694  -16.5773  -43.4093 C.3       7 UNK        -0.1800 
     39 N           1.1242  -17.3582  -42.5194 N.am      7 UNK        -0.5000 
     40 C           0.0554  -18.1637  -42.4410 C.2       6 UNK         0.5000 
     41 O          -0.4527  -18.7156  -43.4165 O.2       6 UNK        -0.5000 
     42 CA         -0.5613  -18.3567  -41.0428 C.3       6 UNK         0.1400 
     43 CB          0.0810  -19.5594  -40.3358 C.3       6 UNK        -0.1800 
     44 N          -0.4182  -17.1674  -40.1983 N.am      6 UNK        -0.5000 
     45 C          -1.1320  -16.0437  -40.3564 C.2       5 UNK         0.5000 
     46 O          -2.0179  -15.9131  -41.2002 O.2       5 UNK        -0.5000 
     47 CA         -0.7645  -14.8532  -39.4484 C.3       5 UNK         0.1400 
     48 CB         -1.4926  -14.9562  -38.0997 C.3       5 UNK        -0.1800 
     49 N           0.6779  -14.7161  -39.2143 N.am      5 UNK        -0.5000 
     50 C           1.5818  -14.4917  -40.1762 C.2       4 UNK         0.5000 
     51 O           1.2933  -14.3993  -41.3746 O.2       4 UNK        -0.5000 
     52 CA          3.0530  -14.3883  -39.7413 C.3       4 UNK         0.1400 
     53 CB          3.5828  -15.7453  -39.2402 C.3       4 UNK        -0.1800 
     54 N           3.8035  -13.9643  -40.9127 N.am      4 UNK        -0.5000 
     55 C           5.0396  -13.4658  -40.9865 C.2       3 UNK         0.5000 
     56 O           5.7676  -13.2865  -40.0097 O.2       3 UNK        -0.5000 
     57 CA          5.5484  -13.1160  -42.4036 C.3       3 UNK         0.1400 
     58 CB          6.5677  -14.1629  -42.8797 C.3       3 UNK        -0.1800 
     59 N           4.4734  -13.0271  -43.4005 N.am      3 UNK        -0.5000 
     60 C           3.5846  -12.0272  -43.4814 C.2       2 UNK         0.5000 
     61 O           3.6222  -11.0323  -42.7559 O.2       2 UNK        -0.5000 
     62 CA          2.4420  -12.1899  -44.5076 C.3       2 UNK         0.1400 
     63 CB          1.8811  -10.8388  -44.9963 C.3       2 UNK        -0.1800 
     64 N           2.7533  -13.0556  -45.6523 N.am      2 UNK        -0.5000 
     65 C           3.6894  -12.8703  -46.5967 C.2       1 UNK         0.5000 
     66 O           4.5431  -11.9847  -46.5614 O.2       1 UNK        -0.5000 
     67 C          -2.0289  -22.8329  -49.4680 C.2       11 UNK         0.5000 
     68 O          -2.4435  -23.9287  -49.8473 O.2       11 UNK        -0.5000 
     69 N          -2.8323  -21.8685  -48.9981 N.am      12 UNK        -0.5000 
     70 CA         -4.2569  -22.0667  -48.7410 C.3       12 UNK         0.1400 
     71 CB         -4.9912  -20.7209  -48.7462 C.3       12 UNK        -0.1800 
     72 C          -4.4685  -22.8062  -47.4120 C.2       12 UNK         0.5000 
     73 O          -5.2417  -23.7618  -47.3693 O.2       12 UNK        -0.5000 
     74 N          -3.7352  -22.3884  -46.3697 N.am      13 UNK        -0.5000 
     75 CA         -3.7200  -23.0098  -45.0434 C.3       13 UNK         0.1400 
     76 CB         -2.8807  -22.1468  -44.0879 C.3       13 UNK        -0.1800 
     77 C          -3.2077  -24.4631  -45.0695 C.2       13 UNK         0.5000 
     78 O          -3.7618  -25.3177  -44.3776 O.2       13 UNK        -0.5000 
     79 N          -2.1904  -24.7232  -45.9018 N.am      14 UNK        -0.5000 
     80 CA         -1.6473  -26.0557  -46.1747 C.3       14 UNK         0.1400 
     81 CB         -0.2464  -25.8988  -46.7873 C.3       14 UNK        -0.1800 
     82 C          -2.5364  -26.9103  -47.1034 C.2       14 UNK         0.5000 
     83 O          -2.2814  -28.1083  -47.2312 O.2       14 UNK        -0.5000 
     84 N          -3.5340  -26.2862  -47.7508 N.am      15 UNK        -0.5000 
     85 CA         -4.4467  -26.8539  -48.7513 C.3       15 UNK         0.1400 
     86 CB         -5.3712  -27.9132  -48.1171 C.3       15 UNK        -0.1800 
     87 C          -3.7219  -27.3589  -50.0188 C.2       15 UNK         0.5000 
     88 O          -4.1632  -28.3225  -50.6472 O.2       15 UNK        -0.5000 
     89 N          -2.6187  -26.6886  -50.3700 N.am      16 UNK        -0.5000 
     90 CA         -1.7786  -26.9822  -51.5274 C.3       16 UNK         0.1400 
     91 CB         -0.3182  -26.6647  -51.1684 C.3       16 UNK        -0.1800 
     92 C          -2.2136  -26.1834  -52.7680 C.2       16 UNK         0.5000 
     93 O          -2.0781  -26.6862  -53.8839 O.2       16 UNK        -0.5000 
     94 N          -2.7286  -24.9640  -52.5589 N.am      17 UNK        -0.5000 
     95 CA         -3.1751  -24.0541  -53.6155 C.3       17 UNK         0.1400 
     96 CB         -1.9867  -23.2325  -54.1490 C.3       17 UNK        -0.1800 
     97 C          -4.3433  -23.1770  -53.1334 C.2       17 UNK         0.5000 
     98 O          -4.4473  -22.0119  -53.5303 O.2       17 UNK        -0.5000 
     99 N          -5.2103  -23.7569  -52.2915 N.am      18 UNK        -0.5000 
    100 CA        -6.4335  -23.1367  -51.7843 C.3       18 UNK         0.1400 
    101 CB        -7.0954  -24.0729  -50.7608 C.3       18 UNK        -0.1800 
    102 C         -7.4048  -22.7924  -52.9266 C.2       18 UNK         0.5000 
    103 O         -7.8002  -23.6840  -53.6798 O.2       18 UNK        -0.5000 
    104 N         -7.7248  -21.4984  -53.0422 N.am      19 UNK        -0.5000 
    105 CA        -8.5314  -20.8489  -54.0802 C.3       19 UNK         0.1400 
    106 CB        -9.9574  -21.4353  -54.1393 C.3       19 UNK        -0.1800 
    107 C         -7.8533  -20.7992  -55.4672 C.2       19 UNK         0.5000 
    108 O         -8.4991  -20.3869  -56.4322 O.2       19 UNK        -0.5000 
    109 N         -6.5720  -21.1834  -55.5483 N.am      20 UNK        -0.5000 
    110 CA        -5.7522  -21.1130  -56.7555 C.3       20 UNK         0.1400 
    111 CB        -5.0755  -22.4709  -57.0061 C.3       20 UNK        -0.1800 
    112 C         -4.7191  -19.9862  -56.6179 C.2       20 UNK         0.5000 
    113 O         -4.6711  -19.1040  -57.4760 O.2       20 UNK        -0.5000 
    114 N         -3.9316  -20.0190  -55.5342 N.am      21 UNK        -0.5000 
    115 CA        -2.9407  -18.9916  -55.2109 C.3       21 UNK         0.1400 
    116 CB        -1.6997  -19.6551  -54.5963 C.3       21 UNK        -0.1800 
    117 C         -3.5135  -17.9439  -54.2440 C.2       21 UNK         0.5000 
    118 O         -3.2242  -16.7562  -54.3930 O.2       21 UNK        -0.5000 
    119 N         -4.3110  -18.4010  -53.2740 N.am      22 UNK        -0.5000 
    120 CA        -4.9067  -17.5986  -52.1998 C.3       22 UNK         0.1400 
    121 C         -6.0304  -18.3837  -51.4731 C.2       22 UNK         0.5000 
    122 N         -6.7865  -17.7396  -50.5952 N.am      22 UNK        -0.7600 
    123 O         -6.2399  -19.5725  -51.7027 O.2       22 UNK        -0.5000 
    124 C124       -3.8582  -16.9854  -51.2217 C.3       23 UNK        -0.0398 
    125 S125       -2.5396  -18.1289  -50.6659 S.3       23 UNK        -0.2404 
    126 C126       -1.0725  -17.1150  -51.0434 C.3       23 UNK        -0.0205 
    127 H127        2.5968  -12.2914  -50.2724 H         1 UNK         0.0600 
    128 H128        2.2665  -11.4291  -48.7573 H         1 UNK         0.0600 
    129 H129        1.0112  -11.5818  -49.9801 H         1 UNK         0.0600 
    130 H130        1.8662  -14.9647  -47.6725 H         1 UNK         0.3000 
    131 H131        4.0525  -13.2738  -48.6633 H         1 UNK         0.0600 
    132 H132        4.1809  -15.6097  -46.6989 H         1 UNK         0.0800 
    133 H133        5.5205  -14.8042  -47.4663 H         1 UNK         0.0800 
    134 H134        2.6563  -17.1042  -47.5923 H         1 UNK         0.0800 
    135 H135        3.8451  -18.3072  -48.0016 H         1 UNK         0.0800 
    136 H136        0.8300  -16.4803  -49.1751 H         1 UNK         0.1150 
    137 H137       -0.0847  -19.3358  -52.2283 H         1 UNK         0.1150 
    138 H138        3.5868  -19.6507  -50.0429 H         1 UNK         0.1150 
    139 H139        1.5985  -20.9178  -52.9451 H         1 UNK         0.0800 
    140 H140        3.2034  -20.8527  -52.2631 H         1 UNK         0.0800 
    141 H141       -0.3396  -23.2604  -51.5598 H         1 UNK         0.0800 
    142 H142       -0.4310  -21.5269  -51.4207 H         1 UNK         0.0800 
    143 H143       -0.0454  -23.4713  -49.1092 H         1 UNK         0.0600 
    144 H144        0.1637  -20.5923  -49.0676 H         1 UNK         0.3000 
    145 H145        0.0980  -20.4867  -45.4518 H         1 UNK         0.0600 
    146 H146        2.2250  -20.1501  -47.6197 H         1 UNK         0.0600 
    147 H147        2.2129  -19.2135  -46.1308 H         1 UNK         0.0600 
    148 H148        2.3876  -20.9584  -46.0744 H         1 UNK         0.0600 
    149 H149        0.2617  -18.2810  -47.0966 H         1 UNK         0.3000 
    150 H150       -1.7713  -17.1269  -48.0787 H         1 UNK         0.0600 
    151 H151       -4.1101  -17.9858  -47.9933 H         1 UNK         0.0600 
    152 H152       -4.0575  -16.3670  -47.3410 H         1 UNK         0.0600 
    153 H153       -4.1668  -17.7452  -46.2488 H         1 UNK         0.0600 
    154 H154       -1.2280  -17.1037  -45.2840 H         1 UNK         0.3000 
    155 H155       -0.2403  -13.7823  -45.3969 H         1 UNK         0.0600 
    156 H156       -2.4699  -13.1643  -44.5227 H         1 UNK         0.0600 
    157 H157       -1.3452  -13.3753  -43.1881 H         1 UNK         0.0600 
    158 H158       -2.5331  -14.6283  -43.5501 H         1 UNK         0.0600 
    159 H159       -0.2803  -15.6729  -43.2386 H         1 UNK         0.3000 
    160 H160        1.9374  -17.9693  -44.3265 H         1 UNK         0.0600 
    161 H161        3.2538  -15.6201  -42.8960 H         1 UNK         0.0600 
    162 H162        3.8711  -16.4564  -44.3107 H         1 UNK         0.0600 
    163 H163        3.7844  -17.2953  -42.7708 H         1 UNK         0.0600 
    164 H164        1.4390  -16.8935  -41.6814 H         1 UNK         0.3000 
    165 H165       -1.6250  -18.5671  -41.1744 H         1 UNK         0.0600 
    166 H166       -0.3912  -19.7479  -39.3715 H         1 UNK         0.0600 
    167 H167       -0.0279  -20.4661  -40.9325 H         1 UNK         0.0600 
    168 H168        1.1471  -19.4053  -40.1639 H         1 UNK         0.0600 
    169 H169        0.2831  -17.1987  -39.4729 H         1 UNK         0.3000 
    170 H170       -1.1056  -13.9446  -39.9495 H         1 UNK         0.0600 
    171 H171       -2.5708  -15.0402  -38.2434 H         1 UNK         0.0600 
    172 H172       -1.1682  -15.8286  -37.5313 H         1 UNK         0.0600 
    173 H173       -1.3164  -14.0715  -37.4877 H         1 UNK         0.0600 
    174 H174        0.9867  -14.7837  -38.2551 H         1 UNK         0.3000 
    175 H175        3.1402  -13.6317  -38.9593 H         1 UNK         0.0600 
    176 H176        3.4980  -16.5174  -40.0060 H         1 UNK         0.0600 
    177 H177        4.6317  -15.6787  -38.9513 H         1 UNK         0.0600 
    178 H178        3.0318  -16.0872  -38.3637 H         1 UNK         0.0600 
    179 H179        3.2500  -14.0090  -41.7587 H         1 UNK         0.3000 
    180 H180        6.0504  -12.1480  -42.3448 H         1 UNK         0.0600 
    181 H181        6.1200  -15.1546  -42.9579 H         1 UNK         0.0600 
    182 H182        7.4065  -14.2356  -42.1862 H         1 UNK         0.0600 
    183 H183        6.9769  -13.9002  -43.8555 H         1 UNK         0.0600 
    184 H184        4.3915  -13.7934  -44.0509 H         1 UNK         0.3000 
    185 H185        1.6404  -12.6940  -43.9654 H         1 UNK         0.0600 
    186 H186        2.6431  -10.2444  -45.5012 H         1 UNK         0.0600 
    187 H187        1.0541  -10.9845  -45.6915 H         1 UNK         0.0600 
    188 H188        1.5007  -10.2454  -44.1641 H         1 UNK         0.0600 
    189 H189        2.1400  -13.8547  -45.7747 H         1 UNK         0.3000 
    190 H190       -2.4248  -21.0087  -48.6567 H         1 UNK         0.3000 
    191 H191       -4.6675  -22.6784  -49.5438 H         1 UNK         0.0600 
    192 H192       -4.6641  -20.1001  -49.5780 H         1 UNK         0.0600 
    193 H193       -6.0668  -20.8679  -48.8479 H         1 UNK         0.0600 
    194 H194       -4.8273  -20.1621  -47.8258 H         1 UNK         0.0600 
    195 H195       -3.1511  -21.5639  -46.4887 H         1 UNK         0.3000 
    196 H196       -4.7475  -23.0270  -44.6745 H         1 UNK         0.0600 
    197 H197       -2.8790  -22.5662  -43.0812 H         1 UNK         0.0600 
    198 H198       -3.2782  -21.1339  -44.0190 H         1 UNK         0.0600 
    199 H199       -1.8433  -22.0733  -44.4154 H         1 UNK         0.0600 
    200 H200       -1.7296  -23.9417  -46.3604 H         1 UNK         0.3000 
    201 H201       -1.5490  -26.5912  -45.2282 H         1 UNK         0.0600 
    202 H202        0.4076  -25.3172  -46.1373 H         1 UNK         0.0600 
    203 H203       -0.2872  -25.4007  -47.7559 H         1 UNK         0.0600 
    204 H204        0.2268  -26.8698  -46.9389 H         1 UNK         0.0600 
    205 H205       -3.6833  -25.3060  -47.5487 H         1 UNK         0.3000 
    206 H206       -5.0773  -26.0283  -49.0806 H         1 UNK         0.0600 
    207 H207       -4.8217  -28.8067  -47.8200 H         1 UNK         0.0600 
    208 H208       -5.8731  -27.5178  -47.2339 H         1 UNK         0.0600 
    209 H209       -6.1471  -28.2247  -48.8173 H         1 UNK         0.0600 
    210 H210       -2.3845  -25.8524  -49.8449 H         1 UNK         0.3000 
    211 H211       -1.8452  -28.0449  -51.7701 H         1 UNK         0.0600 
    212 H212        0.3455  -26.8703  -52.0092 H         1 UNK         0.0600 
    213 H213        0.0203  -27.2739  -50.3300 H         1 UNK         0.0600 
    214 H214       -0.1866  -25.6182  -50.8931 H         1 UNK         0.0600 
    215 H215       -2.7915  -24.6149  -51.6062 H         1 UNK         0.3000 
    216 H216       -3.5748  -24.6435  -54.4432 H         1 UNK         0.0600 
    217 H217       -2.2757  -22.6498  -55.0235 H         1 UNK         0.0600 
    218 H218       -1.1598  -23.8747  -54.4521 H         1 UNK         0.0600 
    219 H219       -1.6145  -22.5359  -53.3999 H         1 UNK         0.0600 
    220 H220       -5.0735  -24.7304  -52.0657 H         1 UNK         0.3000 
    221 H221       -6.1535  -22.2151  -51.2716 H         1 UNK         0.0600 
    222 H222       -7.3528  -25.0365  -51.2023 H         1 UNK         0.0600 
    223 H223       -6.4422  -24.2576  -49.9093 H         1 UNK         0.0600 
    224 H224       -8.0148  -23.6343  -50.3711 H         1 UNK         0.0600 
    225 H225       -7.2618  -20.8437  -52.4102 H         1 UNK         0.3000 
    226 H226       -8.6228  -19.8091  -53.7630 H         1 UNK         0.0600 
    227 H227      -10.4147  -21.4625  -53.1503 H         1 UNK         0.0600 
    228 H228      -10.6023  -20.8290  -54.7763 H         1 UNK         0.0600 
    229 H229       -9.9657  -22.4480  -54.5428 H         1 UNK         0.0600 
    230 H230       -6.1039  -21.4826  -54.7012 H         1 UNK         0.3000 
    231 H231       -6.3698  -20.8899  -57.6280 H         1 UNK         0.0600 
    232 H232       -4.4339  -22.7704  -56.1792 H         1 UNK         0.0600 
    233 H233       -4.4579  -22.4377  -57.9044 H         1 UNK         0.0600 
    234 H234       -5.8179  -23.2559  -57.1506 H         1 UNK         0.0600 
    235 H235       -4.0480  -20.7689  -54.8579 H         1 UNK         0.3000 
    236 H236       -2.6247  -18.4749  -56.1197 H         1 UNK         0.0600 
    237 H237       -1.2661  -20.3890  -55.2754 H         1 UNK         0.0600 
    238 H238       -0.9292  -18.9116  -54.3896 H         1 UNK         0.0600 
    239 H239       -1.9357  -20.1575  -53.6575 H         1 UNK         0.0600 
    240 H240       -4.5218  -19.3889  -53.2143 H         1 UNK         0.3000 
    241 H241       -5.4234  -16.7724  -52.6916 H         1 UNK         0.0600 
    242 H242       -7.5193  -18.2462  -50.1250 H         1 UNK         0.3800 
    243 H243       -6.6625  -16.7592  -50.3989 H         1 UNK         0.3800 
    244 H244       -3.3934  -16.1312  -51.7148 H         1 UNK         0.0800 
    245 H245       -4.3362  -16.5634  -50.3368 H         1 UNK         0.0800 
    246 H246       -1.0808  -16.8505  -52.1020 H         1 UNK         0.0800 
    247 H247       -1.1329  -16.1773  -50.4878 H         1 UNK         0.0800 
@<TRIPOS>BOND
     1    1    2 1    
     2    1  127 1    
     3    1  128 1    
     4    1  129 1    
     5    2    3 2    
     6    2    4 am   BACKBONE|DICT|INTERRES
     7    4    5 1    
     8    4  130 1    
     9    5    6 1    
    10    5   65 1    
    11    5  131 1    
    12    6    7 1    
    13    6  132 1    
    14    6  133 1    
    15    7    8 1    
    16    8    9 1    
    17    8  134 1    
    18    8  135 1    
    19    9   10 ar   
    20    9   14 ar   
    21   10   11 ar   
    22   10  136 1    
    23   11   12 ar   
    24   11  126 1    
    25   12   13 ar   
    26   12  137 1    
    27   13   14 ar   
    28   13   15 1    
    29   14  138 1    
    30   15   16 1    
    31   15  139 1    
    32   15  140 1    
    33   16   17 1    
    34   17   18 1    
    35   17  141 1    
    36   17  142 1    
    37   18   19 1    
    38   18   67 1    
    39   18  143 1    
    40   19   20 am   BACKBONE|DICT|INTERRES
    41   19  144 1    
    42   20   21 2    
    43   20   22 1    
    44   22   23 1    
    45   22   24 1    
    46   22  145 1    
    47   23  146 1    
    48   23  147 1    
    49   23  148 1    
    50   24   25 am   BACKBONE|DICT|INTERRES
    51   24  149 1    
    52   25   26 2    
    53   25   27 1    
    54   27   28 1    
    55   27   29 1    
    56   27  150 1    
    57   28  151 1    
    58   28  152 1    
    59   28  153 1    
    60   29   30 am   BACKBONE|DICT|INTERRES
    61   29  154 1    
    62   30   31 2    
    63   30   32 1    
    64   32   33 1    
    65   32   34 1    
    66   32  155 1    
    67   33  156 1    
    68   33  157 1    
    69   33  158 1    
    70   34   35 am   BACKBONE|DICT|INTERRES
    71   34  159 1    
    72   35   36 2    
    73   35   37 1    
    74   37   38 1    
    75   37   39 1    
    76   37  160 1    
    77   38  161 1    
    78   38  162 1    
    79   38  163 1    
    80   39   40 am   BACKBONE|DICT|INTERRES
    81   39  164 1    
    82   40   41 2    
    83   40   42 1    
    84   42   43 1    
    85   42   44 1    
    86   42  165 1    
    87   43  166 1    
    88   43  167 1    
    89   43  168 1    
    90   44   45 am   BACKBONE|DICT|INTERRES
    91   44  169 1    
    92   45   46 2    
    93   45   47 1    
    94   47   48 1    
    95   47   49 1    
    96   47  170 1    
    97   48  171 1    
    98   48  172 1    
    99   48  173 1    
   100   49   50 am   BACKBONE|DICT|INTERRES
   101   49  174 1    
   102   50   51 2    
   103   50   52 1    
   104   52   53 1    
   105   52   54 1    
   106   52  175 1    
   107   53  176 1    
   108   53  177 1    
   109   53  178 1    
   110   54   55 am   BACKBONE|DICT|INTERRES
   111   54  179 1    
   112   55   56 2    
   113   55   57 1    
   114   57   58 1    
   115   57   59 1    
   116   57  180 1    
   117   58  181 1    
   118   58  182 1    
   119   58  183 1    
   120   59   60 am   BACKBONE|DICT|INTERRES
   121   59  184 1    
   122   60   61 2    
   123   60   62 1    
   124   62   63 1    
   125   62   64 1    
   126   62  185 1    
   127   63  186 1    
   128   63  187 1    
   129   63  188 1    
   130   64   65 am   BACKBONE|DICT|INTERRES
   131   64  189 1    
   132   65   66 2    
   133   67   68 2    
   134   67   69 am   BACKBONE|DICT|INTERRES
   135   69   70 1    
   136   69  190 1    
   137   70   71 1    
   138   70   72 1    
   139   70  191 1    
   140   71  192 1    
   141   71  193 1    
   142   71  194 1    
   143   72   73 2    
   144   72   74 am   BACKBONE|DICT|INTERRES
   145   74   75 1    
   146   74  195 1    
   147   75   76 1    
   148   75   77 1    
   149   75  196 1    
   150   76  197 1    
   151   76  198 1    
   152   76  199 1    
   153   77   78 2    
   154   77   79 am   BACKBONE|DICT|INTERRES
   155   79   80 1    
   156   79  200 1    
   157   80   81 1    
   158   80   82 1    
   159   80  201 1    
   160   81  202 1    
   161   81  203 1    
   162   81  204 1    
   163   82   83 2    
   164   82   84 am   BACKBONE|DICT|INTERRES
   165   84   85 1    
   166   84  205 1    
   167   85   86 1    
   168   85   87 1    
   169   85  206 1    
   170   86  207 1    
   171   86  208 1    
   172   86  209 1    
   173   87   88 2    
   174   87   89 am   BACKBONE|DICT|INTERRES
   175   89   90 1    
   176   89  210 1    
   177   90   91 1    
   178   90   92 1    
   179   90  211 1    
   180   91  212 1    
   181   91  213 1    
   182   91  214 1    
   183   92   93 2    
   184   92   94 am   BACKBONE|DICT|INTERRES
   185   94   95 1    
   186   94  215 1    
   187   95   96 1    
   188   95   97 1    
   189   95  216 1    
   190   96  217 1    
   191   96  218 1    
   192   96  219 1    
   193   97   98 2    
   194   97   99 am   BACKBONE|DICT|INTERRES
   195   99  100 1    
   196   99  220 1    
   197  100  101 1    
   198  100  102 1    
   199  100  221 1    
   200  101  222 1    
   201  101  223 1    
   202  101  224 1    
   203  102  103 2    
   204  102  104 am   BACKBONE|DICT|INTERRES
   205  104  105 1    
   206  104  225 1    
   207  105  106 1    
   208  105  107 1    
   209  105  226 1    
   210  106  227 1    
   211  106  228 1    
   212  106  229 1    
   213  107  108 2    
   214  107  109 am   BACKBONE|DICT|INTERRES
   215  109  110 1    
   216  109  230 1    
   217  110  111 1    
   218  110  112 1    
   219  110  231 1    
   220  111  232 1    
   221  111  233 1    
   222  111  234 1    
   223  112  113 2    
   224  112  114 am   BACKBONE|DICT|INTERRES
   225  114  115 1    
   226  114  235 1    
   227  115  116 1    
   228  115  117 1    
   229  115  236 1    
   230  116  237 1    
   231  116  238 1    
   232  116  239 1    
   233  117  118 2    
   234  117  119 am   BACKBONE|DICT|INTERRES
   235  119  120 1    
   236  119  240 1    
   237  120  121 1    
   238  120  124 1    
   239  120  241 1    
   240  121  122 am   BACKBONE|DICT|INTERRES
   241  121  123 2    
   242  122  242 1    
   243  122  243 1    
   244  124  125 1    
   245  124  244 1    
   246  124  245 1    
   247  125  126 1    
   248  126  246 1    
   249  126  247 1    
@<TRIPOS>SUBSTRUCTURE
     1 UNK         1 GROUP             0       ****    0 ROOT    
