@<TRIPOS>MOLECULE
3R540
247   249    1
SMALL
USER_CHARGES


@<TRIPOS>ATOM
      1 CA          9.2881  -11.5520  -46.3067 C.3       0 UNK        -0.1800 
      2 C           8.0699  -12.4631  -46.2492 C.2       0 UNK         0.5000 
      3 O           8.0565  -13.4218  -45.4771 O.2       0 UNK        -0.5000 
      4 N           7.0499  -12.1692  -47.0598 N.am      1 UNK        -0.5000 
      5 CA          5.7874  -12.8979  -47.1371 C.3       1 UNK         0.1400 
      6 C6          5.9178  -14.1959  -47.9761 C.3       23 UNK        -0.0398 
      7 S7          4.4727  -15.3124  -47.8662 S.3       23 UNK        -0.2404 
      8 C8          3.8399  -15.2023  -49.5693 C.3       23 UNK        -0.0205 
      9 C9          2.8126  -16.2822  -49.8719 C.ar      23 UNK        -0.0193 
     10 C10         1.4558  -15.9642  -49.9838 C.ar      23 UNK        -0.1150 
     11 C11         0.5200  -16.9494  -50.3163 C.ar      23 UNK        -0.0193 
     12 C12         0.9530  -18.2593  -50.5436 C.ar      23 UNK        -0.1150 
     13 C13         2.3047  -18.5953  -50.4129 C.ar      23 UNK        -0.0193 
     14 C14         3.2282  -17.6008  -50.0793 C.ar      23 UNK        -0.1150 
     15 C15         2.7749  -20.0250  -50.6503 C.3       23 UNK        -0.0205 
     16 S16         2.7104  -21.0366  -49.1344 S.3       23 UNK        -0.2404 
     17 C17         0.9116  -21.2344  -48.9426 C.3       23 UNK        -0.0398 
     18 CA          0.5004  -22.4054  -48.0180 C.3       11 UNK         0.1400 
     19 N           0.8273  -22.1802  -46.6038 N.am      11 UNK        -0.5000 
     20 C           0.6033  -23.0646  -45.6177 C.2       10 UNK         0.5000 
     21 O           0.1752  -24.2044  -45.8040 O.2       10 UNK        -0.5000 
     22 CA          0.8312  -22.5826  -44.1729 C.3       10 UNK         0.1400 
     23 CB          2.3186  -22.6345  -43.7941 C.3       10 UNK        -0.1800 
     24 N           0.2968  -21.2406  -43.9369 N.am      10 UNK        -0.5000 
     25 C          -1.0046  -20.9212  -44.0026 C.2       9 UNK         0.5000 
     26 O          -1.8982  -21.7407  -44.2115 O.2       9 UNK        -0.5000 
     27 CA         -1.3686  -19.4307  -43.8697 C.3       9 UNK         0.1400 
     28 CB         -1.4165  -18.9997  -42.3967 C.3       9 UNK        -0.1800 
     29 N          -0.4502  -18.5672  -44.6105 N.am      9 UNK        -0.5000 
     30 C          -0.2924  -18.5987  -45.9410 C.2       8 UNK         0.5000 
     31 O          -0.9633  -19.3049  -46.6928 O.2       8 UNK        -0.5000 
     32 CA          0.8366  -17.7359  -46.5244 C.3       8 UNK         0.1400 
     33 CB          0.3634  -16.2955  -46.7260 C.3       8 UNK        -0.1800 
     34 N           2.0366  -17.7443  -45.6899 N.am      8 UNK        -0.5000 
     35 C           2.8073  -18.8216  -45.4908 C.2       7 UNK         0.5000 
     36 O           2.5945  -19.9170  -46.0066 O.2       7 UNK        -0.5000 
     37 CA          3.9710  -18.6643  -44.4958 C.3       7 UNK         0.1400 
     38 CB          5.1661  -17.9577  -45.1523 C.3       7 UNK        -0.1800 
     39 N           3.5741  -17.9323  -43.2927 N.am      7 UNK        -0.5000 
     40 C           2.6797  -18.3735  -42.3964 C.2       6 UNK         0.5000 
     41 O           2.1481  -19.4819  -42.4512 O.2       6 UNK        -0.5000 
     42 CA          2.2753  -17.3896  -41.2809 C.3       6 UNK         0.1400 
     43 CB          3.2113  -17.5298  -40.0715 C.3       6 UNK        -0.1800 
     44 N           2.2598  -15.9920  -41.7256 N.am      6 UNK        -0.5000 
     45 C           1.4485  -15.5082  -42.6759 C.2       5 UNK         0.5000 
     46 O           0.6098  -16.1936  -43.2646 O.2       5 UNK        -0.5000 
     47 CA          1.6758  -14.0381  -43.0742 C.3       5 UNK         0.1400 
     48 CB          2.9216  -13.9229  -43.9701 C.3       5 UNK        -0.1800 
     49 N           0.5268  -13.4528  -43.7709 N.am      5 UNK        -0.5000 
     50 C          -0.6321  -13.1270  -43.1779 C.2       4 UNK         0.5000 
     51 O          -0.8419  -13.3015  -41.9760 O.2       4 UNK        -0.5000 
     52 CA         -1.7338  -12.4578  -44.0298 C.3       4 UNK         0.1400 
     53 CB         -2.0206  -11.0368  -43.5150 C.3       4 UNK        -0.1800 
     54 N          -1.3994  -12.3654  -45.4515 N.am      4 UNK        -0.5000 
     55 C          -1.7672  -13.2453  -46.3915 C.2       3 UNK         0.5000 
     56 O          -2.4747  -14.2274  -46.1667 O.2       3 UNK        -0.5000 
     57 CA         -1.2593  -12.9963  -47.8314 C.3       3 UNK         0.1400 
     58 CB         -2.3822  -12.4139  -48.7030 C.3       3 UNK        -0.1800 
     59 N          -0.0725  -12.1362  -47.9529 N.am      3 UNK        -0.5000 
     60 C           1.1095  -12.3808  -47.3761 C.2       2 UNK         0.5000 
     61 O           1.2913  -13.2985  -46.5748 O.2       2 UNK        -0.5000 
     62 CA          2.2759  -11.4421  -47.7091 C.3       2 UNK         0.1400 
     63 CB          2.1460  -10.1042  -46.9605 C.3       2 UNK        -0.1800 
     64 N           3.4835  -12.1365  -47.2873 N.am      2 UNK        -0.5000 
     65 C           4.7327  -11.9284  -47.6989 C.2       1 UNK         0.5000 
     66 O           5.0655  -11.0341  -48.4821 O.2       1 UNK        -0.5000 
     67 C          -0.9999  -22.6979  -48.2084 C.2       11 UNK         0.5000 
     68 O          -1.3424  -23.6946  -48.8417 O.2       11 UNK        -0.5000 
     69 N          -1.8627  -21.8429  -47.6407 N.am      12 UNK        -0.5000 
     70 CA         -3.3170  -21.9713  -47.7095 C.3       12 UNK         0.1400 
     71 CB         -3.9814  -20.7326  -47.0927 C.3       12 UNK        -0.1800 
     72 C          -3.8406  -23.2605  -47.0564 C.2       12 UNK         0.5000 
     73 O          -4.7169  -23.9058  -47.6297 O.2       12 UNK        -0.5000 
     74 N          -3.2733  -23.6336  -45.9012 N.am      13 UNK        -0.5000 
     75 CA         -3.5704  -24.8798  -45.1959 C.3       13 UNK         0.1400 
     76 CB         -2.8825  -24.8774  -43.8224 C.3       13 UNK        -0.1800 
     77 C          -3.1733  -26.1249  -46.0082 C.2       13 UNK         0.5000 
     78 O          -3.9845  -27.0418  -46.1418 O.2       13 UNK        -0.5000 
     79 N          -1.9565  -26.1185  -46.5726 N.am      14 UNK        -0.5000 
     80 CA         -1.4348  -27.1840  -47.4335 C.3       14 UNK         0.1400 
     81 CB          0.0514  -26.9247  -47.7228 C.3       14 UNK        -0.1800 
     82 C          -2.2254  -27.3379  -48.7471 C.2       14 UNK         0.5000 
     83 O          -2.4436  -28.4610  -49.2021 O.2       14 UNK        -0.5000 
     84 N          -2.6658  -26.2069  -49.3107 N.am      15 UNK        -0.5000 
     85 CA         -3.4832  -26.1209  -50.5202 C.3       15 UNK         0.1400 
     86 CB         -3.2515  -24.7448  -51.1564 C.3       15 UNK        -0.1800 
     87 C          -4.9890  -26.3577  -50.2760 C.2       15 UNK         0.5000 
     88 O          -5.7627  -26.2995  -51.2338 O.2       15 UNK        -0.5000 
     89 N          -5.3825  -26.5932  -49.0142 N.am      16 UNK        -0.5000 
     90 CA         -6.7459  -26.8397  -48.5319 C.3       16 UNK         0.1400 
     91 CB         -7.2517  -28.2095  -49.0292 C.3       16 UNK        -0.1800 
     92 C          -7.7225  -25.6865  -48.8492 C.2       16 UNK         0.5000 
     93 O          -8.8800  -25.9322  -49.1945 O.2       16 UNK        -0.5000 
     94 N          -7.2221  -24.4463  -48.7510 N.am      17 UNK        -0.5000 
     95 CA         -7.8609  -23.1489  -49.0076 C.3       17 UNK         0.1400 
     96 CB         -9.0493  -22.9155  -48.0572 C.3       17 UNK        -0.1800 
     97 C          -8.2675  -22.8921  -50.4736 C.2       17 UNK         0.5000 
     98 O          -8.0864  -21.7762  -50.9604 O.2       17 UNK        -0.5000 
     99 N          -8.7983  -23.9124  -51.1564 N.am      18 UNK        -0.5000 
    100 CA        -9.3353  -23.8545  -52.5170 C.3       18 UNK         0.1400 
    101 CB        -9.9825  -25.2074  -52.8498 C.3       18 UNK        -0.1800 
    102 C         -8.3028  -23.4751  -53.5951 C.2       18 UNK         0.5000 
    103 O         -8.6737  -22.8444  -54.5860 O.2       18 UNK        -0.5000 
    104 N         -7.0370  -23.8554  -53.3827 N.am      19 UNK        -0.5000 
    105 CA        -5.9217  -23.6049  -54.2972 C.3       19 UNK         0.1400 
    106 CB        -5.3363  -24.9583  -54.7415 C.3       19 UNK        -0.1800 
    107 C         -4.8612  -22.6760  -53.6720 C.2       19 UNK         0.5000 
    108 O         -3.7057  -22.7056  -54.0966 O.2       19 UNK        -0.5000 
    109 N         -5.2526  -21.8701  -52.6710 N.am      20 UNK        -0.5000 
    110 CA        -4.3669  -20.9624  -51.9278 C.3       20 UNK         0.1400 
    111 CB        -5.1160  -20.4201  -50.7019 C.3       20 UNK        -0.1800 
    112 C         -3.7938  -19.7934  -52.7565 C.2       20 UNK         0.5000 
    113 O         -2.8234  -19.1736  -52.3214 O.2       20 UNK        -0.5000 
    114 N         -4.4089  -19.5023  -53.9127 N.am      21 UNK        -0.5000 
    115 CA        -4.0413  -18.5191  -54.9430 C.3       21 UNK         0.1400 
    116 CB        -2.6251  -18.7822  -55.4902 C.3       21 UNK        -0.1800 
    117 C         -4.2105  -17.0421  -54.5355 C.2       21 UNK         0.5000 
    118 O         -4.6469  -16.2413  -55.3636 O.2       21 UNK        -0.5000 
    119 N         -3.8851  -16.7031  -53.2840 N.am      22 UNK        -0.5000 
    120 CA        -4.0020  -15.3488  -52.7166 C.3       22 UNK         0.1400 
    121 C         -5.4603  -14.8938  -52.4083 C.2       22 UNK         0.5000 
    122 N         -6.4590  -15.7673  -52.4557 N.am      22 UNK        -0.7600 
    123 O         -5.6905  -13.7213  -52.1255 O.2       22 UNK        -0.5000 
    124 C124       -3.1024  -15.1607  -51.4692 C.3       23 UNK        -0.0398 
    125 S125       -1.3372  -15.5015  -51.7909 S.3       23 UNK        -0.2404 
    126 C126       -0.9604  -16.6062  -50.3969 C.3       23 UNK        -0.0205 
    127 H127       10.1724  -12.1250  -46.5854 H         1 UNK         0.0600 
    128 H128        9.4662  -11.1011  -45.3304 H         1 UNK         0.0600 
    129 H129        9.1601  -10.7495  -47.0337 H         1 UNK         0.0600 
    130 H130        7.0832  -11.3525  -47.6586 H         1 UNK         0.3000 
    131 H131        5.4882  -13.1625  -46.1199 H         1 UNK         0.0600 
    132 H132        6.7749  -14.7714  -47.6243 H         1 UNK         0.0800 
    133 H133        6.1383  -13.9556  -49.0174 H         1 UNK         0.0800 
    134 H134        3.4157  -14.2100  -49.7301 H         1 UNK         0.0800 
    135 H135        4.6660  -15.3037  -50.2746 H         1 UNK         0.0800 
    136 H136        1.1245  -14.9492  -49.8147 H         1 UNK         0.1150 
    137 H137        0.2336  -19.0211  -50.8091 H         1 UNK         0.1150 
    138 H138        4.2760  -17.8504  -49.9866 H         1 UNK         0.1150 
    139 H139        2.1799  -20.4934  -51.4358 H         1 UNK         0.0800 
    140 H140        3.8019  -20.0173  -51.0184 H         1 UNK         0.0800 
    141 H141        0.4961  -21.3831  -49.9414 H         1 UNK         0.0800 
    142 H142        0.4994  -20.2941  -48.5789 H         1 UNK         0.0800 
    143 H143        1.0434  -23.2977  -48.3366 H         1 UNK         0.0600 
    144 H144        1.2490  -21.2847  -46.3728 H         1 UNK         0.3000 
    145 H145        0.2969  -23.2675  -43.5113 H         1 UNK         0.0600 
    146 H146        2.7171  -23.6416  -43.9222 H         1 UNK         0.0600 
    147 H147        2.9195  -21.9651  -44.4085 H         1 UNK         0.0600 
    148 H148        2.4690  -22.3549  -42.7513 H         1 UNK         0.0600 
    149 H149        0.9691  -20.5150  -43.7098 H         1 UNK         0.3000 
    150 H150       -2.3649  -19.2922  -44.2942 H         1 UNK         0.0600 
    151 H151       -1.6900  -17.9486  -42.3012 H         1 UNK         0.0600 
    152 H152       -0.4566  -19.1422  -41.9019 H         1 UNK         0.0600 
    153 H153       -2.1569  -19.5816  -41.8466 H         1 UNK         0.0600 
    154 H154        0.0946  -17.8993  -44.0729 H         1 UNK         0.3000 
    155 H155        1.1017  -18.1462  -47.5008 H         1 UNK         0.0600 
    156 H156       -0.5571  -16.2642  -47.3064 H         1 UNK         0.0600 
    157 H157        1.1153  -15.7222  -47.2641 H         1 UNK         0.0600 
    158 H158        0.1655  -15.7889  -45.7824 H         1 UNK         0.0600 
    159 H159        2.2463  -16.8926  -45.1930 H         1 UNK         0.3000 
    160 H160        4.2890  -19.6654  -44.1966 H         1 UNK         0.0600 
    161 H161        5.4518  -18.4517  -46.0820 H         1 UNK         0.0600 
    162 H162        6.0373  -17.9679  -44.4973 H         1 UNK         0.0600 
    163 H163        4.9388  -16.9181  -45.3887 H         1 UNK         0.0600 
    164 H164        3.9682  -17.0125  -43.1659 H         1 UNK         0.3000 
    165 H165        1.2642  -17.6494  -40.9612 H         1 UNK         0.0600 
    166 H166        2.8856  -16.8979  -39.2451 H         1 UNK         0.0600 
    167 H167        3.2252  -18.5578  -39.7066 H         1 UNK         0.0600 
    168 H168        4.2372  -17.2561  -40.3209 H         1 UNK         0.0600 
    169 H169        2.9277  -15.3738  -41.2878 H         1 UNK         0.3000 
    170 H170        1.8504  -13.4593  -42.1649 H         1 UNK         0.0600 
    171 H171        3.0801  -12.8945  -44.2953 H         1 UNK         0.0600 
    172 H172        3.8212  -14.2332  -43.4377 H         1 UNK         0.0600 
    173 H173        2.8387  -14.5491  -44.8593 H         1 UNK         0.0600 
    174 H174        0.6214  -13.3450  -44.7763 H         1 UNK         0.3000 
    175 H175       -2.6419  -13.0504  -43.9018 H         1 UNK         0.0600 
    176 H176       -1.1418  -10.3955  -43.5937 H         1 UNK         0.0600 
    177 H177       -2.8288  -10.5696  -44.0780 H         1 UNK         0.0600 
    178 H178       -2.3245  -11.0507  -42.4675 H         1 UNK         0.0600 
    179 H179       -0.8091  -11.5948  -45.7273 H         1 UNK         0.3000 
    180 H180       -0.9883  -13.9706  -48.2416 H         1 UNK         0.0600 
    181 H181       -2.0709  -12.3308  -49.7444 H         1 UNK         0.0600 
    182 H182       -2.6816  -11.4226  -48.3608 H         1 UNK         0.0600 
    183 H183       -3.2675  -13.0509  -48.6799 H         1 UNK         0.0600 
    184 H184       -0.1571  -11.3464  -48.5766 H         1 UNK         0.3000 
    185 H185        2.3040  -11.2762  -48.7878 H         1 UNK         0.0600 
    186 H186        2.1058  -10.2514  -45.8803 H         1 UNK         0.0600 
    187 H187        2.9884   -9.4469  -47.1762 H         1 UNK         0.0600 
    188 H188        1.2397   -9.5744  -47.2557 H         1 UNK         0.0600 
    189 H189        3.2755  -12.9352  -46.6978 H         1 UNK         0.3000 
    190 H190       -1.5017  -21.0228  -47.1575 H         1 UNK         0.3000 
    191 H191       -3.5857  -22.0111  -48.7659 H         1 UNK         0.0600 
    192 H192       -3.7300  -20.6252  -46.0372 H         1 UNK         0.0600 
    193 H193       -5.0678  -20.7928  -47.1693 H         1 UNK         0.0600 
    194 H194       -3.6686  -19.8220  -47.6040 H         1 UNK         0.0600 
    195 H195       -2.5968  -23.0134  -45.4640 H         1 UNK         0.3000 
    196 H196       -4.6494  -24.9200  -45.0332 H         1 UNK         0.0600 
    197 H197       -3.0963  -25.7968  -43.2759 H         1 UNK         0.0600 
    198 H198       -3.2315  -24.0461  -43.2097 H         1 UNK         0.0600 
    199 H199       -1.7993  -24.7924  -43.9134 H         1 UNK         0.0600 
    200 H200       -1.3373  -25.3310  -46.4009 H         1 UNK         0.3000 
    201 H201       -1.5158  -28.1253  -46.8863 H         1 UNK         0.0600 
    202 H202        0.6327  -26.8974  -46.8011 H         1 UNK         0.0600 
    203 H203        0.2008  -25.9757  -48.2392 H         1 UNK         0.0600 
    204 H204        0.4718  -27.7115  -48.3503 H         1 UNK         0.0600 
    205 H205       -2.3763  -25.3206  -48.9052 H         1 UNK         0.3000 
    206 H206       -3.1451  -26.8819  -51.2263 H         1 UNK         0.0600 
    207 H207       -3.7363  -24.6906  -52.1269 H         1 UNK         0.0600 
    208 H208       -3.6495  -23.9403  -50.5367 H         1 UNK         0.0600 
    209 H209       -2.1910  -24.5535  -51.3205 H         1 UNK         0.0600 
    210 H210       -4.6703  -26.5778  -48.2953 H         1 UNK         0.3000 
    211 H211       -6.6783  -26.8871  -47.4442 H         1 UNK         0.0600 
    212 H212       -7.3913  -28.2209  -50.1107 H         1 UNK         0.0600 
    213 H213       -8.2091  -28.4632  -48.5727 H         1 UNK         0.0600 
    214 H214       -6.5510  -29.0041  -48.7730 H         1 UNK         0.0600 
    215 H215       -6.2517  -24.3723  -48.4460 H         1 UNK         0.3000 
    216 H216       -7.1028  -22.4042  -48.7620 H         1 UNK         0.0600 
    217 H217       -9.4519  -21.9092  -48.1791 H         1 UNK         0.0600 
    218 H218       -8.7463  -23.0201  -47.0154 H         1 UNK         0.0600 
    219 H219       -9.8643  -23.6158  -48.2422 H         1 UNK         0.0600 
    220 H220       -8.9137  -24.7886  -50.6532 H         1 UNK         0.3000 
    221 H221      -10.1147  -23.0901  -52.5292 H         1 UNK         0.0600 
    222 H222       -9.2545  -26.0190  -52.8134 H         1 UNK         0.0600 
    223 H223      -10.7834  -25.4445  -52.1493 H         1 UNK         0.0600 
    224 H224      -10.4176  -25.1991  -53.8501 H         1 UNK         0.0600 
    225 H225       -6.8229  -24.3785  -52.5428 H         1 UNK         0.3000 
    226 H226       -6.2697  -23.0911  -55.1951 H         1 UNK         0.0600 
    227 H227       -6.0895  -25.5578  -55.2528 H         1 UNK         0.0600 
    228 H228       -4.5067  -24.8262  -55.4370 H         1 UNK         0.0600 
    229 H229       -4.9712  -25.5406  -53.8959 H         1 UNK         0.0600 
    230 H230       -6.2219  -21.8939  -52.3799 H         1 UNK         0.3000 
    231 H231       -3.5154  -21.5465  -51.5725 H         1 UNK         0.0600 
    232 H232       -5.9924  -19.8389  -50.9911 H         1 UNK         0.0600 
    233 H233       -5.4503  -21.2302  -50.0556 H         1 UNK         0.0600 
    234 H234       -4.4747  -19.7718  -50.1033 H         1 UNK         0.0600 
    235 H235       -5.2239  -20.0562  -54.1332 H         1 UNK         0.3000 
    236 H236       -4.7392  -18.6911  -55.7640 H         1 UNK         0.0600 
    237 H237       -1.8560  -18.5954  -54.7401 H         1 UNK         0.0600 
    238 H238       -2.5191  -19.8123  -55.8307 H         1 UNK         0.0600 
    239 H239       -2.4112  -18.1341  -56.3409 H         1 UNK         0.0600 
    240 H240       -3.4829  -17.4221  -52.6902 H         1 UNK         0.3000 
    241 H241       -3.6381  -14.6544  -53.4764 H         1 UNK         0.0600 
    242 H242       -7.3982  -15.4588  -52.2590 H         1 UNK         0.3800 
    243 H243       -6.2858  -16.7303  -52.6932 H         1 UNK         0.3800 
    244 H244       -3.1703  -14.1347  -51.1047 H         1 UNK         0.0800 
    245 H245       -3.4597  -15.7945  -50.6557 H         1 UNK         0.0800 
    246 H246       -1.5615  -17.5126  -50.4867 H         1 UNK         0.0800 
    247 H247       -1.2671  -16.1237  -49.4698 H         1 UNK         0.0800 
@<TRIPOS>BOND
     1    1    2 1    
     2    1  127 1    
     3    1  128 1    
     4    1  129 1    
     5    2    3 2    
     6    2    4 am   BACKBONE|DICT|INTERRES
     7    4    5 1    
     8    4  130 1    
     9    5    6 1    
    10    5   65 1    
    11    5  131 1    
    12    6    7 1    
    13    6  132 1    
    14    6  133 1    
    15    7    8 1    
    16    8    9 1    
    17    8  134 1    
    18    8  135 1    
    19    9   10 ar   
    20    9   14 ar   
    21   10   11 ar   
    22   10  136 1    
    23   11   12 ar   
    24   11  126 1    
    25   12   13 ar   
    26   12  137 1    
    27   13   14 ar   
    28   13   15 1    
    29   14  138 1    
    30   15   16 1    
    31   15  139 1    
    32   15  140 1    
    33   16   17 1    
    34   17   18 1    
    35   17  141 1    
    36   17  142 1    
    37   18   19 1    
    38   18   67 1    
    39   18  143 1    
    40   19   20 am   BACKBONE|DICT|INTERRES
    41   19  144 1    
    42   20   21 2    
    43   20   22 1    
    44   22   23 1    
    45   22   24 1    
    46   22  145 1    
    47   23  146 1    
    48   23  147 1    
    49   23  148 1    
    50   24   25 am   BACKBONE|DICT|INTERRES
    51   24  149 1    
    52   25   26 2    
    53   25   27 1    
    54   27   28 1    
    55   27   29 1    
    56   27  150 1    
    57   28  151 1    
    58   28  152 1    
    59   28  153 1    
    60   29   30 am   BACKBONE|DICT|INTERRES
    61   29  154 1    
    62   30   31 2    
    63   30   32 1    
    64   32   33 1    
    65   32   34 1    
    66   32  155 1    
    67   33  156 1    
    68   33  157 1    
    69   33  158 1    
    70   34   35 am   BACKBONE|DICT|INTERRES
    71   34  159 1    
    72   35   36 2    
    73   35   37 1    
    74   37   38 1    
    75   37   39 1    
    76   37  160 1    
    77   38  161 1    
    78   38  162 1    
    79   38  163 1    
    80   39   40 am   BACKBONE|DICT|INTERRES
    81   39  164 1    
    82   40   41 2    
    83   40   42 1    
    84   42   43 1    
    85   42   44 1    
    86   42  165 1    
    87   43  166 1    
    88   43  167 1    
    89   43  168 1    
    90   44   45 am   BACKBONE|DICT|INTERRES
    91   44  169 1    
    92   45   46 2    
    93   45   47 1    
    94   47   48 1    
    95   47   49 1    
    96   47  170 1    
    97   48  171 1    
    98   48  172 1    
    99   48  173 1    
   100   49   50 am   BACKBONE|DICT|INTERRES
   101   49  174 1    
   102   50   51 2    
   103   50   52 1    
   104   52   53 1    
   105   52   54 1    
   106   52  175 1    
   107   53  176 1    
   108   53  177 1    
   109   53  178 1    
   110   54   55 am   BACKBONE|DICT|INTERRES
   111   54  179 1    
   112   55   56 2    
   113   55   57 1    
   114   57   58 1    
   115   57   59 1    
   116   57  180 1    
   117   58  181 1    
   118   58  182 1    
   119   58  183 1    
   120   59   60 am   BACKBONE|DICT|INTERRES
   121   59  184 1    
   122   60   61 2    
   123   60   62 1    
   124   62   63 1    
   125   62   64 1    
   126   62  185 1    
   127   63  186 1    
   128   63  187 1    
   129   63  188 1    
   130   64   65 am   BACKBONE|DICT|INTERRES
   131   64  189 1    
   132   65   66 2    
   133   67   68 2    
   134   67   69 am   BACKBONE|DICT|INTERRES
   135   69   70 1    
   136   69  190 1    
   137   70   71 1    
   138   70   72 1    
   139   70  191 1    
   140   71  192 1    
   141   71  193 1    
   142   71  194 1    
   143   72   73 2    
   144   72   74 am   BACKBONE|DICT|INTERRES
   145   74   75 1    
   146   74  195 1    
   147   75   76 1    
   148   75   77 1    
   149   75  196 1    
   150   76  197 1    
   151   76  198 1    
   152   76  199 1    
   153   77   78 2    
   154   77   79 am   BACKBONE|DICT|INTERRES
   155   79   80 1    
   156   79  200 1    
   157   80   81 1    
   158   80   82 1    
   159   80  201 1    
   160   81  202 1    
   161   81  203 1    
   162   81  204 1    
   163   82   83 2    
   164   82   84 am   BACKBONE|DICT|INTERRES
   165   84   85 1    
   166   84  205 1    
   167   85   86 1    
   168   85   87 1    
   169   85  206 1    
   170   86  207 1    
   171   86  208 1    
   172   86  209 1    
   173   87   88 2    
   174   87   89 am   BACKBONE|DICT|INTERRES
   175   89   90 1    
   176   89  210 1    
   177   90   91 1    
   178   90   92 1    
   179   90  211 1    
   180   91  212 1    
   181   91  213 1    
   182   91  214 1    
   183   92   93 2    
   184   92   94 am   BACKBONE|DICT|INTERRES
   185   94   95 1    
   186   94  215 1    
   187   95   96 1    
   188   95   97 1    
   189   95  216 1    
   190   96  217 1    
   191   96  218 1    
   192   96  219 1    
   193   97   98 2    
   194   97   99 am   BACKBONE|DICT|INTERRES
   195   99  100 1    
   196   99  220 1    
   197  100  101 1    
   198  100  102 1    
   199  100  221 1    
   200  101  222 1    
   201  101  223 1    
   202  101  224 1    
   203  102  103 2    
   204  102  104 am   BACKBONE|DICT|INTERRES
   205  104  105 1    
   206  104  225 1    
   207  105  106 1    
   208  105  107 1    
   209  105  226 1    
   210  106  227 1    
   211  106  228 1    
   212  106  229 1    
   213  107  108 2    
   214  107  109 am   BACKBONE|DICT|INTERRES
   215  109  110 1    
   216  109  230 1    
   217  110  111 1    
   218  110  112 1    
   219  110  231 1    
   220  111  232 1    
   221  111  233 1    
   222  111  234 1    
   223  112  113 2    
   224  112  114 am   BACKBONE|DICT|INTERRES
   225  114  115 1    
   226  114  235 1    
   227  115  116 1    
   228  115  117 1    
   229  115  236 1    
   230  116  237 1    
   231  116  238 1    
   232  116  239 1    
   233  117  118 2    
   234  117  119 am   BACKBONE|DICT|INTERRES
   235  119  120 1    
   236  119  240 1    
   237  120  121 1    
   238  120  124 1    
   239  120  241 1    
   240  121  122 am   BACKBONE|DICT|INTERRES
   241  121  123 2    
   242  122  242 1    
   243  122  243 1    
   244  124  125 1    
   245  124  244 1    
   246  124  245 1    
   247  125  126 1    
   248  126  246 1    
   249  126  247 1    
@<TRIPOS>SUBSTRUCTURE
     1 UNK         1 GROUP             0       ****    0 ROOT    
