@<TRIPOS>MOLECULE
3R540
247   249    1
SMALL
USER_CHARGES


@<TRIPOS>ATOM
      1 CA          7.4275  -11.0599  -49.2380 C.3       0 UNK        -0.1800 
      2 C           6.4662  -11.4743  -48.1336 C.2       0 UNK         0.5000 
      3 O           5.7899  -10.6224  -47.5563 O.2       0 UNK        -0.5000 
      4 N           6.3900  -12.7809  -47.8453 N.am      1 UNK        -0.5000 
      5 CA          5.5267  -13.3685  -46.8110 C.3       1 UNK         0.1400 
      6 C6          5.8830  -14.8462  -46.5093 C.3       23 UNK        -0.0398 
      7 S7          5.7874  -15.9477  -47.9638 S.3       23 UNK        -0.2404 
      8 C8          4.1380  -16.6873  -47.7445 C.3       23 UNK        -0.0205 
      9 C9          3.7797  -17.5473  -48.9411 C.ar      23 UNK        -0.0193 
     10 C10         3.2622  -16.9630  -50.1003 C.ar      23 UNK        -0.1150 
     11 C11         2.9593  -17.7465  -51.2202 C.ar      23 UNK        -0.0193 
     12 C12         3.1842  -19.1263  -51.1664 C.ar      23 UNK        -0.1150 
     13 C13         3.7038  -19.7194  -50.0112 C.ar      23 UNK        -0.0193 
     14 C14         3.9940  -18.9252  -48.9002 C.ar      23 UNK        -0.1150 
     15 C15         3.9769  -21.2148  -49.9648 C.3       23 UNK        -0.0205 
     16 S16         2.4445  -22.1857  -49.8648 S.3       23 UNK        -0.2404 
     17 C17         1.6733  -21.5236  -48.3438 C.3       23 UNK        -0.0398 
     18 CA          0.8349  -22.5654  -47.5648 C.3       11 UNK         0.1400 
     19 N           0.3012  -22.0054  -46.3201 N.am      11 UNK        -0.5000 
     20 C          -0.3299  -22.7180  -45.3752 C.2       10 UNK         0.5000 
     21 O          -0.4667  -23.9419  -45.4144 O.2       10 UNK        -0.5000 
     22 CA         -0.9577  -21.9230  -44.2168 C.3       10 UNK         0.1400 
     23 CB          0.1097  -21.5384  -43.1818 C.3       10 UNK        -0.1800 
     24 N          -1.6673  -20.7241  -44.6704 N.am      10 UNK        -0.5000 
     25 C          -2.7474  -20.7405  -45.4657 C.2       9 UNK         0.5000 
     26 O          -3.2784  -21.7717  -45.8700 O.2       9 UNK        -0.5000 
     27 CA         -3.3181  -19.3886  -45.9231 C.3       9 UNK         0.1400 
     28 CB         -4.2470  -18.8056  -44.8492 C.3       9 UNK        -0.1800 
     29 N          -2.2892  -18.4135  -46.2826 N.am      9 UNK        -0.5000 
     30 C          -1.3857  -18.5786  -47.2608 C.2       8 UNK         0.5000 
     31 O          -1.3033  -19.5913  -47.9559 O.2       8 UNK        -0.5000 
     32 CA         -0.3571  -17.4470  -47.4439 C.3       8 UNK         0.1400 
     33 CB         -1.0028  -16.2017  -48.0702 C.3       8 UNK        -0.1800 
     34 N           0.2804  -17.0796  -46.1810 N.am      8 UNK        -0.5000 
     35 C           1.0202  -17.9083  -45.4309 C.2       7 UNK         0.5000 
     36 O           1.3314  -19.0531  -45.7645 O.2       7 UNK        -0.5000 
     37 CA          1.4251  -17.3786  -44.0453 C.3       7 UNK         0.1400 
     38 CB          2.6564  -16.4640  -44.1404 C.3       7 UNK        -0.1800 
     39 N           0.3225  -16.6611  -43.3998 N.am      7 UNK        -0.5000 
     40 C          -0.7727  -17.2594  -42.9071 C.2       6 UNK         0.5000 
     41 O          -0.9578  -18.4746  -42.9453 O.2       6 UNK        -0.5000 
     42 CA         -1.8573  -16.3565  -42.2893 C.3       6 UNK         0.1400 
     43 CB         -1.5404  -16.0681  -40.8145 C.3       6 UNK        -0.1800 
     44 N          -2.0310  -15.0912  -43.0006 N.am      6 UNK        -0.5000 
     45 C          -2.4698  -14.9764  -44.2620 C.2       5 UNK         0.5000 
     46 O          -2.8126  -15.9316  -44.9557 O.2       5 UNK        -0.5000 
     47 CA         -2.4758  -13.5602  -44.8683 C.3       5 UNK         0.1400 
     48 CB         -3.8300  -12.8771  -44.6286 C.3       5 UNK        -0.1800 
     49 N          -1.4015  -12.6992  -44.3636 N.am      5 UNK        -0.5000 
     50 C          -0.0953  -12.9766  -44.4634 C.2       4 UNK         0.5000 
     51 O           0.3455  -14.0086  -44.9748 O.2       4 UNK        -0.5000 
     52 CA          0.8703  -11.9276  -43.8964 C.3       4 UNK         0.1400 
     53 CB          1.9630  -12.5762  -43.0293 C.3       4 UNK        -0.1800 
     54 N           1.4857  -11.2354  -45.0201 N.am      4 UNK        -0.5000 
     55 C           1.0406  -10.0859  -45.5467 C.2       3 UNK         0.5000 
     56 O           0.1379   -9.4132  -45.0468 O.2       3 UNK        -0.5000 
     57 CA          1.6925   -9.6091  -46.8625 C.3       3 UNK         0.1400 
     58 CB          2.8171   -8.6037  -46.5728 C.3       3 UNK        -0.1800 
     59 N           2.2331  -10.7039  -47.6682 N.am      3 UNK        -0.5000 
     60 C           1.5027  -11.6736  -48.2391 C.2       2 UNK         0.5000 
     61 O           0.2720  -11.6701  -48.2657 O.2       2 UNK        -0.5000 
     62 CA          2.2715  -12.8598  -48.8596 C.3       2 UNK         0.1400 
     63 CB          2.2987  -12.7391  -50.3905 C.3       2 UNK        -0.1800 
     64 N           3.6484  -13.0124  -48.3760 N.am      2 UNK        -0.5000 
     65 C           4.0196  -13.2129  -47.1017 C.2       1 UNK         0.5000 
     66 O           3.2269  -13.2670  -46.1651 O.2       1 UNK        -0.5000 
     67 C          -0.2956  -23.1657  -48.4258 C.2       11 UNK         0.5000 
     68 O          -0.1958  -24.3166  -48.8512 O.2       11 UNK        -0.5000 
     69 N          -1.3680  -22.3912  -48.6287 N.am      12 UNK        -0.5000 
     70 CA         -2.5392  -22.7962  -49.3975 C.3       12 UNK         0.1400 
     71 CB         -3.4646  -21.5923  -49.5677 C.3       12 UNK        -0.1800 
     72 C          -3.2896  -23.9937  -48.7916 C.2       12 UNK         0.5000 
     73 O          -3.7615  -24.8430  -49.5430 O.2       12 UNK        -0.5000 
     74 N          -3.3726  -24.0661  -47.4574 N.am      13 UNK        -0.5000 
     75 CA         -3.9451  -25.1941  -46.7237 C.3       13 UNK         0.1400 
     76 CB         -4.0803  -24.8370  -45.2362 C.3       13 UNK        -0.1800 
     77 C          -3.1229  -26.4812  -46.9063 C.2       13 UNK         0.5000 
     78 O          -3.7049  -27.5372  -47.1541 O.2       13 UNK        -0.5000 
     79 N          -1.7885  -26.3636  -46.8349 N.am      14 UNK        -0.5000 
     80 CA         -0.8464  -27.4579  -47.0858 C.3       14 UNK         0.1400 
     81 CB          0.5681  -27.0220  -46.6746 C.3       14 UNK        -0.1800 
     82 C          -0.8711  -27.9441  -48.5488 C.2       14 UNK         0.5000 
     83 O          -0.7680  -29.1465  -48.7934 O.2       14 UNK        -0.5000 
     84 N          -1.0454  -27.0060  -49.4891 N.am      15 UNK        -0.5000 
     85 CA         -1.2037  -27.2613  -50.9228 C.3       15 UNK         0.1400 
     86 CB         -0.9230  -25.9569  -51.6864 C.3       15 UNK        -0.1800 
     87 C          -2.5921  -27.8150  -51.3098 C.2       15 UNK         0.5000 
     88 O          -2.7627  -28.2451  -52.4513 O.2       15 UNK        -0.5000 
     89 N          -3.5544  -27.7755  -50.3750 N.am      16 UNK        -0.5000 
     90 CA         -4.9706  -28.1273  -50.5292 C.3       16 UNK         0.1400 
     91 CB         -5.1437  -29.6275  -50.8445 C.3       16 UNK        -0.1800 
     92 C          -5.7120  -27.2038  -51.5216 C.2       16 UNK         0.5000 
     93 O          -6.6146  -27.6463  -52.2338 O.2       16 UNK        -0.5000 
     94 N          -5.3310  -25.9213  -51.5267 N.am      17 UNK        -0.5000 
     95 CA         -5.8762  -24.8495  -52.3566 C.3       17 UNK         0.1400 
     96 CB         -4.7052  -24.0301  -52.9257 C.3       17 UNK        -0.1800 
     97 C          -6.8607  -23.9873  -51.5415 C.2       17 UNK         0.5000 
     98 O          -6.7795  -22.7556  -51.5594 O.2       17 UNK        -0.5000 
     99 N          -7.7516  -24.6648  -50.7996 N.am      18 UNK        -0.5000 
    100 CA        -8.8741  -24.1354  -50.0087 C.3       18 UNK         0.1400 
    101 CB        -9.9443  -23.5531  -50.9554 C.3       18 UNK        -0.1800 
    102 C         -8.4907  -23.1283  -48.9001 C.2       18 UNK         0.5000 
    103 O         -9.3673  -22.4260  -48.3948 O.2       18 UNK        -0.5000 
    104 N         -7.1928  -23.0505  -48.5660 N.am      19 UNK        -0.5000 
    105 CA        -6.5563  -22.0267  -47.7266 C.3       19 UNK         0.1400 
    106 CB        -7.0373  -22.1279  -46.2648 C.3       19 UNK        -0.1800 
    107 C         -6.6872  -20.5947  -48.3057 C.2       19 UNK         0.5000 
    108 O         -6.6019  -19.6260  -47.5500 O.2       19 UNK        -0.5000 
    109 N         -6.9077  -20.4843  -49.6256 N.am      20 UNK        -0.5000 
    110 CA        -7.2706  -19.2405  -50.3072 C.3       20 UNK         0.1400 
    111 CB        -8.5433  -19.5005  -51.1295 C.3       20 UNK        -0.1800 
    112 C         -6.1606  -18.6934  -51.2211 C.2       20 UNK         0.5000 
    113 O         -6.1381  -17.4864  -51.4717 O.2       20 UNK        -0.5000 
    114 N         -5.2801  -19.5679  -51.7298 N.am      21 UNK        -0.5000 
    115 CA        -4.1919  -19.2022  -52.6424 C.3       21 UNK         0.1400 
    116 CB        -3.5255  -20.4731  -53.1916 C.3       21 UNK        -0.1800 
    117 C         -3.1525  -18.2597  -52.0011 C.2       21 UNK         0.5000 
    118 O         -2.8941  -18.3439  -50.8003 O.2       21 UNK        -0.5000 
    119 N         -2.5824  -17.3723  -52.8247 N.am      22 UNK        -0.5000 
    120 CA        -1.6275  -16.3187  -52.4341 C.3       22 UNK         0.1400 
    121 C         -2.2319  -15.1696  -51.5609 C.2       22 UNK         0.5000 
    122 N         -3.5375  -15.1254  -51.3196 N.am      22 UNK        -0.7600 
    123 O         -1.5172  -14.2730  -51.1249 O.2       22 UNK        -0.5000 
    124 C124       -0.2984  -16.8991  -51.8614 C.3       23 UNK        -0.0398 
    125 S125        1.1500  -15.8659  -52.2698 S.3       23 UNK        -0.2404 
    126 C126        2.4618  -17.1087  -52.5145 C.3       23 UNK        -0.0205 
    127 H127        6.8842  -10.5604  -50.0400 H         1 UNK         0.0600 
    128 H128        7.9504  -11.9170  -49.6631 H         1 UNK         0.0600 
    129 H129        8.1722  -10.3671  -48.8460 H         1 UNK         0.0600 
    130 H130        6.9572  -13.4397  -48.3610 H         1 UNK         0.3000 
    131 H131        5.7120  -12.8048  -45.8940 H         1 UNK         0.0600 
    132 H132        6.9036  -14.8961  -46.1276 H         1 UNK         0.0800 
    133 H133        5.2571  -15.2401  -45.7061 H         1 UNK         0.0800 
    134 H134        4.1274  -17.2855  -46.8327 H         1 UNK         0.0800 
    135 H135        3.3796  -15.9150  -47.6158 H         1 UNK         0.0800 
    136 H136        3.1167  -15.8930  -50.1354 H         1 UNK         0.1150 
    137 H137        2.9701  -19.7426  -52.0284 H         1 UNK         0.1150 
    138 H138        4.4027  -19.3765  -48.0069 H         1 UNK         0.1150 
    139 H139        4.5249  -21.5094  -50.8609 H         1 UNK         0.0800 
    140 H140        4.6175  -21.4681  -49.1186 H         1 UNK         0.0800 
    141 H141        1.0660  -20.6593  -48.6169 H         1 UNK         0.0800 
    142 H142        2.4585  -21.1423  -47.6897 H         1 UNK         0.0800 
    143 H143        1.5002  -23.3860  -47.2876 H         1 UNK         0.0600 
    144 H144        0.3716  -21.0005  -46.2066 H         1 UNK         0.3000 
    145 H145       -1.6849  -22.5738  -43.7271 H         1 UNK         0.0600 
    146 H146       -0.3433  -21.0833  -42.3010 H         1 UNK         0.0600 
    147 H147        0.6629  -22.4158  -42.8444 H         1 UNK         0.0600 
    148 H148        0.8313  -20.8302  -43.5907 H         1 UNK         0.0600 
    149 H149       -1.3220  -19.8341  -44.3242 H         1 UNK         0.3000 
    150 H150       -3.9151  -19.5700  -46.8181 H         1 UNK         0.0600 
    151 H151       -5.0295  -19.5171  -44.5822 H         1 UNK         0.0600 
    152 H152       -4.7417  -17.9022  -45.2060 H         1 UNK         0.0600 
    153 H153       -3.7025  -18.5558  -43.9386 H         1 UNK         0.0600 
    154 H154       -2.3087  -17.5342  -45.7714 H         1 UNK         0.3000 
    155 H155        0.4169  -17.8098  -48.1241 H         1 UNK         0.0600 
    156 H156       -1.6174  -16.4697  -48.9295 H         1 UNK         0.0600 
    157 H157       -0.2470  -15.4950  -48.4135 H         1 UNK         0.0600 
    158 H158       -1.6510  -15.6813  -47.3661 H         1 UNK         0.0600 
    159 H159        0.0874  -16.1529  -45.8213 H         1 UNK         0.3000 
    160 H160        1.6878  -18.2352  -43.4206 H         1 UNK         0.0600 
    161 H161        2.4895  -15.6244  -44.8160 H         1 UNK         0.0600 
    162 H162        3.5202  -17.0163  -44.5105 H         1 UNK         0.0600 
    163 H163        2.9256  -16.0596  -43.1646 H         1 UNK         0.0600 
    164 H164        0.3687  -15.6512  -43.4148 H         1 UNK         0.3000 
    165 H165       -2.8042  -16.8981  -42.3337 H         1 UNK         0.0600 
    166 H166       -2.3425  -15.5007  -40.3422 H         1 UNK         0.0600 
    167 H167       -1.4252  -16.9956  -40.2519 H         1 UNK         0.0600 
    168 H168       -0.6158  -15.5000  -40.7039 H         1 UNK         0.0600 
    169 H169       -1.7691  -14.2508  -42.5074 H         1 UNK         0.3000 
    170 H170       -2.3321  -13.6660  -45.9456 H         1 UNK         0.0600 
    171 H171       -4.6482  -13.4868  -45.0145 H         1 UNK         0.0600 
    172 H172       -4.0159  -12.7121  -43.5666 H         1 UNK         0.0600 
    173 H173       -3.8802  -11.9121  -45.1333 H         1 UNK         0.0600 
    174 H174       -1.6844  -11.8216  -43.9510 H         1 UNK         0.3000 
    175 H175        0.3183  -11.2261  -43.2674 H         1 UNK         0.0600 
    176 H176        2.5598  -13.2956  -43.5904 H         1 UNK         0.0600 
    177 H177        2.6418  -11.8241  -42.6274 H         1 UNK         0.0600 
    178 H178        1.5244  -13.1057  -42.1828 H         1 UNK         0.0600 
    179 H179        2.1739  -11.7818  -45.5313 H         1 UNK         0.3000 
    180 H180        0.9223   -9.1050  -47.4498 H         1 UNK         0.0600 
    181 H181        3.6294   -9.0622  -46.0071 H         1 UNK         0.0600 
    182 H182        2.4465   -7.7584  -45.9914 H         1 UNK         0.0600 
    183 H183        3.2368   -8.2039  -47.4962 H         1 UNK         0.0600 
    184 H184        3.2406  -10.7848  -47.6995 H         1 UNK         0.3000 
    185 H185        1.7299  -13.7704  -48.5950 H         1 UNK         0.0600 
    186 H186        1.2864  -12.7048  -50.7962 H         1 UNK         0.0600 
    187 H187        2.8148  -11.8341  -50.7131 H         1 UNK         0.0600 
    188 H188        2.7993  -13.5918  -50.8485 H         1 UNK         0.0600 
    189 H189        4.3761  -12.9764  -49.0745 H         1 UNK         0.3000 
    190 H190       -1.3680  -21.4401  -48.2652 H         1 UNK         0.3000 
    191 H191       -2.1955  -23.0953  -50.3892 H         1 UNK         0.0600 
    192 H192       -2.9631  -20.8084  -50.1296 H         1 UNK         0.0600 
    193 H193       -4.3722  -21.8627  -50.1071 H         1 UNK         0.0600 
    194 H194       -3.7448  -21.1612  -48.6087 H         1 UNK         0.0600 
    195 H195       -3.0398  -23.2837  -46.8982 H         1 UNK         0.3000 
    196 H196       -4.9464  -25.3779  -47.1192 H         1 UNK         0.0600 
    197 H197       -4.5087  -25.6661  -44.6719 H         1 UNK         0.0600 
    198 H198       -4.7342  -23.9766  -45.0955 H         1 UNK         0.0600 
    199 H199       -3.1149  -24.5977  -44.7895 H         1 UNK         0.0600 
    200 H200       -1.3867  -25.4593  -46.6114 H         1 UNK         0.3000 
    201 H201       -1.1371  -28.2995  -46.4538 H         1 UNK         0.0600 
    202 H202        0.6027  -26.7407  -45.6219 H         1 UNK         0.0600 
    203 H203        0.9148  -26.1690  -47.2583 H         1 UNK         0.0600 
    204 H204        1.2839  -27.8320  -46.8195 H         1 UNK         0.0600 
    205 H205       -1.0305  -26.0307  -49.2027 H         1 UNK         0.3000 
    206 H206       -0.4598  -28.0011  -51.2250 H         1 UNK         0.0600 
    207 H207        0.0647  -25.5619  -51.4473 H         1 UNK         0.0600 
    208 H208       -0.9563  -26.1179  -52.7645 H         1 UNK         0.0600 
    209 H209       -1.6586  -25.1887  -51.4481 H         1 UNK         0.0600 
    210 H210       -3.3064  -27.3840  -49.4758 H         1 UNK         0.3000 
    211 H211       -5.4278  -27.9454  -49.5555 H         1 UNK         0.0600 
    212 H212       -4.7785  -29.8799  -51.8402 H         1 UNK         0.0600 
    213 H213       -6.1944  -29.9164  -50.8008 H         1 UNK         0.0600 
    214 H214       -4.6084  -30.2453  -50.1234 H         1 UNK         0.0600 
    215 H215       -4.6304  -25.6291  -50.8451 H         1 UNK         0.3000 
    216 H216       -6.4322  -25.2698  -53.1967 H         1 UNK         0.0600 
    217 H217       -5.0666  -23.2714  -53.6197 H         1 UNK         0.0600 
    218 H218       -4.0100  -24.6658  -53.4744 H         1 UNK         0.0600 
    219 H219       -4.1447  -23.5249  -52.1388 H         1 UNK         0.0600 
    220 H220       -7.6984  -25.6733  -50.8406 H         1 UNK         0.3000 
    221 H221       -9.3148  -24.9911  -49.4954 H         1 UNK         0.0600 
    222 H222       -9.5889  -22.6540  -51.4601 H         1 UNK         0.0600 
    223 H223      -10.2301  -24.2756  -51.7198 H         1 UNK         0.0600 
    224 H224      -10.8513  -23.2860  -50.4118 H         1 UNK         0.0600 
    225 H225       -6.5632  -23.6762  -49.0476 H         1 UNK         0.3000 
    226 H226       -5.4953  -22.2619  -47.7178 H         1 UNK         0.0600 
    227 H227       -6.9726  -23.1521  -45.8982 H         1 UNK         0.0600 
    228 H228       -6.4199  -21.5116  -45.6103 H         1 UNK         0.0600 
    229 H229       -8.0688  -21.7941  -46.1510 H         1 UNK         0.0600 
    230 H230       -6.9514  -21.3296  -50.1870 H         1 UNK         0.3000 
    231 H231       -7.5000  -18.4605  -49.5783 H         1 UNK         0.0600 
    232 H232       -8.3820  -20.2679  -51.8880 H         1 UNK         0.0600 
    233 H233       -8.8729  -18.5951  -51.6408 H         1 UNK         0.0600 
    234 H234       -9.3631  -19.8304  -50.4908 H         1 UNK         0.0600 
    235 H235       -5.3673  -20.5429  -51.4865 H         1 UNK         0.3000 
    236 H236       -4.6452  -18.6754  -53.4849 H         1 UNK         0.0600 
    237 H237       -4.2400  -21.0733  -53.7535 H         1 UNK         0.0600 
    238 H238       -2.7111  -20.2246  -53.8732 H         1 UNK         0.0600 
    239 H239       -3.1085  -21.0963  -52.4021 H         1 UNK         0.0600 
    240 H240       -2.8594  -17.3630  -53.7961 H         1 UNK         0.3000 
    241 H241       -1.3885  -15.8339  -53.3813 H         1 UNK         0.0600 
    242 H242       -3.9087  -14.3675  -50.7696 H         1 UNK         0.3800 
    243 H243       -4.1527  -15.8579  -51.6407 H         1 UNK         0.3800 
    244 H244       -0.3515  -17.0383  -50.7822 H         1 UNK         0.0800 
    245 H245       -0.1226  -17.8930  -52.2747 H         1 UNK         0.0800 
    246 H246        2.1086  -17.8675  -53.2144 H         1 UNK         0.0800 
    247 H247        3.3093  -16.6209  -52.9973 H         1 UNK         0.0800 
@<TRIPOS>BOND
     1    1    2 1    
     2    1  127 1    
     3    1  128 1    
     4    1  129 1    
     5    2    3 2    
     6    2    4 am   BACKBONE|DICT|INTERRES
     7    4    5 1    
     8    4  130 1    
     9    5    6 1    
    10    5   65 1    
    11    5  131 1    
    12    6    7 1    
    13    6  132 1    
    14    6  133 1    
    15    7    8 1    
    16    8    9 1    
    17    8  134 1    
    18    8  135 1    
    19    9   10 ar   
    20    9   14 ar   
    21   10   11 ar   
    22   10  136 1    
    23   11   12 ar   
    24   11  126 1    
    25   12   13 ar   
    26   12  137 1    
    27   13   14 ar   
    28   13   15 1    
    29   14  138 1    
    30   15   16 1    
    31   15  139 1    
    32   15  140 1    
    33   16   17 1    
    34   17   18 1    
    35   17  141 1    
    36   17  142 1    
    37   18   19 1    
    38   18   67 1    
    39   18  143 1    
    40   19   20 am   BACKBONE|DICT|INTERRES
    41   19  144 1    
    42   20   21 2    
    43   20   22 1    
    44   22   23 1    
    45   22   24 1    
    46   22  145 1    
    47   23  146 1    
    48   23  147 1    
    49   23  148 1    
    50   24   25 am   BACKBONE|DICT|INTERRES
    51   24  149 1    
    52   25   26 2    
    53   25   27 1    
    54   27   28 1    
    55   27   29 1    
    56   27  150 1    
    57   28  151 1    
    58   28  152 1    
    59   28  153 1    
    60   29   30 am   BACKBONE|DICT|INTERRES
    61   29  154 1    
    62   30   31 2    
    63   30   32 1    
    64   32   33 1    
    65   32   34 1    
    66   32  155 1    
    67   33  156 1    
    68   33  157 1    
    69   33  158 1    
    70   34   35 am   BACKBONE|DICT|INTERRES
    71   34  159 1    
    72   35   36 2    
    73   35   37 1    
    74   37   38 1    
    75   37   39 1    
    76   37  160 1    
    77   38  161 1    
    78   38  162 1    
    79   38  163 1    
    80   39   40 am   BACKBONE|DICT|INTERRES
    81   39  164 1    
    82   40   41 2    
    83   40   42 1    
    84   42   43 1    
    85   42   44 1    
    86   42  165 1    
    87   43  166 1    
    88   43  167 1    
    89   43  168 1    
    90   44   45 am   BACKBONE|DICT|INTERRES
    91   44  169 1    
    92   45   46 2    
    93   45   47 1    
    94   47   48 1    
    95   47   49 1    
    96   47  170 1    
    97   48  171 1    
    98   48  172 1    
    99   48  173 1    
   100   49   50 am   BACKBONE|DICT|INTERRES
   101   49  174 1    
   102   50   51 2    
   103   50   52 1    
   104   52   53 1    
   105   52   54 1    
   106   52  175 1    
   107   53  176 1    
   108   53  177 1    
   109   53  178 1    
   110   54   55 am   BACKBONE|DICT|INTERRES
   111   54  179 1    
   112   55   56 2    
   113   55   57 1    
   114   57   58 1    
   115   57   59 1    
   116   57  180 1    
   117   58  181 1    
   118   58  182 1    
   119   58  183 1    
   120   59   60 am   BACKBONE|DICT|INTERRES
   121   59  184 1    
   122   60   61 2    
   123   60   62 1    
   124   62   63 1    
   125   62   64 1    
   126   62  185 1    
   127   63  186 1    
   128   63  187 1    
   129   63  188 1    
   130   64   65 am   BACKBONE|DICT|INTERRES
   131   64  189 1    
   132   65   66 2    
   133   67   68 2    
   134   67   69 am   BACKBONE|DICT|INTERRES
   135   69   70 1    
   136   69  190 1    
   137   70   71 1    
   138   70   72 1    
   139   70  191 1    
   140   71  192 1    
   141   71  193 1    
   142   71  194 1    
   143   72   73 2    
   144   72   74 am   BACKBONE|DICT|INTERRES
   145   74   75 1    
   146   74  195 1    
   147   75   76 1    
   148   75   77 1    
   149   75  196 1    
   150   76  197 1    
   151   76  198 1    
   152   76  199 1    
   153   77   78 2    
   154   77   79 am   BACKBONE|DICT|INTERRES
   155   79   80 1    
   156   79  200 1    
   157   80   81 1    
   158   80   82 1    
   159   80  201 1    
   160   81  202 1    
   161   81  203 1    
   162   81  204 1    
   163   82   83 2    
   164   82   84 am   BACKBONE|DICT|INTERRES
   165   84   85 1    
   166   84  205 1    
   167   85   86 1    
   168   85   87 1    
   169   85  206 1    
   170   86  207 1    
   171   86  208 1    
   172   86  209 1    
   173   87   88 2    
   174   87   89 am   BACKBONE|DICT|INTERRES
   175   89   90 1    
   176   89  210 1    
   177   90   91 1    
   178   90   92 1    
   179   90  211 1    
   180   91  212 1    
   181   91  213 1    
   182   91  214 1    
   183   92   93 2    
   184   92   94 am   BACKBONE|DICT|INTERRES
   185   94   95 1    
   186   94  215 1    
   187   95   96 1    
   188   95   97 1    
   189   95  216 1    
   190   96  217 1    
   191   96  218 1    
   192   96  219 1    
   193   97   98 2    
   194   97   99 am   BACKBONE|DICT|INTERRES
   195   99  100 1    
   196   99  220 1    
   197  100  101 1    
   198  100  102 1    
   199  100  221 1    
   200  101  222 1    
   201  101  223 1    
   202  101  224 1    
   203  102  103 2    
   204  102  104 am   BACKBONE|DICT|INTERRES
   205  104  105 1    
   206  104  225 1    
   207  105  106 1    
   208  105  107 1    
   209  105  226 1    
   210  106  227 1    
   211  106  228 1    
   212  106  229 1    
   213  107  108 2    
   214  107  109 am   BACKBONE|DICT|INTERRES
   215  109  110 1    
   216  109  230 1    
   217  110  111 1    
   218  110  112 1    
   219  110  231 1    
   220  111  232 1    
   221  111  233 1    
   222  111  234 1    
   223  112  113 2    
   224  112  114 am   BACKBONE|DICT|INTERRES
   225  114  115 1    
   226  114  235 1    
   227  115  116 1    
   228  115  117 1    
   229  115  236 1    
   230  116  237 1    
   231  116  238 1    
   232  116  239 1    
   233  117  118 2    
   234  117  119 am   BACKBONE|DICT|INTERRES
   235  119  120 1    
   236  119  240 1    
   237  120  121 1    
   238  120  124 1    
   239  120  241 1    
   240  121  122 am   BACKBONE|DICT|INTERRES
   241  121  123 2    
   242  122  242 1    
   243  122  243 1    
   244  124  125 1    
   245  124  244 1    
   246  124  245 1    
   247  125  126 1    
   248  126  246 1    
   249  126  247 1    
@<TRIPOS>SUBSTRUCTURE
     1 UNK         1 GROUP             0       ****    0 ROOT    
