@<TRIPOS>MOLECULE
3R540
247   249    1
SMALL
USER_CHARGES


@<TRIPOS>ATOM
      1 CA          2.9381  -15.6171  -47.3904 C.3       0 UNK        -0.1800 
      2 C           1.9782  -14.4380  -47.3320 C.2       0 UNK         0.5000 
      3 O           1.0464  -14.4444  -46.5310 O.2       0 UNK        -0.5000 
      4 N           2.1925  -13.4261  -48.1820 N.am      1 UNK        -0.5000 
      5 CA          1.3104  -12.2569  -48.3135 C.3       1 UNK         0.1400 
      6 C6          1.4842  -11.5262  -49.6713 C.3       23 UNK        -0.0398 
      7 S7          1.4942  -12.6042  -51.1454 S.3       23 UNK        -0.2404 
      8 C8         -0.1966  -13.2797  -51.1695 C.3       23 UNK        -0.0205 
      9 C9         -0.1679  -14.7902  -50.9980 C.ar      23 UNK        -0.0193 
     10 C10         0.1250  -15.6087  -52.0926 C.ar      23 UNK        -0.1150 
     11 C11         0.1917  -16.9968  -51.9467 C.ar      23 UNK        -0.0193 
     12 C12        -0.0417  -17.5667  -50.6919 C.ar      23 UNK        -0.1150 
     13 C13        -0.3379  -16.7590  -49.5894 C.ar      23 UNK        -0.0193 
     14 C14        -0.4084  -15.3723  -49.7502 C.ar      23 UNK        -0.1150 
     15 C15        -0.5655  -17.3843  -48.2233 C.3       23 UNK        -0.0205 
     16 S16        -2.3291  -17.7154  -47.9517 S.3       23 UNK        -0.2404 
     17 C17        -2.2725  -18.7964  -46.4862 C.3       23 UNK        -0.0398 
     18 CA         -2.4152  -20.2768  -46.8930 C.3       11 UNK         0.1400 
     19 N          -1.2129  -20.8097  -47.5324 N.am      11 UNK        -0.5000 
     20 C          -1.1957  -21.9449  -48.2411 C.2       10 UNK         0.5000 
     21 O          -2.2041  -22.6140  -48.4577 O.2       10 UNK        -0.5000 
     22 CA          0.1652  -22.4396  -48.7637 C.3       10 UNK         0.1400 
     23 CB          0.3345  -22.0713  -50.2454 C.3       10 UNK        -0.1800 
     24 N           1.3086  -21.9300  -48.0003 N.am      10 UNK        -0.5000 
     25 C           1.5396  -22.1746  -46.7023 C.2       9 UNK         0.5000 
     26 O           0.8125  -22.8947  -46.0125 O.2       9 UNK        -0.5000 
     27 CA          2.7712  -21.4923  -46.0670 C.3       9 UNK         0.1400 
     28 CB          3.1894  -20.1865  -46.7831 C.3       9 UNK        -0.1800 
     29 N           2.6025  -21.2466  -44.6302 N.am      9 UNK        -0.5000 
     30 C           1.6601  -20.4938  -44.0436 C.2       8 UNK         0.5000 
     31 O           0.7525  -19.9269  -44.6609 O.2       8 UNK        -0.5000 
     32 CA          1.7508  -20.3761  -42.5088 C.3       8 UNK         0.1400 
     33 CB          3.1720  -20.0208  -42.0318 C.3       8 UNK        -0.1800 
     34 N           0.8401  -19.3369  -42.0456 N.am      8 UNK        -0.5000 
     35 C          -0.0549  -19.4436  -41.0559 C.2       7 UNK         0.5000 
     36 O          -0.1710  -20.4468  -40.3508 O.2       7 UNK        -0.5000 
     37 CA         -0.9739  -18.2294  -40.7903 C.3       7 UNK         0.1400 
     38 CB         -0.7415  -17.6696  -39.3779 C.3       7 UNK        -0.1800 
     39 N          -0.7912  -17.1532  -41.7678 N.am      7 UNK        -0.5000 
     40 C          -1.2859  -17.1729  -43.0149 C.2       6 UNK         0.5000 
     41 O          -2.0873  -18.0227  -43.4012 O.2       6 UNK        -0.5000 
     42 CA         -0.7919  -16.0975  -44.0073 C.3       6 UNK         0.1400 
     43 CB         -1.9345  -15.1526  -44.4071 C.3       6 UNK        -0.1800 
     44 N           0.3377  -15.3095  -43.5093 N.am      6 UNK        -0.5000 
     45 C           1.5872  -15.7753  -43.3534 C.2       5 UNK         0.5000 
     46 O           1.9214  -16.9233  -43.6447 O.2       5 UNK        -0.5000 
     47 CA          2.6270  -14.8345  -42.7059 C.3       5 UNK         0.1400 
     48 CB          3.5277  -14.2044  -43.7769 C.3       5 UNK        -0.1800 
     49 N           2.0393  -13.7718  -41.8854 N.am      5 UNK        -0.5000 
     50 C           1.2667  -13.9734  -40.8069 C.2       4 UNK         0.5000 
     51 O           1.0354  -15.0894  -40.3428 O.2       4 UNK        -0.5000 
     52 CA          0.5907  -12.7429  -40.1695 C.3       4 UNK         0.1400 
     53 CB          1.3482  -12.3096  -38.9057 C.3       4 UNK        -0.1800 
     54 N           0.4637  -11.5907  -41.0654 N.am      4 UNK        -0.5000 
     55 C          -0.1869  -11.5660  -42.2376 C.2       3 UNK         0.5000 
     56 O          -0.7851  -12.5340  -42.7080 O.2       3 UNK        -0.5000 
     57 CA         -0.1229  -10.2523  -43.0421 C.3       3 UNK         0.1400 
     58 CB          0.1173   -9.0040  -42.1647 C.3       3 UNK        -0.1800 
     59 N           0.8669  -10.2998  -44.1235 N.am      3 UNK        -0.5000 
     60 C           2.1681  -10.6112  -44.0442 C.2       2 UNK         0.5000 
     61 O           2.7176  -11.0168  -43.0177 O.2       2 UNK        -0.5000 
     62 CA          2.9888  -10.4302  -45.3391 C.3       2 UNK         0.1400 
     63 CB          4.5023  -10.5942  -45.1091 C.3       2 UNK        -0.1800 
     64 N           2.5821  -11.3409  -46.4094 N.am      2 UNK        -0.5000 
     65 C           1.4734  -11.2454  -47.1564 C.2       1 UNK         0.5000 
     66 O           0.6120  -10.3812  -46.9827 O.2       1 UNK        -0.5000 
     67 C          -2.9017  -21.1707  -45.7363 C.2       11 UNK         0.5000 
     68 O          -4.1134  -21.3333  -45.5799 O.2       11 UNK        -0.5000 
     69 N          -1.9665  -21.7903  -45.0065 N.am      12 UNK        -0.5000 
     70 CA         -2.2659  -22.8125  -44.0094 C.3       12 UNK         0.1400 
     71 CB         -1.1566  -22.8286  -42.9485 C.3       12 UNK        -0.1800 
     72 C          -2.4193  -24.1985  -44.6573 C.2       12 UNK         0.5000 
     73 O          -3.4061  -24.8874  -44.3975 O.2       12 UNK        -0.5000 
     74 N          -1.4309  -24.5889  -45.4735 N.am      13 UNK        -0.5000 
     75 CA         -1.2800  -25.9493  -45.9927 C.3       13 UNK         0.1400 
     76 CB          0.1624  -26.1348  -46.4886 C.3       13 UNK        -0.1800 
     77 C          -2.2776  -26.3349  -47.0999 C.2       13 UNK         0.5000 
     78 O          -2.5665  -27.5228  -47.2503 O.2       13 UNK        -0.5000 
     79 N          -2.7666  -25.3506  -47.8632 N.am      14 UNK        -0.5000 
     80 CA         -3.6016  -25.5488  -49.0483 C.3       14 UNK         0.1400 
     81 CB         -2.7342  -25.3688  -50.3074 C.3       14 UNK        -0.1800 
     82 C          -4.8479  -24.6443  -49.0359 C.2       14 UNK         0.5000 
     83 O          -5.3658  -24.3183  -50.1060 O.2       14 UNK        -0.5000 
     84 N          -5.3127  -24.2884  -47.8259 N.am      15 UNK        -0.5000 
     85 CA         -6.5670  -23.5946  -47.5040 C.3       15 UNK         0.1400 
     86 CB         -7.7648  -24.5284  -47.7728 C.3       15 UNK        -0.1800 
     87 C          -6.7127  -22.2448  -48.2313 C.2       15 UNK         0.5000 
     88 O          -7.3903  -22.1641  -49.2566 O.2       15 UNK        -0.5000 
     89 N          -6.0203  -21.2167  -47.7190 N.am      16 UNK        -0.5000 
     90 CA         -5.9015  -19.8710  -48.3057 C.3       16 UNK         0.1400 
     91 CB         -7.2646  -19.1477  -48.3201 C.3       16 UNK        -0.1800 
     92 C          -5.2167  -19.8866  -49.6928 C.2       16 UNK         0.5000 
     93 O          -5.4586  -19.0001  -50.5123 O.2       16 UNK        -0.5000 
     94 N          -4.3970  -20.9250  -49.9248 N.am      17 UNK        -0.5000 
     95 CA         -3.7091  -21.2872  -51.1633 C.3       17 UNK         0.1400 
     96 CB         -2.6784  -20.2115  -51.5583 C.3       17 UNK        -0.1800 
     97 C          -4.6576  -21.6595  -52.3202 C.2       17 UNK         0.5000 
     98 O          -4.1975  -21.7564  -53.4570 O.2       17 UNK        -0.5000 
     99 N          -5.9461  -21.8965  -52.0324 N.am      18 UNK        -0.5000 
    100 CA        -6.9768  -22.1928  -53.0263 C.3       18 UNK         0.1400 
    101 CB        -8.3639  -22.0833  -52.3772 C.3       18 UNK        -0.1800 
    102 C         -6.7993  -23.5679  -53.6899 C.2       18 UNK         0.5000 
    103 O         -7.0815  -23.6991  -54.8814 O.2       18 UNK        -0.5000 
    104 N         -6.3193  -24.5598  -52.9258 N.am      19 UNK        -0.5000 
    105 CA        -6.0483  -25.9069  -53.4334 C.3       19 UNK         0.1400 
    106 CB        -6.0586  -26.9068  -52.2668 C.3       19 UNK        -0.1800 
    107 C         -4.7262  -25.9862  -54.2216 C.2       19 UNK         0.5000 
    108 O         -4.5914  -26.8492  -55.0897 O.2       19 UNK        -0.5000 
    109 N         -3.7806  -25.0892  -53.9109 N.am      20 UNK        -0.5000 
    110 CA        -2.4774  -24.9942  -54.5702 C.3       20 UNK         0.1400 
    111 CB        -1.4424  -24.4693  -53.5604 C.3       20 UNK        -0.1800 
    112 C         -2.5035  -24.0803  -55.8068 C.2       20 UNK         0.5000 
    113 O         -1.6743  -24.2543  -56.7008 O.2       20 UNK        -0.5000 
    114 N         -3.3971  -23.0790  -55.8005 N.am      21 UNK        -0.5000 
    115 CA        -3.4894  -21.9557  -56.7427 C.3       21 UNK         0.1400 
    116 CB        -3.9344  -22.4470  -58.1354 C.3       21 UNK        -0.1800 
    117 C         -2.1964  -21.1075  -56.7847 C.2       21 UNK         0.5000 
    118 O         -1.8716  -20.5273  -57.8221 O.2       21 UNK        -0.5000 
    119 N         -1.4645  -21.0948  -55.6600 N.am      22 UNK        -0.5000 
    120 CA        -0.0943  -20.5750  -55.5042 C.3       22 UNK         0.1400 
    121 C          0.9832  -21.3056  -56.3703 C.2       22 UNK         0.5000 
    122 N          0.7249  -22.4944  -56.9047 N.am      22 UNK        -0.7600 
    123 O          2.0944  -20.8088  -56.5336 O.2       22 UNK        -0.5000 
    124 C124       -0.0144  -19.0257  -55.6124 C.3       23 UNK        -0.0398 
    125 S125       -0.8590  -18.1869  -54.2272 S.3       23 UNK        -0.2404 
    126 C126        0.5638  -17.8677  -53.1364 C.3       23 UNK        -0.0205 
    127 H127        3.1451  -15.9893  -46.3872 H         1 UNK         0.0600 
    128 H128        3.8852  -15.3415  -47.8544 H         1 UNK         0.0600 
    129 H129        2.4952  -16.4290  -47.9674 H         1 UNK         0.0600 
    130 H130        2.9546  -13.4774  -48.8434 H         1 UNK         0.3000 
    131 H131        0.2797  -12.6121  -48.2616 H         1 UNK         0.0600 
    132 H132        2.4251  -10.9727  -49.6827 H         1 UNK         0.0800 
    133 H133        0.6981  -10.7801  -49.8027 H         1 UNK         0.0800 
    134 H134       -0.6639  -13.0287  -52.1228 H         1 UNK         0.0800 
    135 H135       -0.8139  -12.8153  -50.3996 H         1 UNK         0.0800 
    136 H136        0.3191  -15.1623  -53.0580 H         1 UNK         0.1150 
    137 H137        0.0161  -18.6382  -50.5708 H         1 UNK         0.1150 
    138 H138       -0.6369  -14.7487  -48.8979 H         1 UNK         0.1150 
    139 H139        0.0065  -18.3087  -48.1412 H         1 UNK         0.0800 
    140 H140       -0.1985  -16.7233  -47.4373 H         1 UNK         0.0800 
    141 H141       -1.3543  -18.6333  -45.9209 H         1 UNK         0.0800 
    142 H142       -3.0956  -18.4913  -45.8376 H         1 UNK         0.0800 
    143 H143       -3.2023  -20.3274  -47.6389 H         1 UNK         0.0600 
    144 H144       -0.3441  -20.3307  -47.3510 H         1 UNK         0.3000 
    145 H145        0.1643  -23.5278  -48.6830 H         1 UNK         0.0600 
    146 H146        1.2503  -22.4971  -50.6553 H         1 UNK         0.0600 
    147 H147       -0.4939  -22.4555  -50.8422 H         1 UNK         0.0600 
    148 H148        0.3715  -20.9918  -50.3914 H         1 UNK         0.0600 
    149 H149        1.9542  -21.3366  -48.5007 H         1 UNK         0.3000 
    150 H150        3.5930  -22.2032  -46.1607 H         1 UNK         0.0600 
    151 H151        3.5213  -20.3765  -47.8042 H         1 UNK         0.0600 
    152 H152        4.0222  -19.7087  -46.2667 H         1 UNK         0.0600 
    153 H153        2.3731  -19.4640  -46.8256 H         1 UNK         0.0600 
    154 H154        3.2749  -21.7102  -44.0364 H         1 UNK         0.3000 
    155 H155        1.4660  -21.3442  -42.0929 H         1 UNK         0.0600 
    156 H156        3.1968  -19.8707  -40.9522 H         1 UNK         0.0600 
    157 H157        3.5339  -19.1054  -42.5024 H         1 UNK         0.0600 
    158 H158        3.8838  -20.8149  -42.2579 H         1 UNK         0.0600 
    159 H159        0.8500  -18.4956  -42.6114 H         1 UNK         0.3000 
    160 H160       -2.0056  -18.5825  -40.8464 H         1 UNK         0.0600 
    161 H161        0.3003  -17.3868  -39.2244 H         1 UNK         0.0600 
    162 H162       -0.9921  -18.4113  -38.6185 H         1 UNK         0.0600 
    163 H163       -1.3604  -16.7918  -39.1911 H         1 UNK         0.0600 
    164 H164       -0.1464  -16.4163  -41.5044 H         1 UNK         0.3000 
    165 H165       -0.4580  -16.6180  -44.9068 H         1 UNK         0.0600 
    166 H166       -2.3397  -14.6245  -43.5434 H         1 UNK         0.0600 
    167 H167       -1.5952  -14.4092  -45.1290 H         1 UNK         0.0600 
    168 H168       -2.7532  -15.7045  -44.8706 H         1 UNK         0.0600 
    169 H169        0.1319  -14.3528  -43.2426 H         1 UNK         0.3000 
    170 H170        3.2524  -15.4449  -42.0515 H         1 UNK         0.0600 
    171 H171        4.0416  -14.9718  -44.3563 H         1 UNK         0.0600 
    172 H172        2.9511  -13.5948  -44.4726 H         1 UNK         0.0600 
    173 H173        4.2924  -13.5717  -43.3265 H         1 UNK         0.0600 
    174 H174        2.1895  -12.8183  -42.2005 H         1 UNK         0.3000 
    175 H175       -0.4175  -13.0448  -39.8793 H         1 UNK         0.0600 
    176 H176        2.3571  -11.9676  -39.1405 H         1 UNK         0.0600 
    177 H177        0.8292  -11.5005  -38.3914 H         1 UNK         0.0600 
    178 H178        1.4374  -13.1366  -38.1999 H         1 UNK         0.0600 
    179 H179        0.9677  -10.7593  -40.7932 H         1 UNK         0.3000 
    180 H180       -1.0982  -10.1380  -43.5174 H         1 UNK         0.0600 
    181 H181       -0.6064   -8.9496  -41.3502 H         1 UNK         0.0600 
    182 H182        1.1158   -8.9901  -41.7263 H         1 UNK         0.0600 
    183 H183        0.0066   -8.0922  -42.7518 H         1 UNK         0.0600 
    184 H184        0.5145  -10.0760  -45.0498 H         1 UNK         0.3000 
    185 H185        2.8213   -9.4061  -45.6792 H         1 UNK         0.0600 
    186 H186        4.8558   -9.9172  -44.3303 H         1 UNK         0.0600 
    187 H187        4.7584  -11.6088  -44.8037 H         1 UNK         0.0600 
    188 H188        5.0652  -10.3653  -46.0142 H         1 UNK         0.0600 
    189 H189        3.2152  -12.0995  -46.6146 H         1 UNK         0.3000 
    190 H190       -0.9895  -21.6234  -45.2129 H         1 UNK         0.3000 
    191 H191       -3.2036  -22.5672  -43.5057 H         1 UNK         0.0600 
    192 H192       -1.3558  -23.5802  -42.1837 H         1 UNK         0.0600 
    193 H193       -1.0925  -21.8647  -42.4472 H         1 UNK         0.0600 
    194 H194       -0.1796  -23.0479  -43.3805 H         1 UNK         0.0600 
    195 H195       -0.6506  -23.9562  -45.6383 H         1 UNK         0.3000 
    196 H196       -1.4373  -26.6421  -45.1631 H         1 UNK         0.0600 
    197 H197        0.3308  -27.1563  -46.8322 H         1 UNK         0.0600 
    198 H198        0.8816  -25.9370  -45.6935 H         1 UNK         0.0600 
    199 H199        0.3914  -25.4676  -47.3193 H         1 UNK         0.0600 
    200 H200       -2.4821  -24.3905  -47.6941 H         1 UNK         0.3000 
    201 H201       -3.9943  -26.5672  -49.0644 H         1 UNK         0.0600 
    202 H202       -1.8962  -26.0657  -50.3072 H         1 UNK         0.0600 
    203 H203       -2.3267  -24.3620  -50.3813 H         1 UNK         0.0600 
    204 H204       -3.3052  -25.5583  -51.2137 H         1 UNK         0.0600 
    205 H205       -4.7759  -24.5971  -47.0271 H         1 UNK         0.3000 
    206 H206       -6.5461  -23.3843  -46.4334 H         1 UNK         0.0600 
    207 H207       -7.6891  -25.4442  -47.1866 H         1 UNK         0.0600 
    208 H208       -8.7041  -24.0451  -47.5017 H         1 UNK         0.0600 
    209 H209       -7.8342  -24.8101  -48.8244 H         1 UNK         0.0600 
    210 H210       -5.4688  -21.3732  -46.8773 H         1 UNK         0.3000 
    211 H211       -5.2491  -19.3004  -47.6447 H         1 UNK         0.0600 
    212 H212       -7.9562  -19.5930  -49.0357 H         1 UNK         0.0600 
    213 H213       -7.1455  -18.0990  -48.5946 H         1 UNK         0.0600 
    214 H214       -7.7350  -19.1727  -47.3373 H         1 UNK         0.0600 
    215 H215       -4.2831  -21.5997  -49.1803 H         1 UNK         0.3000 
    216 H216       -3.1568  -22.1988  -50.9385 H         1 UNK         0.0600 
    217 H217       -3.1583  -19.2954  -51.9035 H         1 UNK         0.0600 
    218 H218       -2.0312  -20.5626  -52.3625 H         1 UNK         0.0600 
    219 H219       -2.0383  -19.9543  -50.7149 H         1 UNK         0.0600 
    220 H220       -6.2472  -21.8754  -51.0641 H         1 UNK         0.3000 
    221 H221       -6.9099  -21.4351  -53.8099 H         1 UNK         0.0600 
    222 H222       -8.5079  -22.8431  -51.6081 H         1 UNK         0.0600 
    223 H223       -8.5086  -21.1067  -51.9147 H         1 UNK         0.0600 
    224 H224       -9.1529  -22.2144  -53.1187 H         1 UNK         0.0600 
    225 H225       -6.1036  -24.3783  -51.9482 H         1 UNK         0.3000 
    226 H226       -6.8522  -26.1913  -54.1160 H         1 UNK         0.0600 
    227 H227       -7.0122  -26.8851  -51.7392 H         1 UNK         0.0600 
    228 H228       -5.9089  -27.9257  -52.6261 H         1 UNK         0.0600 
    229 H229       -5.2735  -26.6980  -51.5423 H         1 UNK         0.0600 
    230 H230       -3.9903  -24.4032  -53.2015 H         1 UNK         0.3000 
    231 H231       -2.1570  -25.9853  -54.8985 H         1 UNK         0.0600 
    232 H232       -1.7476  -23.5189  -53.1208 H         1 UNK         0.0600 
    233 H233       -1.2890  -25.1821  -52.7512 H         1 UNK         0.0600 
    234 H234       -0.4722  -24.3148  -54.0350 H         1 UNK         0.0600 
    235 H235       -3.9670  -22.9632  -54.9690 H         1 UNK         0.3000 
    236 H236       -4.2702  -21.2987  -56.3570 H         1 UNK         0.0600 
    237 H237       -4.8450  -23.0425  -58.0692 H         1 UNK         0.0600 
    238 H238       -4.1448  -21.6068  -58.7979 H         1 UNK         0.0600 
    239 H239       -3.1681  -23.0570  -58.6145 H         1 UNK         0.0600 
    240 H240       -1.8463  -21.5712  -54.8563 H         1 UNK         0.3000 
    241 H241        0.1898  -20.8351  -54.4839 H         1 UNK         0.0600 
    242 H242       -0.1751  -22.9489  -56.7939 H         1 UNK         0.3800 
    243 H243        1.4409  -22.9498  -57.4480 H         1 UNK         0.3800 
    244 H244       -0.4531  -18.6812  -56.5491 H         1 UNK         0.0800 
    245 H245        1.0206  -18.6827  -55.6351 H         1 UNK         0.0800 
    246 H246        1.3556  -17.3740  -53.7019 H         1 UNK         0.0800 
    247 H247        0.9759  -18.8192  -52.7967 H         1 UNK         0.0800 
@<TRIPOS>BOND
     1    1    2 1    
     2    1  127 1    
     3    1  128 1    
     4    1  129 1    
     5    2    3 2    
     6    2    4 am   BACKBONE|DICT|INTERRES
     7    4    5 1    
     8    4  130 1    
     9    5    6 1    
    10    5   65 1    
    11    5  131 1    
    12    6    7 1    
    13    6  132 1    
    14    6  133 1    
    15    7    8 1    
    16    8    9 1    
    17    8  134 1    
    18    8  135 1    
    19    9   10 ar   
    20    9   14 ar   
    21   10   11 ar   
    22   10  136 1    
    23   11   12 ar   
    24   11  126 1    
    25   12   13 ar   
    26   12  137 1    
    27   13   14 ar   
    28   13   15 1    
    29   14  138 1    
    30   15   16 1    
    31   15  139 1    
    32   15  140 1    
    33   16   17 1    
    34   17   18 1    
    35   17  141 1    
    36   17  142 1    
    37   18   19 1    
    38   18   67 1    
    39   18  143 1    
    40   19   20 am   BACKBONE|DICT|INTERRES
    41   19  144 1    
    42   20   21 2    
    43   20   22 1    
    44   22   23 1    
    45   22   24 1    
    46   22  145 1    
    47   23  146 1    
    48   23  147 1    
    49   23  148 1    
    50   24   25 am   BACKBONE|DICT|INTERRES
    51   24  149 1    
    52   25   26 2    
    53   25   27 1    
    54   27   28 1    
    55   27   29 1    
    56   27  150 1    
    57   28  151 1    
    58   28  152 1    
    59   28  153 1    
    60   29   30 am   BACKBONE|DICT|INTERRES
    61   29  154 1    
    62   30   31 2    
    63   30   32 1    
    64   32   33 1    
    65   32   34 1    
    66   32  155 1    
    67   33  156 1    
    68   33  157 1    
    69   33  158 1    
    70   34   35 am   BACKBONE|DICT|INTERRES
    71   34  159 1    
    72   35   36 2    
    73   35   37 1    
    74   37   38 1    
    75   37   39 1    
    76   37  160 1    
    77   38  161 1    
    78   38  162 1    
    79   38  163 1    
    80   39   40 am   BACKBONE|DICT|INTERRES
    81   39  164 1    
    82   40   41 2    
    83   40   42 1    
    84   42   43 1    
    85   42   44 1    
    86   42  165 1    
    87   43  166 1    
    88   43  167 1    
    89   43  168 1    
    90   44   45 am   BACKBONE|DICT|INTERRES
    91   44  169 1    
    92   45   46 2    
    93   45   47 1    
    94   47   48 1    
    95   47   49 1    
    96   47  170 1    
    97   48  171 1    
    98   48  172 1    
    99   48  173 1    
   100   49   50 am   BACKBONE|DICT|INTERRES
   101   49  174 1    
   102   50   51 2    
   103   50   52 1    
   104   52   53 1    
   105   52   54 1    
   106   52  175 1    
   107   53  176 1    
   108   53  177 1    
   109   53  178 1    
   110   54   55 am   BACKBONE|DICT|INTERRES
   111   54  179 1    
   112   55   56 2    
   113   55   57 1    
   114   57   58 1    
   115   57   59 1    
   116   57  180 1    
   117   58  181 1    
   118   58  182 1    
   119   58  183 1    
   120   59   60 am   BACKBONE|DICT|INTERRES
   121   59  184 1    
   122   60   61 2    
   123   60   62 1    
   124   62   63 1    
   125   62   64 1    
   126   62  185 1    
   127   63  186 1    
   128   63  187 1    
   129   63  188 1    
   130   64   65 am   BACKBONE|DICT|INTERRES
   131   64  189 1    
   132   65   66 2    
   133   67   68 2    
   134   67   69 am   BACKBONE|DICT|INTERRES
   135   69   70 1    
   136   69  190 1    
   137   70   71 1    
   138   70   72 1    
   139   70  191 1    
   140   71  192 1    
   141   71  193 1    
   142   71  194 1    
   143   72   73 2    
   144   72   74 am   BACKBONE|DICT|INTERRES
   145   74   75 1    
   146   74  195 1    
   147   75   76 1    
   148   75   77 1    
   149   75  196 1    
   150   76  197 1    
   151   76  198 1    
   152   76  199 1    
   153   77   78 2    
   154   77   79 am   BACKBONE|DICT|INTERRES
   155   79   80 1    
   156   79  200 1    
   157   80   81 1    
   158   80   82 1    
   159   80  201 1    
   160   81  202 1    
   161   81  203 1    
   162   81  204 1    
   163   82   83 2    
   164   82   84 am   BACKBONE|DICT|INTERRES
   165   84   85 1    
   166   84  205 1    
   167   85   86 1    
   168   85   87 1    
   169   85  206 1    
   170   86  207 1    
   171   86  208 1    
   172   86  209 1    
   173   87   88 2    
   174   87   89 am   BACKBONE|DICT|INTERRES
   175   89   90 1    
   176   89  210 1    
   177   90   91 1    
   178   90   92 1    
   179   90  211 1    
   180   91  212 1    
   181   91  213 1    
   182   91  214 1    
   183   92   93 2    
   184   92   94 am   BACKBONE|DICT|INTERRES
   185   94   95 1    
   186   94  215 1    
   187   95   96 1    
   188   95   97 1    
   189   95  216 1    
   190   96  217 1    
   191   96  218 1    
   192   96  219 1    
   193   97   98 2    
   194   97   99 am   BACKBONE|DICT|INTERRES
   195   99  100 1    
   196   99  220 1    
   197  100  101 1    
   198  100  102 1    
   199  100  221 1    
   200  101  222 1    
   201  101  223 1    
   202  101  224 1    
   203  102  103 2    
   204  102  104 am   BACKBONE|DICT|INTERRES
   205  104  105 1    
   206  104  225 1    
   207  105  106 1    
   208  105  107 1    
   209  105  226 1    
   210  106  227 1    
   211  106  228 1    
   212  106  229 1    
   213  107  108 2    
   214  107  109 am   BACKBONE|DICT|INTERRES
   215  109  110 1    
   216  109  230 1    
   217  110  111 1    
   218  110  112 1    
   219  110  231 1    
   220  111  232 1    
   221  111  233 1    
   222  111  234 1    
   223  112  113 2    
   224  112  114 am   BACKBONE|DICT|INTERRES
   225  114  115 1    
   226  114  235 1    
   227  115  116 1    
   228  115  117 1    
   229  115  236 1    
   230  116  237 1    
   231  116  238 1    
   232  116  239 1    
   233  117  118 2    
   234  117  119 am   BACKBONE|DICT|INTERRES
   235  119  120 1    
   236  119  240 1    
   237  120  121 1    
   238  120  124 1    
   239  120  241 1    
   240  121  122 am   BACKBONE|DICT|INTERRES
   241  121  123 2    
   242  122  242 1    
   243  122  243 1    
   244  124  125 1    
   245  124  244 1    
   246  124  245 1    
   247  125  126 1    
   248  126  246 1    
   249  126  247 1    
@<TRIPOS>SUBSTRUCTURE
     1 UNK         1 GROUP             0       ****    0 ROOT    
