@<TRIPOS>MOLECULE
3R540
247   249    1
SMALL
USER_CHARGES


@<TRIPOS>ATOM
      1 CA          0.2766  -11.0138  -46.3106 C.3       0 UNK        -0.1800 
      2 C           0.2205  -11.8668  -47.5704 C.2       0 UNK         0.5000 
      3 O           1.0396  -11.6930  -48.4724 O.2       0 UNK        -0.5000 
      4 N          -0.7480  -12.7874  -47.6265 N.am      1 UNK        -0.5000 
      5 CA         -0.9483  -13.7584  -48.7097 C.3       1 UNK         0.1400 
      6 C6         -2.3363  -14.4382  -48.6076 C.3       23 UNK        -0.0398 
      7 S7         -3.6760  -13.2182  -48.8190 S.3       23 UNK        -0.2404 
      8 C8         -5.0903  -14.0555  -48.0357 C.3       23 UNK        -0.0205 
      9 C9         -5.6686  -15.1802  -48.8856 C.ar      23 UNK        -0.0193 
     10 C10        -6.0767  -14.9359  -50.2015 C.ar      23 UNK        -0.1150 
     11 C11        -6.6648  -15.9474  -50.9661 C.ar      23 UNK        -0.0193 
     12 C12        -6.8542  -17.2106  -50.4006 C.ar      23 UNK        -0.1150 
     13 C13        -6.4579  -17.4671  -49.0848 C.ar      23 UNK        -0.0193 
     14 C14        -5.8586  -16.4513  -48.3347 C.ar      23 UNK        -0.1150 
     15 C15        -6.7139  -18.8336  -48.4707 C.3       23 UNK        -0.0205 
     16 S16        -5.4258  -20.0244  -48.9391 S.3       23 UNK        -0.2404 
     17 C17        -4.1085  -19.6587  -47.7286 C.3       23 UNK        -0.0398 
     18 CA         -3.3196  -20.9439  -47.3818 C.3       11 UNK         0.1400 
     19 N          -1.9111  -20.6865  -47.0817 N.am      11 UNK        -0.5000 
     20 C          -0.9382  -21.5940  -47.2420 C.2       10 UNK         0.5000 
     21 O          -1.1274  -22.7153  -47.7150 O.2       10 UNK        -0.5000 
     22 CA          0.4772  -21.1963  -46.7892 C.3       10 UNK         0.1400 
     23 CB          1.2470  -20.5608  -47.9565 C.3       10 UNK        -0.1800 
     24 N           0.4795  -20.2848  -45.6425 N.am      10 UNK        -0.5000 
     25 C           0.0642  -20.6219  -44.4139 C.2       9 UNK         0.5000 
     26 O          -0.3689  -21.7347  -44.1229 O.2       9 UNK        -0.5000 
     27 CA          0.0935  -19.5174  -43.3422 C.3       9 UNK         0.1400 
     28 CB          1.5246  -19.3646  -42.8082 C.3       9 UNK        -0.1800 
     29 N          -0.3998  -18.2099  -43.7954 N.am      9 UNK        -0.5000 
     30 C          -1.5635  -17.9769  -44.4246 C.2       8 UNK         0.5000 
     31 O          -2.3527  -18.8659  -44.7495 O.2       8 UNK        -0.5000 
     32 CA         -1.8867  -16.5105  -44.7647 C.3       8 UNK         0.1400 
     33 CB         -3.3960  -16.2625  -44.9262 C.3       8 UNK        -0.1800 
     34 N          -1.3576  -15.5998  -43.7489 N.am      8 UNK        -0.5000 
     35 C          -0.5652  -14.5495  -43.9915 C.2       7 UNK         0.5000 
     36 O          -0.1446  -14.2482  -45.1070 O.2       7 UNK        -0.5000 
     37 CA         -0.1206  -13.7130  -42.7804 C.3       7 UNK         0.1400 
     38 CB         -1.1465  -12.6089  -42.4890 C.3       7 UNK        -0.1800 
     39 N           0.1121  -14.4998  -41.5672 N.am      7 UNK        -0.5000 
     40 C           1.0013  -15.4944  -41.4620 C.2       6 UNK         0.5000 
     41 O           1.6807  -15.9153  -42.4080 O.2       6 UNK        -0.5000 
     42 CA          1.1391  -16.1340  -40.0731 C.3       6 UNK         0.1400 
     43 CB         -0.0097  -17.1160  -39.7886 C.3       6 UNK        -0.1800 
     44 N           2.4100  -16.8386  -40.0563 N.am      6 UNK        -0.5000 
     45 C           3.2976  -16.8614  -39.0590 C.2       5 UNK         0.5000 
     46 O           3.0654  -16.4576  -37.9189 O.2       5 UNK        -0.5000 
     47 CA          4.6999  -17.3992  -39.4153 C.3       5 UNK         0.1400 
     48 CB          4.8325  -18.8713  -38.9963 C.3       5 UNK        -0.1800 
     49 N           5.0212  -17.2800  -40.8442 N.am      5 UNK        -0.5000 
     50 C           5.1651  -16.1246  -41.5117 C.2       4 UNK         0.5000 
     51 O           5.1083  -15.0190  -40.9695 O.2       4 UNK        -0.5000 
     52 CA          5.3924  -16.2056  -43.0331 C.3       4 UNK         0.1400 
     53 CB          5.2477  -17.6236  -43.6210 C.3       4 UNK        -0.1800 
     54 N           4.4408  -15.3236  -43.7076 N.am      4 UNK        -0.5000 
     55 C           4.7670  -14.2027  -44.3632 C.2       3 UNK         0.5000 
     56 O           5.9202  -13.7756  -44.4549 O.2       3 UNK        -0.5000 
     57 CA          3.6053  -13.4513  -45.0532 C.3       3 UNK         0.1400 
     58 CB          4.0919  -12.3008  -45.9599 C.3       3 UNK        -0.1800 
     59 N           2.7057  -14.3404  -45.8001 N.am      3 UNK        -0.5000 
     60 C           3.0375  -15.1875  -46.7904 C.2       2 UNK         0.5000 
     61 O           4.1783  -15.3324  -47.2296 O.2       2 UNK        -0.5000 
     62 CA          1.8916  -16.0094  -47.4010 C.3       2 UNK         0.1400 
     63 CB          1.5412  -17.1874  -46.4813 C.3       2 UNK        -0.1800 
     64 N           0.7070  -15.1735  -47.5813 N.am      2 UNK        -0.5000 
     65 C           0.1860  -14.8057  -48.7579 C.2       1 UNK         0.5000 
     66 O           0.5774  -15.2322  -49.8457 O.2       1 UNK        -0.5000 
     67 C          -3.9813  -21.7891  -46.2774 C.2       11 UNK         0.5000 
     68 O          -4.7703  -22.6812  -46.5871 O.2       11 UNK        -0.5000 
     69 N          -3.6048  -21.5402  -45.0169 N.am      12 UNK        -0.5000 
     70 CA         -4.0364  -22.3291  -43.8649 C.3       12 UNK         0.1400 
     71 CB         -3.6328  -21.6033  -42.5719 C.3       12 UNK        -0.1800 
     72 C          -3.4839  -23.7687  -43.8867 C.2       12 UNK         0.5000 
     73 O          -4.2350  -24.7095  -43.6264 O.2       12 UNK        -0.5000 
     74 N          -2.1859  -23.9130  -44.1852 N.am      13 UNK        -0.5000 
     75 CA         -1.4673  -25.1839  -44.1162 C.3       13 UNK         0.1400 
     76 CB          0.0189  -24.9094  -43.8366 C.3       13 UNK        -0.1800 
     77 C          -1.6107  -26.0537  -45.3762 C.2       13 UNK         0.5000 
     78 O          -1.7520  -27.2703  -45.2429 O.2       13 UNK        -0.5000 
     79 N          -1.5210  -25.4418  -46.5654 N.am      14 UNK        -0.5000 
     80 CA         -1.3145  -26.1545  -47.8319 C.3       14 UNK         0.1400 
     81 CB          0.1674  -26.0172  -48.2300 C.3       14 UNK        -0.1800 
     82 C          -2.2431  -25.6780  -48.9617 C.2       14 UNK         0.5000 
     83 O          -1.9937  -26.0137  -50.1216 O.2       14 UNK        -0.5000 
     84 N          -3.2756  -24.8872  -48.6286 N.am      15 UNK        -0.5000 
     85 CA         -4.2508  -24.2936  -49.5555 C.3       15 UNK         0.1400 
     86 CB         -5.2067  -25.3750  -50.0990 C.3       15 UNK        -0.1800 
     87 C          -3.5978  -23.4416  -50.6671 C.2       15 UNK         0.5000 
     88 O          -4.0884  -23.4199  -51.7961 O.2       15 UNK        -0.5000 
     89 N          -2.4856  -22.7760  -50.3135 N.am      16 UNK        -0.5000 
     90 CA         -1.6468  -21.9128  -51.1436 C.3       16 UNK         0.1400 
     91 CB         -2.3692  -20.5916  -51.4657 C.3       16 UNK        -0.1800 
     92 C          -1.1303  -22.6680  -52.3793 C.2       16 UNK         0.5000 
     93 O          -1.5133  -22.3572  -53.5100 O.2       16 UNK        -0.5000 
     94 N          -0.3062  -23.6878  -52.0939 N.am      17 UNK        -0.5000 
     95 CA          0.3051  -24.6359  -53.0300 C.3       17 UNK         0.1400 
     96 CB          1.2819  -23.9121  -53.9812 C.3       17 UNK        -0.1800 
     97 C          -0.7387  -25.4930  -53.7738 C.2       17 UNK         0.5000 
     98 O          -0.5705  -25.7701  -54.9623 O.2       17 UNK        -0.5000 
     99 N          -1.8173  -25.8666  -53.0673 N.am      18 UNK        -0.5000 
    100 CA        -2.9981  -26.6329  -53.4958 C.3       18 UNK         0.1400 
    101 CB        -2.6011  -28.0554  -53.9327 C.3       18 UNK        -0.1800 
    102 C         -3.8847  -25.9568  -54.5654 C.2       18 UNK         0.5000 
    103 O         -5.0940  -26.1874  -54.5811 O.2       18 UNK        -0.5000 
    104 N         -3.2813  -25.1456  -55.4387 N.am      19 UNK        -0.5000 
    105 CA        -3.9030  -24.4592  -56.5679 C.3       19 UNK         0.1400 
    106 CB        -2.7943  -24.1041  -57.5728 C.3       19 UNK        -0.1800 
    107 C         -4.7010  -23.1983  -56.1831 C.2       19 UNK         0.5000 
    108 O         -5.3306  -22.6136  -57.0657 O.2       19 UNK        -0.5000 
    109 N         -4.6495  -22.7881  -54.9058 N.am      20 UNK        -0.5000 
    110 CA        -5.2177  -21.5539  -54.3556 C.3       20 UNK         0.1400 
    111 CB        -6.7574  -21.5357  -54.4638 C.3       20 UNK        -0.1800 
    112 C         -4.5379  -20.3125  -54.9642 C.2       20 UNK         0.5000 
    113 O         -5.2034  -19.4560  -55.5479 O.2       20 UNK        -0.5000 
    114 N         -3.2036  -20.2596  -54.8364 N.am      21 UNK        -0.5000 
    115 CA        -2.3515  -19.1935  -55.3713 C.3       21 UNK         0.1400 
    116 CB        -0.8850  -19.6477  -55.2978 C.3       21 UNK        -0.1800 
    117 C         -2.5284  -17.8211  -54.6851 C.2       21 UNK         0.5000 
    118 O         -2.1083  -16.8145  -55.2574 O.2       21 UNK        -0.5000 
    119 N         -3.1379  -17.7998  -53.4902 N.am      22 UNK        -0.5000 
    120 CA        -3.4383  -16.5972  -52.6895 C.3       22 UNK         0.1400 
    121 C         -2.1737  -15.8510  -52.1682 C.2       22 UNK         0.5000 
    122 N         -1.1028  -16.5594  -51.8331 N.am      22 UNK        -0.7600 
    123 O         -2.1634  -14.6312  -52.0301 O.2       22 UNK        -0.5000 
    124 C124       -4.4712  -15.6529  -53.3693 C.3       23 UNK        -0.0398 
    125 S125       -6.0788  -16.4750  -53.6398 S.3       23 UNK        -0.2404 
    126 C126       -7.1284  -15.6669  -52.3892 C.3       23 UNK        -0.0205 
    127 H127       -0.6887  -10.9874  -45.8045 H         1 UNK         0.0600 
    128 H128        0.5576   -9.9895  -46.5555 H         1 UNK         0.0600 
    129 H129        1.0125  -11.4169  -45.6156 H         1 UNK         0.0600 
    130 H130       -1.3702  -12.8847  -46.8371 H         1 UNK         0.3000 
    131 H131       -0.9092  -13.2133  -49.6555 H         1 UNK         0.0600 
    132 H132       -2.4486  -14.9381  -47.6446 H         1 UNK         0.0800 
    133 H133       -2.4575  -15.2092  -49.3683 H         1 UNK         0.0800 
    134 H134       -5.8759  -13.3180  -47.8668 H         1 UNK         0.0800 
    135 H135       -4.7971  -14.4161  -47.0498 H         1 UNK         0.0800 
    136 H136       -5.9450  -13.9502  -50.6253 H         1 UNK         0.1150 
    137 H137       -7.3179  -17.9937  -50.9843 H         1 UNK         0.1150 
    138 H138       -5.5673  -16.6448  -47.3127 H         1 UNK         0.1150 
    139 H139       -6.7934  -18.7671  -47.3847 H         1 UNK         0.0800 
    140 H140       -7.6772  -19.2095  -48.8189 H         1 UNK         0.0800 
    141 H141       -4.5141  -19.1843  -46.8332 H         1 UNK         0.0800 
    142 H142       -3.4514  -18.9203  -48.1902 H         1 UNK         0.0800 
    143 H143       -3.3337  -21.5665  -48.2711 H         1 UNK         0.0600 
    144 H144       -1.7020  -19.8207  -46.6037 H         1 UNK         0.3000 
    145 H145        0.9971  -22.1105  -46.4945 H         1 UNK         0.0600 
    146 H146        2.2639  -20.2985  -47.6641 H         1 UNK         0.0600 
    147 H147        1.3215  -21.2543  -48.7952 H         1 UNK         0.0600 
    148 H148        0.7573  -19.6582  -48.3235 H         1 UNK         0.0600 
    149 H149        0.8209  -19.3490  -45.7981 H         1 UNK         0.3000 
    150 H150       -0.5486  -19.8400  -42.5204 H         1 UNK         0.0600 
    151 H151        1.9217  -20.3211  -42.4654 H         1 UNK         0.0600 
    152 H152        1.5666  -18.6808  -41.9644 H         1 UNK         0.0600 
    153 H153        2.1941  -18.9875  -43.5804 H         1 UNK         0.0600 
    154 H154        0.1812  -17.4147  -43.5665 H         1 UNK         0.3000 
    155 H155       -1.4130  -16.3196  -45.7290 H         1 UNK         0.0600 
    156 H156       -3.9441  -16.5202  -44.0193 H         1 UNK         0.0600 
    157 H157       -3.8063  -16.8584  -45.7415 H         1 UNK         0.0600 
    158 H158       -3.5985  -15.2160  -45.1519 H         1 UNK         0.0600 
    159 H159       -1.6287  -15.7869  -42.7938 H         1 UNK         0.3000 
    160 H160        0.8238  -13.2347  -43.0464 H         1 UNK         0.0600 
    161 H161       -2.1078  -13.0222  -42.1810 H         1 UNK         0.0600 
    162 H162       -1.3214  -11.9941  -43.3732 H         1 UNK         0.0600 
    163 H163       -0.7974  -11.9444  -41.6985 H         1 UNK         0.0600 
    164 H164       -0.4105  -14.2232  -40.7483 H         1 UNK         0.3000 
    165 H165        1.1416  -15.3394  -39.3239 H         1 UNK         0.0600 
    166 H166        0.1322  -17.6184  -38.8316 H         1 UNK         0.0600 
    167 H167       -0.9663  -16.5947  -39.7408 H         1 UNK         0.0600 
    168 H168       -0.0951  -17.8830  -40.5579 H         1 UNK         0.0600 
    169 H169        2.7237  -17.1211  -40.9753 H         1 UNK         0.3000 
    170 H170        5.4300  -16.8129  -38.8536 H         1 UNK         0.0600 
    171 H171        4.6267  -18.9946  -37.9322 H         1 UNK         0.0600 
    172 H172        4.1354  -19.5092  -39.5414 H         1 UNK         0.0600 
    173 H173        5.8412  -19.2439  -39.1758 H         1 UNK         0.0600 
    174 H174        5.0980  -18.1451  -41.3591 H         1 UNK         0.3000 
    175 H175        6.4187  -15.8785  -43.2096 H         1 UNK         0.0600 
    176 H176        4.2597  -18.0408  -43.4331 H         1 UNK         0.0600 
    177 H177        5.3976  -17.6114  -44.7009 H         1 UNK         0.0600 
    178 H178        5.9901  -18.3061  -43.2058 H         1 UNK         0.0600 
    179 H179        3.4613  -15.5614  -43.6003 H         1 UNK         0.3000 
    180 H180        3.0096  -13.0103  -44.2532 H         1 UNK         0.0600 
    181 H181        4.7479  -12.6614  -46.7528 H         1 UNK         0.0600 
    182 H182        4.6485  -11.5591  -45.3861 H         1 UNK         0.0600 
    183 H183        3.2569  -11.7846  -46.4320 H         1 UNK         0.0600 
    184 H184        1.7331  -14.3077  -45.5152 H         1 UNK         0.3000 
    185 H185        2.2307  -16.4088  -48.3591 H         1 UNK         0.0600 
    186 H186        2.3740  -17.8890  -46.4175 H         1 UNK         0.0600 
    187 H187        1.3177  -16.8502  -45.4693 H         1 UNK         0.0600 
    188 H188        0.6736  -17.7263  -46.8591 H         1 UNK         0.0600 
    189 H189        0.3294  -14.7410  -46.7407 H         1 UNK         0.3000 
    190 H190       -2.9781  -20.7625  -44.8370 H         1 UNK         0.3000 
    191 H191       -5.1265  -22.3907  -43.8891 H         1 UNK         0.0600 
    192 H192       -2.5511  -21.4990  -42.4864 H         1 UNK         0.0600 
    193 H193       -3.9801  -22.1492  -41.6940 H         1 UNK         0.0600 
    194 H194       -4.0682  -20.6047  -42.5285 H         1 UNK         0.0600 
    195 H195       -1.6185  -23.0797  -44.3253 H         1 UNK         0.3000 
    196 H196       -1.8564  -25.7588  -43.2728 H         1 UNK         0.0600 
    197 H197        0.5777  -25.8409  -43.7378 H         1 UNK         0.0600 
    198 H198        0.1489  -24.3524  -42.9085 H         1 UNK         0.0600 
    199 H199        0.4808  -24.3331  -44.6394 H         1 UNK         0.0600 
    200 H200       -1.4149  -24.4341  -46.6079 H         1 UNK         0.3000 
    201 H201       -1.5317  -27.2175  -47.7127 H         1 UNK         0.0600 
    202 H202        0.8220  -26.4022  -47.4481 H         1 UNK         0.0600 
    203 H203        0.4381  -24.9760  -48.4096 H         1 UNK         0.0600 
    204 H204        0.3898  -26.5779  -49.1387 H         1 UNK         0.0600 
    205 H205       -3.4000  -24.6554  -47.6527 H         1 UNK         0.3000 
    206 H206       -4.8564  -23.5972  -48.9772 H         1 UNK         0.0600 
    207 H207       -5.9738  -24.9397  -50.7406 H         1 UNK         0.0600 
    208 H208       -5.7206  -25.8855  -49.2847 H         1 UNK         0.0600 
    209 H209       -4.6793  -26.1283  -50.6813 H         1 UNK         0.0600 
    210 H210       -2.1403  -22.9194  -49.3690 H         1 UNK         0.3000 
    211 H211       -0.7699  -21.6593  -50.5459 H         1 UNK         0.0600 
    212 H212       -1.7461  -19.9520  -52.0899 H         1 UNK         0.0600 
    213 H213       -2.5913  -20.0376  -50.5538 H         1 UNK         0.0600 
    214 H214       -3.3094  -20.7575  -51.9860 H         1 UNK         0.0600 
    215 H215       -0.1161  -23.8722  -51.1192 H         1 UNK         0.3000 
    216 H216        0.8888  -25.3309  -52.4248 H         1 UNK         0.0600 
    217 H217        1.8418  -24.6273  -54.5849 H         1 UNK         0.0600 
    218 H218        2.0087  -23.3204  -53.4248 H         1 UNK         0.0600 
    219 H219        0.7605  -23.2441  -54.6676 H         1 UNK         0.0600 
    220 H220       -1.8399  -25.6009  -52.0871 H         1 UNK         0.3000 
    221 H221       -3.6178  -26.7299  -52.6052 H         1 UNK         0.0600 
    222 H222       -1.9902  -28.0492  -54.8357 H         1 UNK         0.0600 
    223 H223       -2.0395  -28.5650  -53.1497 H         1 UNK         0.0600 
    224 H224       -3.4852  -28.6583  -54.1431 H         1 UNK         0.0600 
    225 H225       -2.2711  -25.0704  -55.3658 H         1 UNK         0.3000 
    226 H226       -4.5978  -25.1487  -57.0516 H         1 UNK         0.0600 
    227 H227       -2.2547  -24.9945  -57.8964 H         1 UNK         0.0600 
    228 H228       -3.2062  -23.6337  -58.4665 H         1 UNK         0.0600 
    229 H229       -2.0701  -23.4121  -57.1403 H         1 UNK         0.0600 
    230 H230       -4.0965  -23.3325  -54.2555 H         1 UNK         0.3000 
    231 H231       -4.9814  -21.5451  -53.2936 H         1 UNK         0.0600 
    232 H232       -7.1929  -22.4249  -54.0080 H         1 UNK         0.0600 
    233 H233       -7.0996  -21.4857  -55.4974 H         1 UNK         0.0600 
    234 H234       -7.1693  -20.6694  -53.9447 H         1 UNK         0.0600 
    235 H235       -2.7210  -21.0288  -54.3789 H         1 UNK         0.3000 
    236 H236       -2.6104  -19.0608  -56.4237 H         1 UNK         0.0600 
    237 H237       -0.2224  -18.9085  -55.7498 H         1 UNK         0.0600 
    238 H238       -0.5591  -19.7932  -54.2677 H         1 UNK         0.0600 
    239 H239       -0.7351  -20.5869  -55.8310 H         1 UNK         0.0600 
    240 H240       -3.4632  -18.6752  -53.1110 H         1 UNK         0.3000 
    241 H241       -3.9111  -16.9671  -51.7786 H         1 UNK         0.0600 
    242 H242       -0.3135  -16.0797  -51.4134 H         1 UNK         0.3800 
    243 H243       -1.0803  -17.5578  -51.9501 H         1 UNK         0.3800 
    244 H244       -4.6360  -14.7591  -52.7663 H         1 UNK         0.0800 
    245 H245       -4.0956  -15.2952  -54.3283 H         1 UNK         0.0800 
    246 H246       -8.1523  -16.0243  -52.5073 H         1 UNK         0.0800 
    247 H247       -7.1583  -14.5936  -52.5839 H         1 UNK         0.0800 
@<TRIPOS>BOND
     1    1    2 1    
     2    1  127 1    
     3    1  128 1    
     4    1  129 1    
     5    2    3 2    
     6    2    4 am   BACKBONE|DICT|INTERRES
     7    4    5 1    
     8    4  130 1    
     9    5    6 1    
    10    5   65 1    
    11    5  131 1    
    12    6    7 1    
    13    6  132 1    
    14    6  133 1    
    15    7    8 1    
    16    8    9 1    
    17    8  134 1    
    18    8  135 1    
    19    9   10 ar   
    20    9   14 ar   
    21   10   11 ar   
    22   10  136 1    
    23   11   12 ar   
    24   11  126 1    
    25   12   13 ar   
    26   12  137 1    
    27   13   14 ar   
    28   13   15 1    
    29   14  138 1    
    30   15   16 1    
    31   15  139 1    
    32   15  140 1    
    33   16   17 1    
    34   17   18 1    
    35   17  141 1    
    36   17  142 1    
    37   18   19 1    
    38   18   67 1    
    39   18  143 1    
    40   19   20 am   BACKBONE|DICT|INTERRES
    41   19  144 1    
    42   20   21 2    
    43   20   22 1    
    44   22   23 1    
    45   22   24 1    
    46   22  145 1    
    47   23  146 1    
    48   23  147 1    
    49   23  148 1    
    50   24   25 am   BACKBONE|DICT|INTERRES
    51   24  149 1    
    52   25   26 2    
    53   25   27 1    
    54   27   28 1    
    55   27   29 1    
    56   27  150 1    
    57   28  151 1    
    58   28  152 1    
    59   28  153 1    
    60   29   30 am   BACKBONE|DICT|INTERRES
    61   29  154 1    
    62   30   31 2    
    63   30   32 1    
    64   32   33 1    
    65   32   34 1    
    66   32  155 1    
    67   33  156 1    
    68   33  157 1    
    69   33  158 1    
    70   34   35 am   BACKBONE|DICT|INTERRES
    71   34  159 1    
    72   35   36 2    
    73   35   37 1    
    74   37   38 1    
    75   37   39 1    
    76   37  160 1    
    77   38  161 1    
    78   38  162 1    
    79   38  163 1    
    80   39   40 am   BACKBONE|DICT|INTERRES
    81   39  164 1    
    82   40   41 2    
    83   40   42 1    
    84   42   43 1    
    85   42   44 1    
    86   42  165 1    
    87   43  166 1    
    88   43  167 1    
    89   43  168 1    
    90   44   45 am   BACKBONE|DICT|INTERRES
    91   44  169 1    
    92   45   46 2    
    93   45   47 1    
    94   47   48 1    
    95   47   49 1    
    96   47  170 1    
    97   48  171 1    
    98   48  172 1    
    99   48  173 1    
   100   49   50 am   BACKBONE|DICT|INTERRES
   101   49  174 1    
   102   50   51 2    
   103   50   52 1    
   104   52   53 1    
   105   52   54 1    
   106   52  175 1    
   107   53  176 1    
   108   53  177 1    
   109   53  178 1    
   110   54   55 am   BACKBONE|DICT|INTERRES
   111   54  179 1    
   112   55   56 2    
   113   55   57 1    
   114   57   58 1    
   115   57   59 1    
   116   57  180 1    
   117   58  181 1    
   118   58  182 1    
   119   58  183 1    
   120   59   60 am   BACKBONE|DICT|INTERRES
   121   59  184 1    
   122   60   61 2    
   123   60   62 1    
   124   62   63 1    
   125   62   64 1    
   126   62  185 1    
   127   63  186 1    
   128   63  187 1    
   129   63  188 1    
   130   64   65 am   BACKBONE|DICT|INTERRES
   131   64  189 1    
   132   65   66 2    
   133   67   68 2    
   134   67   69 am   BACKBONE|DICT|INTERRES
   135   69   70 1    
   136   69  190 1    
   137   70   71 1    
   138   70   72 1    
   139   70  191 1    
   140   71  192 1    
   141   71  193 1    
   142   71  194 1    
   143   72   73 2    
   144   72   74 am   BACKBONE|DICT|INTERRES
   145   74   75 1    
   146   74  195 1    
   147   75   76 1    
   148   75   77 1    
   149   75  196 1    
   150   76  197 1    
   151   76  198 1    
   152   76  199 1    
   153   77   78 2    
   154   77   79 am   BACKBONE|DICT|INTERRES
   155   79   80 1    
   156   79  200 1    
   157   80   81 1    
   158   80   82 1    
   159   80  201 1    
   160   81  202 1    
   161   81  203 1    
   162   81  204 1    
   163   82   83 2    
   164   82   84 am   BACKBONE|DICT|INTERRES
   165   84   85 1    
   166   84  205 1    
   167   85   86 1    
   168   85   87 1    
   169   85  206 1    
   170   86  207 1    
   171   86  208 1    
   172   86  209 1    
   173   87   88 2    
   174   87   89 am   BACKBONE|DICT|INTERRES
   175   89   90 1    
   176   89  210 1    
   177   90   91 1    
   178   90   92 1    
   179   90  211 1    
   180   91  212 1    
   181   91  213 1    
   182   91  214 1    
   183   92   93 2    
   184   92   94 am   BACKBONE|DICT|INTERRES
   185   94   95 1    
   186   94  215 1    
   187   95   96 1    
   188   95   97 1    
   189   95  216 1    
   190   96  217 1    
   191   96  218 1    
   192   96  219 1    
   193   97   98 2    
   194   97   99 am   BACKBONE|DICT|INTERRES
   195   99  100 1    
   196   99  220 1    
   197  100  101 1    
   198  100  102 1    
   199  100  221 1    
   200  101  222 1    
   201  101  223 1    
   202  101  224 1    
   203  102  103 2    
   204  102  104 am   BACKBONE|DICT|INTERRES
   205  104  105 1    
   206  104  225 1    
   207  105  106 1    
   208  105  107 1    
   209  105  226 1    
   210  106  227 1    
   211  106  228 1    
   212  106  229 1    
   213  107  108 2    
   214  107  109 am   BACKBONE|DICT|INTERRES
   215  109  110 1    
   216  109  230 1    
   217  110  111 1    
   218  110  112 1    
   219  110  231 1    
   220  111  232 1    
   221  111  233 1    
   222  111  234 1    
   223  112  113 2    
   224  112  114 am   BACKBONE|DICT|INTERRES
   225  114  115 1    
   226  114  235 1    
   227  115  116 1    
   228  115  117 1    
   229  115  236 1    
   230  116  237 1    
   231  116  238 1    
   232  116  239 1    
   233  117  118 2    
   234  117  119 am   BACKBONE|DICT|INTERRES
   235  119  120 1    
   236  119  240 1    
   237  120  121 1    
   238  120  124 1    
   239  120  241 1    
   240  121  122 am   BACKBONE|DICT|INTERRES
   241  121  123 2    
   242  122  242 1    
   243  122  243 1    
   244  124  125 1    
   245  124  244 1    
   246  124  245 1    
   247  125  126 1    
   248  126  246 1    
   249  126  247 1    
@<TRIPOS>SUBSTRUCTURE
     1 UNK         1 GROUP             0       ****    0 ROOT    
