@<TRIPOS>MOLECULE
3R540
247   249    1
SMALL
USER_CHARGES


@<TRIPOS>ATOM
      1 CA          4.7192  -20.0312  -45.7957 C.3       0 UNK        -0.1800 
      2 C           4.0894  -18.7547  -45.2577 C.2       0 UNK         0.5000 
      3 O           3.8290  -18.6643  -44.0583 O.2       0 UNK        -0.5000 
      4 N           3.8485  -17.7723  -46.1356 N.am      1 UNK        -0.5000 
      5 CA          3.3617  -16.4359  -45.7787 C.3       1 UNK         0.1400 
      6 C6          2.8189  -15.6601  -47.0061 C.3       23 UNK        -0.0398 
      7 S7          4.0059  -15.4814  -48.3821 S.3       23 UNK        -0.2404 
      8 C8          2.8817  -15.1457  -49.7830 C.3       23 UNK        -0.0205 
      9 C9          2.0310  -16.3317  -50.2411 C.ar      23 UNK        -0.0193 
     10 C10         0.7978  -16.0846  -50.8542 C.ar      23 UNK        -0.1150 
     11 C11         0.0132  -17.1365  -51.3368 C.ar      23 UNK        -0.0193 
     12 C12         0.4576  -18.4518  -51.1755 C.ar      23 UNK        -0.1150 
     13 C13         1.6856  -18.7204  -50.5647 C.ar      23 UNK        -0.0193 
     14 C14         2.4735  -17.6548  -50.1176 C.ar      23 UNK        -0.1150 
     15 C15         2.1659  -20.1625  -50.4275 C.3       23 UNK        -0.0205 
     16 S16         2.7973  -20.5733  -48.7644 S.3       23 UNK        -0.2404 
     17 C17         1.3394  -20.2574  -47.7155 C.3       23 UNK        -0.0398 
     18 CA          0.6167  -21.5453  -47.2562 C.3       11 UNK         0.1400 
     19 N          -0.2637  -21.2794  -46.1165 N.am      11 UNK        -0.5000 
     20 C          -0.9739  -22.1994  -45.4485 C.2       10 UNK         0.5000 
     21 O          -0.9048  -23.4102  -45.6591 O.2       10 UNK        -0.5000 
     22 CA         -1.9784  -21.6644  -44.4133 C.3       10 UNK         0.1400 
     23 CB         -1.2860  -21.3551  -43.0772 C.3       10 UNK        -0.1800 
     24 N          -2.6756  -20.4721  -44.9007 N.am      10 UNK        -0.5000 
     25 C          -3.5770  -20.4798  -45.8942 C.2       9 UNK         0.5000 
     26 O          -3.9499  -21.5019  -46.4680 O.2       9 UNK        -0.5000 
     27 CA         -4.1195  -19.1131  -46.3531 C.3       9 UNK         0.1400 
     28 CB         -5.2755  -18.6567  -45.4511 C.3       9 UNK        -0.1800 
     29 N          -3.0853  -18.0774  -46.3818 N.am      9 UNK        -0.5000 
     30 C          -2.0323  -18.0883  -47.2117 C.2       8 UNK         0.5000 
     31 O          -1.8454  -18.9573  -48.0598 O.2       8 UNK        -0.5000 
     32 CA         -0.9731  -16.9909  -47.0085 C.3       8 UNK         0.1400 
     33 CB         -1.3166  -15.7265  -47.8073 C.3       8 UNK        -0.1800 
     34 N          -0.7922  -16.6318  -45.6015 N.am      8 UNK        -0.5000 
     35 C          -0.3220  -17.4488  -44.6498 C.2       7 UNK         0.5000 
     36 O          -0.0004  -18.6161  -44.8747 O.2       7 UNK        -0.5000 
     37 CA         -0.2527  -16.8993  -43.2052 C.3       7 UNK         0.1400 
     38 CB          1.0671  -17.2623  -42.4952 C.3       7 UNK        -0.1800 
     39 N          -0.5437  -15.4638  -43.0570 N.am      7 UNK        -0.5000 
     40 C           0.1346  -14.4288  -43.5768 C.2       6 UNK         0.5000 
     41 O           1.1153  -14.5435  -44.3095 O.2       6 UNK        -0.5000 
     42 CA         -0.3567  -13.0347  -43.1802 C.3       6 UNK         0.1400 
     43 CB         -1.8583  -12.8271  -43.4567 C.3       6 UNK        -0.1800 
     44 N          -0.0506  -12.8426  -41.7692 N.am      6 UNK        -0.5000 
     45 C           0.1924  -11.6623  -41.1933 C.2       5 UNK         0.5000 
     46 O           0.0360  -10.5775  -41.7567 O.2       5 UNK        -0.5000 
     47 CA          0.7487  -11.6890  -39.7625 C.3       5 UNK         0.1400 
     48 CB          0.6010  -13.0434  -39.0363 C.3       5 UNK        -0.1800 
     49 N           2.1579  -11.3306  -39.8481 N.am      5 UNK        -0.5000 
     50 C           2.8355  -10.6142  -38.9440 C.2       4 UNK         0.5000 
     51 O           2.3459  -10.2109  -37.8879 O.2       4 UNK        -0.5000 
     52 CA          4.3118  -10.2925  -39.2608 C.3       4 UNK         0.1400 
     53 CB          5.2446  -11.1893  -38.4316 C.3       4 UNK        -0.1800 
     54 N           4.6553  -10.4446  -40.6766 N.am      4 UNK        -0.5000 
     55 C           4.2408   -9.6405  -41.6659 C.2       3 UNK         0.5000 
     56 O           3.5709   -8.6240  -41.4812 O.2       3 UNK        -0.5000 
     57 CA          4.6293  -10.0419  -43.1043 C.3       3 UNK         0.1400 
     58 CB          5.7657   -9.1471  -43.6233 C.3       3 UNK        -0.1800 
     59 N           5.0308  -11.4466  -43.2469 N.am      3 UNK        -0.5000 
     60 C           4.2096  -12.4969  -43.1200 C.2       2 UNK         0.5000 
     61 O           3.0185  -12.4026  -42.8224 O.2       2 UNK        -0.5000 
     62 CA          4.8393  -13.8821  -43.2978 C.3       2 UNK         0.1400 
     63 CB          5.0351  -14.5691  -41.9355 C.3       2 UNK        -0.1800 
     64 N           3.9830  -14.7083  -44.1435 N.am      2 UNK        -0.5000 
     65 C           4.4303  -15.6333  -44.9994 C.2       1 UNK         0.5000 
     66 O           5.6296  -15.8608  -45.1865 O.2       1 UNK        -0.5000 
     67 C          -0.1517  -22.2136  -48.4156 C.2       11 UNK         0.5000 
     68 O           0.2730  -23.2581  -48.9093 O.2       11 UNK        -0.5000 
     69 N          -1.2958  -21.6263  -48.7923 N.am      12 UNK        -0.5000 
     70 CA         -2.1940  -22.1406  -49.8214 C.3       12 UNK         0.1400 
     71 CB         -3.3059  -21.1227  -50.0906 C.3       12 UNK        -0.1800 
     72 C          -2.7940  -23.5092  -49.4694 C.2       12 UNK         0.5000 
     73 O          -2.8888  -24.3603  -50.3512 O.2       12 UNK        -0.5000 
     74 N          -3.1702  -23.7141  -48.2001 N.am      13 UNK        -0.5000 
     75 CA         -3.6728  -24.9905  -47.6903 C.3       13 UNK         0.1400 
     76 CB         -4.2072  -24.8111  -46.2621 C.3       13 UNK        -0.1800 
     77 C          -2.6128  -26.1048  -47.7494 C.2       13 UNK         0.5000 
     78 O          -2.9288  -27.2145  -48.1788 O.2       13 UNK        -0.5000 
     79 N          -1.3693  -25.7784  -47.3685 N.am      14 UNK        -0.5000 
     80 CA         -0.2125  -26.6729  -47.4524 C.3       14 UNK         0.1400 
     81 CB          0.9746  -26.0455  -46.7057 C.3       14 UNK        -0.1800 
     82 C           0.1732  -27.0177  -48.9043 C.2       14 UNK         0.5000 
     83 O           0.5193  -28.1655  -49.1860 O.2       14 UNK        -0.5000 
     84 N           0.0795  -26.0276  -49.8017 N.am      15 UNK        -0.5000 
     85 CA          0.3273  -26.1678  -51.2385 C.3       15 UNK         0.1400 
     86 CB          0.5612  -24.7692  -51.8330 C.3       15 UNK        -0.1800 
     87 C          -0.8075  -26.8829  -52.0020 C.2       15 UNK         0.5000 
     88 O          -0.5993  -27.2674  -53.1533 O.2       15 UNK        -0.5000 
     89 N          -1.9840  -27.0152  -51.3696 N.am      16 UNK        -0.5000 
     90 CA         -3.2571  -27.4861  -51.9308 C.3       16 UNK         0.1400 
     91 CB         -3.1683  -28.9637  -52.3649 C.3       16 UNK        -0.1800 
     92 C          -3.7975  -26.5535  -53.0395 C.2       16 UNK         0.5000 
     93 O          -4.4508  -27.0099  -53.9791 O.2       16 UNK        -0.5000 
     94 N          -3.5147  -25.2539  -52.8942 N.am      17 UNK        -0.5000 
     95 CA         -3.8920  -24.1737  -53.8033 C.3       17 UNK         0.1400 
     96 CB         -2.6641  -23.2767  -54.0183 C.3       17 UNK        -0.1800 
     97 C          -5.0729  -23.3453  -53.2633 C.2       17 UNK         0.5000 
     98 O          -5.5892  -22.4938  -53.9860 O.2       17 UNK        -0.5000 
     99 N          -5.5046  -23.6089  -52.0193 N.am      18 UNK        -0.5000 
    100 CA        -6.6043  -22.9219  -51.3290 C.3       18 UNK         0.1400 
    101 CB        -6.7031  -23.4493  -49.8898 C.3       18 UNK        -0.1800 
    102 C         -7.9700  -23.0202  -52.0406 C.2       18 UNK         0.5000 
    103 O         -8.8220  -22.1555  -51.8361 O.2       18 UNK        -0.5000 
    104 N         -8.1382  -24.0307  -52.9057 N.am      19 UNK        -0.5000 
    105 CA        -9.2780  -24.1882  -53.8134 C.3       19 UNK         0.1400 
    106 CB        -9.1751  -25.5566  -54.5039 C.3       19 UNK        -0.1800 
    107 C         -9.3927  -23.0612  -54.8641 C.2       19 UNK         0.5000 
    108 O        -10.4928  -22.8053  -55.3538 O.2       19 UNK        -0.5000 
    109 N         -8.2713  -22.3922  -55.1671 N.am      20 UNK        -0.5000 
    110 CA        -8.1806  -21.2166  -56.0340 C.3       20 UNK         0.1400 
    111 CB        -7.0108  -21.4197  -57.0137 C.3       20 UNK        -0.1800 
    112 C         -8.0163  -19.9253  -55.2028 C.2       20 UNK         0.5000 
    113 O         -7.4706  -18.9418  -55.7042 O.2       20 UNK        -0.5000 
    114 N         -8.4633  -19.9565  -53.9379 N.am      21 UNK        -0.5000 
    115 CA        -8.3859  -18.9295  -52.8909 C.3       21 UNK         0.1400 
    116 CB        -9.0018  -17.5890  -53.3361 C.3       21 UNK        -0.1800 
    117 C         -6.9729  -18.7418  -52.3079 C.2       21 UNK         0.5000 
    118 O         -6.8381  -18.6439  -51.0880 O.2       21 UNK        -0.5000 
    119 N         -5.9480  -18.7263  -53.1639 N.am      22 UNK        -0.5000 
    120 CA        -4.5324  -18.6874  -52.7912 C.3       22 UNK         0.1400 
    121 C         -3.6526  -19.3006  -53.9108 C.2       22 UNK         0.5000 
    122 N         -2.4965  -19.8496  -53.5647 N.am      22 UNK        -0.7600 
    123 O         -3.9903  -19.2564  -55.0915 O.2       22 UNK        -0.5000 
    124 C124       -4.0619  -17.2653  -52.3743 C.3       23 UNK        -0.0398 
    125 S125       -2.7488  -17.3129  -51.1065 S.3       23 UNK        -0.2404 
    126 C126       -1.2844  -16.8557  -52.0832 C.3       23 UNK        -0.0205 
    127 H127        5.5748  -20.3156  -45.1834 H         1 UNK         0.0600 
    128 H128        5.0664  -19.9084  -46.8218 H         1 UNK         0.0600 
    129 H129        3.9954  -20.8458  -45.7722 H         1 UNK         0.0600 
    130 H130        4.1202  -17.8871  -47.1011 H         1 UNK         0.3000 
    131 H131        2.5194  -16.5875  -45.1051 H         1 UNK         0.0600 
    132 H132        2.4708  -14.6682  -46.7130 H         1 UNK         0.0800 
    133 H133        1.9379  -16.1771  -47.3830 H         1 UNK         0.0800 
    134 H134        2.2394  -14.3056  -49.5138 H         1 UNK         0.0800 
    135 H135        3.4821  -14.8141  -50.6308 H         1 UNK         0.0800 
    136 H136        0.4585  -15.0659  -50.9803 H         1 UNK         0.1150 
    137 H137       -0.1485  -19.2665  -51.5441 H         1 UNK         0.1150 
    138 H138        3.4364  -17.8648  -49.6760 H         1 UNK         0.1150 
    139 H139        1.3672  -20.8618  -50.6795 H         1 UNK         0.0800 
    140 H140        2.9616  -20.3327  -51.1536 H         1 UNK         0.0800 
    141 H141        1.6959  -19.7101  -46.8427 H         1 UNK         0.0800 
    142 H142        0.6542  -19.5781  -48.2204 H         1 UNK         0.0800 
    143 H143        1.3700  -22.2551  -46.9078 H         1 UNK         0.0600 
    144 H144       -0.3493  -20.3096  -45.8283 H         1 UNK         0.3000 
    145 H145       -2.7218  -22.4441  -44.2349 H         1 UNK         0.0600 
    146 H146       -2.0038  -21.0158  -42.3304 H         1 UNK         0.0600 
    147 H147       -0.7995  -22.2461  -42.6783 H         1 UNK         0.0600 
    148 H148       -0.5208  -20.5857  -43.1811 H         1 UNK         0.0600 
    149 H149       -2.3901  -19.5871  -44.5108 H         1 UNK         0.3000 
    150 H150       -4.5053  -19.2329  -47.3680 H         1 UNK         0.0600 
    151 H151       -6.0687  -19.4052  -45.4263 H         1 UNK         0.0600 
    152 H152       -5.7172  -17.7292  -45.8159 H         1 UNK         0.0600 
    153 H153       -4.9471  -18.4919  -44.4242 H         1 UNK         0.0600 
    154 H154       -3.1639  -17.3300  -45.7086 H         1 UNK         0.3000 
    155 H155       -0.0265  -17.3835  -47.3828 H         1 UNK         0.0600 
    156 H156       -0.5301  -14.9770  -47.7165 H         1 UNK         0.0600 
    157 H157       -2.2525  -15.2776  -47.4729 H         1 UNK         0.0600 
    158 H158       -1.4216  -15.9535  -48.8674 H         1 UNK         0.0600 
    159 H159       -1.0260  -15.6863  -45.3395 H         1 UNK         0.3000 
    160 H160       -1.0509  -17.4181  -42.6726 H         1 UNK         0.0600 
    161 H161        1.9216  -16.7302  -42.9103 H         1 UNK         0.0600 
    162 H162        1.2803  -18.3293  -42.5717 H         1 UNK         0.0600 
    163 H163        1.0163  -17.0216  -41.4335 H         1 UNK         0.0600 
    164 H164       -1.3493  -15.2521  -42.4845 H         1 UNK         0.3000 
    165 H165        0.2105  -12.3137  -43.7738 H         1 UNK         0.0600 
    166 H166       -2.4849  -13.4515  -42.8193 H         1 UNK         0.0600 
    167 H167       -2.1459  -11.7899  -43.2843 H         1 UNK         0.0600 
    168 H168       -2.1013  -13.0604  -44.4941 H         1 UNK         0.0600 
    169 H169        0.1534  -13.6835  -41.2474 H         1 UNK         0.3000 
    170 H170        0.2025  -10.9293  -39.1994 H         1 UNK         0.0600 
    171 H171       -0.4405  -13.3665  -39.0113 H         1 UNK         0.0600 
    172 H172        1.1895  -13.8300  -39.5102 H         1 UNK         0.0600 
    173 H173        0.9354  -12.9652  -38.0016 H         1 UNK         0.0600 
    174 H174        2.6149  -11.5782  -40.7181 H         1 UNK         0.3000 
    175 H175        4.4896   -9.2538  -38.9747 H         1 UNK         0.0600 
    176 H176        5.1190  -12.2429  -38.6846 H         1 UNK         0.0600 
    177 H177        6.2905  -10.9266  -38.5916 H         1 UNK         0.0600 
    178 H178        5.0442  -11.0820  -37.3647 H         1 UNK         0.0600 
    179 H179        5.2160  -11.2467  -40.9216 H         1 UNK         0.3000 
    180 H180        3.7511   -9.8777  -43.7324 H         1 UNK         0.0600 
    181 H181        5.4916   -8.0928  -43.5658 H         1 UNK         0.0600 
    182 H182        5.9943   -9.3641  -44.6669 H         1 UNK         0.0600 
    183 H183        6.6796   -9.2804  -43.0431 H         1 UNK         0.0600 
    184 H184        6.0012  -11.6093  -43.4755 H         1 UNK         0.3000 
    185 H185        5.8150  -13.7547  -43.7717 H         1 UNK         0.0600 
    186 H186        5.6646  -13.9677  -41.2785 H         1 UNK         0.0600 
    187 H187        4.0835  -14.7284  -41.4263 H         1 UNK         0.0600 
    188 H188        5.5184  -15.5396  -42.0497 H         1 UNK         0.0600 
    189 H189        2.9826  -14.5240  -44.0746 H         1 UNK         0.3000 
    190 H190       -1.5574  -20.7370  -48.3705 H         1 UNK         0.3000 
    191 H191       -1.6103  -22.2563  -50.7363 H         1 UNK         0.0600 
    192 H192       -3.9267  -21.4399  -50.9279 H         1 UNK         0.0600 
    193 H193       -2.8863  -20.1497  -50.3391 H         1 UNK         0.0600 
    194 H194       -3.9565  -20.9917  -49.2255 H         1 UNK         0.0600 
    195 H195       -3.1352  -22.9407  -47.5431 H         1 UNK         0.3000 
    196 H196       -4.5076  -25.2960  -48.3245 H         1 UNK         0.0600 
    197 H197       -4.6027  -25.7498  -45.8724 H         1 UNK         0.0600 
    198 H198       -5.0164  -24.0812  -46.2342 H         1 UNK         0.0600 
    199 H199       -3.4283  -24.4738  -45.5785 H         1 UNK         0.0600 
    200 H200       -1.2000  -24.8500  -46.9919 H         1 UNK         0.3000 
    201 H201       -0.4741  -27.6058  -46.9490 H         1 UNK         0.0600 
    202 H202        0.7314  -25.8698  -45.6576 H         1 UNK         0.0600 
    203 H203        1.2682  -25.0911  -47.1435 H         1 UNK         0.0600 
    204 H204        1.8450  -26.7021  -46.7330 H         1 UNK         0.0600 
    205 H205       -0.1351  -25.0914  -49.4694 H         1 UNK         0.3000 
    206 H206        1.2373  -26.7550  -51.3773 H         1 UNK         0.0600 
    207 H207        1.3967  -24.2667  -51.3451 H         1 UNK         0.0600 
    208 H208        0.7936  -24.8270  -52.8970 H         1 UNK         0.0600 
    209 H209       -0.3198  -24.1361  -51.7241 H         1 UNK         0.0600 
    210 H210       -2.0435  -26.6372  -50.4331 H         1 UNK         0.3000 
    211 H211       -3.9788  -27.4292  -51.1147 H         1 UNK         0.0600 
    212 H212       -2.5253  -29.0953  -53.2354 H         1 UNK         0.0600 
    213 H213       -4.1529  -29.3525  -52.6267 H         1 UNK         0.0600 
    214 H214       -2.7776  -29.5872  -51.5607 H         1 UNK         0.0600 
    215 H215       -3.0307  -24.9715  -52.0437 H         1 UNK         0.3000 
    216 H216       -4.1928  -24.5825  -54.7698 H         1 UNK         0.0600 
    217 H217       -2.8817  -22.4854  -54.7366 H         1 UNK         0.0600 
    218 H218       -1.8223  -23.8481  -54.4099 H         1 UNK         0.0600 
    219 H219       -2.3442  -22.8034  -53.0896 H         1 UNK         0.0600 
    220 H220       -5.0124  -24.3160  -51.4919 H         1 UNK         0.3000 
    221 H221       -6.3512  -21.8607  -51.2848 H         1 UNK         0.0600 
    222 H222       -6.8617  -24.5280  -49.8654 H         1 UNK         0.0600 
    223 H223       -5.7983  -23.2272  -49.3258 H         1 UNK         0.0600 
    224 H224       -7.5324  -22.9825  -49.3565 H         1 UNK         0.0600 
    225 H225       -7.3866  -24.6965  -53.0071 H         1 UNK         0.3000 
    226 H226      -10.1903  -24.1722  -53.2136 H         1 UNK         0.0600 
    227 H227       -9.1725  -26.3675  -53.7753 H         1 UNK         0.0600 
    228 H228      -10.0225  -25.7232  -55.1703 H         1 UNK         0.0600 
    229 H229       -8.2661  -25.6380  -55.1015 H         1 UNK         0.0600 
    230 H230       -7.4064  -22.6388  -54.6938 H         1 UNK         0.3000 
    231 H231       -9.0949  -21.1052  -56.6196 H         1 UNK         0.0600 
    232 H232       -6.9600  -20.6076  -57.7399 H         1 UNK         0.0600 
    233 H233       -7.1223  -22.3477  -57.5745 H         1 UNK         0.0600 
    234 H234       -6.0526  -21.4547  -56.4933 H         1 UNK         0.0600 
    235 H235       -8.8441  -20.8365  -53.6128 H         1 UNK         0.3000 
    236 H236       -9.0053  -19.3095  -52.0769 H         1 UNK         0.0600 
    237 H237      -10.0117  -17.7271  -53.7220 H         1 UNK         0.0600 
    238 H238       -9.0664  -16.8974  -52.4953 H         1 UNK         0.0600 
    239 H239       -8.4090  -17.0997  -54.1091 H         1 UNK         0.0600 
    240 H240       -6.1337  -18.8253  -54.1581 H         1 UNK         0.3000 
    241 H241       -4.4418  -19.3509  -51.9320 H         1 UNK         0.0600 
    242 H242       -2.1884  -19.8582  -52.6075 H         1 UNK         0.3800 
    243 H243       -1.9071  -20.2317  -54.2867 H         1 UNK         0.3800 
    244 H244       -3.7477  -16.6756  -53.2373 H         1 UNK         0.0800 
    245 H245       -4.8883  -16.7096  -51.9298 H         1 UNK         0.0800 
    246 H246       -1.3541  -15.8006  -52.3517 H         1 UNK         0.0800 
    247 H247       -1.2761  -17.4085  -53.0229 H         1 UNK         0.0800 
@<TRIPOS>BOND
     1    1    2 1    
     2    1  127 1    
     3    1  128 1    
     4    1  129 1    
     5    2    3 2    
     6    2    4 am   BACKBONE|DICT|INTERRES
     7    4    5 1    
     8    4  130 1    
     9    5    6 1    
    10    5   65 1    
    11    5  131 1    
    12    6    7 1    
    13    6  132 1    
    14    6  133 1    
    15    7    8 1    
    16    8    9 1    
    17    8  134 1    
    18    8  135 1    
    19    9   10 ar   
    20    9   14 ar   
    21   10   11 ar   
    22   10  136 1    
    23   11   12 ar   
    24   11  126 1    
    25   12   13 ar   
    26   12  137 1    
    27   13   14 ar   
    28   13   15 1    
    29   14  138 1    
    30   15   16 1    
    31   15  139 1    
    32   15  140 1    
    33   16   17 1    
    34   17   18 1    
    35   17  141 1    
    36   17  142 1    
    37   18   19 1    
    38   18   67 1    
    39   18  143 1    
    40   19   20 am   BACKBONE|DICT|INTERRES
    41   19  144 1    
    42   20   21 2    
    43   20   22 1    
    44   22   23 1    
    45   22   24 1    
    46   22  145 1    
    47   23  146 1    
    48   23  147 1    
    49   23  148 1    
    50   24   25 am   BACKBONE|DICT|INTERRES
    51   24  149 1    
    52   25   26 2    
    53   25   27 1    
    54   27   28 1    
    55   27   29 1    
    56   27  150 1    
    57   28  151 1    
    58   28  152 1    
    59   28  153 1    
    60   29   30 am   BACKBONE|DICT|INTERRES
    61   29  154 1    
    62   30   31 2    
    63   30   32 1    
    64   32   33 1    
    65   32   34 1    
    66   32  155 1    
    67   33  156 1    
    68   33  157 1    
    69   33  158 1    
    70   34   35 am   BACKBONE|DICT|INTERRES
    71   34  159 1    
    72   35   36 2    
    73   35   37 1    
    74   37   38 1    
    75   37   39 1    
    76   37  160 1    
    77   38  161 1    
    78   38  162 1    
    79   38  163 1    
    80   39   40 am   BACKBONE|DICT|INTERRES
    81   39  164 1    
    82   40   41 2    
    83   40   42 1    
    84   42   43 1    
    85   42   44 1    
    86   42  165 1    
    87   43  166 1    
    88   43  167 1    
    89   43  168 1    
    90   44   45 am   BACKBONE|DICT|INTERRES
    91   44  169 1    
    92   45   46 2    
    93   45   47 1    
    94   47   48 1    
    95   47   49 1    
    96   47  170 1    
    97   48  171 1    
    98   48  172 1    
    99   48  173 1    
   100   49   50 am   BACKBONE|DICT|INTERRES
   101   49  174 1    
   102   50   51 2    
   103   50   52 1    
   104   52   53 1    
   105   52   54 1    
   106   52  175 1    
   107   53  176 1    
   108   53  177 1    
   109   53  178 1    
   110   54   55 am   BACKBONE|DICT|INTERRES
   111   54  179 1    
   112   55   56 2    
   113   55   57 1    
   114   57   58 1    
   115   57   59 1    
   116   57  180 1    
   117   58  181 1    
   118   58  182 1    
   119   58  183 1    
   120   59   60 am   BACKBONE|DICT|INTERRES
   121   59  184 1    
   122   60   61 2    
   123   60   62 1    
   124   62   63 1    
   125   62   64 1    
   126   62  185 1    
   127   63  186 1    
   128   63  187 1    
   129   63  188 1    
   130   64   65 am   BACKBONE|DICT|INTERRES
   131   64  189 1    
   132   65   66 2    
   133   67   68 2    
   134   67   69 am   BACKBONE|DICT|INTERRES
   135   69   70 1    
   136   69  190 1    
   137   70   71 1    
   138   70   72 1    
   139   70  191 1    
   140   71  192 1    
   141   71  193 1    
   142   71  194 1    
   143   72   73 2    
   144   72   74 am   BACKBONE|DICT|INTERRES
   145   74   75 1    
   146   74  195 1    
   147   75   76 1    
   148   75   77 1    
   149   75  196 1    
   150   76  197 1    
   151   76  198 1    
   152   76  199 1    
   153   77   78 2    
   154   77   79 am   BACKBONE|DICT|INTERRES
   155   79   80 1    
   156   79  200 1    
   157   80   81 1    
   158   80   82 1    
   159   80  201 1    
   160   81  202 1    
   161   81  203 1    
   162   81  204 1    
   163   82   83 2    
   164   82   84 am   BACKBONE|DICT|INTERRES
   165   84   85 1    
   166   84  205 1    
   167   85   86 1    
   168   85   87 1    
   169   85  206 1    
   170   86  207 1    
   171   86  208 1    
   172   86  209 1    
   173   87   88 2    
   174   87   89 am   BACKBONE|DICT|INTERRES
   175   89   90 1    
   176   89  210 1    
   177   90   91 1    
   178   90   92 1    
   179   90  211 1    
   180   91  212 1    
   181   91  213 1    
   182   91  214 1    
   183   92   93 2    
   184   92   94 am   BACKBONE|DICT|INTERRES
   185   94   95 1    
   186   94  215 1    
   187   95   96 1    
   188   95   97 1    
   189   95  216 1    
   190   96  217 1    
   191   96  218 1    
   192   96  219 1    
   193   97   98 2    
   194   97   99 am   BACKBONE|DICT|INTERRES
   195   99  100 1    
   196   99  220 1    
   197  100  101 1    
   198  100  102 1    
   199  100  221 1    
   200  101  222 1    
   201  101  223 1    
   202  101  224 1    
   203  102  103 2    
   204  102  104 am   BACKBONE|DICT|INTERRES
   205  104  105 1    
   206  104  225 1    
   207  105  106 1    
   208  105  107 1    
   209  105  226 1    
   210  106  227 1    
   211  106  228 1    
   212  106  229 1    
   213  107  108 2    
   214  107  109 am   BACKBONE|DICT|INTERRES
   215  109  110 1    
   216  109  230 1    
   217  110  111 1    
   218  110  112 1    
   219  110  231 1    
   220  111  232 1    
   221  111  233 1    
   222  111  234 1    
   223  112  113 2    
   224  112  114 am   BACKBONE|DICT|INTERRES
   225  114  115 1    
   226  114  235 1    
   227  115  116 1    
   228  115  117 1    
   229  115  236 1    
   230  116  237 1    
   231  116  238 1    
   232  116  239 1    
   233  117  118 2    
   234  117  119 am   BACKBONE|DICT|INTERRES
   235  119  120 1    
   236  119  240 1    
   237  120  121 1    
   238  120  124 1    
   239  120  241 1    
   240  121  122 am   BACKBONE|DICT|INTERRES
   241  121  123 2    
   242  122  242 1    
   243  122  243 1    
   244  124  125 1    
   245  124  244 1    
   246  124  245 1    
   247  125  126 1    
   248  126  246 1    
   249  126  247 1    
@<TRIPOS>SUBSTRUCTURE
     1 UNK         1 GROUP             0       ****    0 ROOT    
