@<TRIPOS>MOLECULE
3R540
247   249    1
SMALL
USER_CHARGES


@<TRIPOS>ATOM
      1 CA          4.9346  -12.1764  -48.6282 C.3       0 UNK        -0.1800 
      2 C           4.0358  -13.0058  -47.7231 C.2       0 UNK         0.5000 
      3 O           4.1178  -12.8874  -46.4997 O.2       0 UNK        -0.5000 
      4 N           3.1666  -13.8353  -48.3140 N.am      1 UNK        -0.5000 
      5 CA          2.2308  -14.7390  -47.6317 C.3       1 UNK         0.1400 
      6 C6          1.7456  -15.8778  -48.5619 C.3       23 UNK        -0.0398 
      7 S7          3.0839  -16.9187  -49.2410 S.3       23 UNK        -0.2404 
      8 C8          2.2445  -18.5320  -49.3983 C.3       23 UNK        -0.0205 
      9 C9          1.0846  -18.4797  -50.3838 C.ar      23 UNK        -0.0193 
     10 C10         1.2854  -18.7513  -51.7420 C.ar      23 UNK        -0.1150 
     11 C11         0.2183  -18.6727  -52.6436 C.ar      23 UNK        -0.0193 
     12 C12        -1.0477  -18.3105  -52.1779 C.ar      23 UNK        -0.1150 
     13 C13        -1.2647  -18.0493  -50.8243 C.ar      23 UNK        -0.0193 
     14 C14        -0.1959  -18.1478  -49.9326 C.ar      23 UNK        -0.1150 
     15 C15        -2.6426  -17.6290  -50.3357 C.3       23 UNK        -0.0205 
     16 S16        -3.5913  -19.0297  -49.6671 S.3       23 UNK        -0.2404 
     17 C17        -2.8746  -19.2231  -47.9972 C.3       23 UNK        -0.0398 
     18 CA         -2.0224  -20.5094  -47.8549 C.3       11 UNK         0.1400 
     19 N          -1.0294  -20.3914  -46.7822 N.am      11 UNK        -0.5000 
     20 C          -0.0919  -21.3125  -46.5033 C.2       10 UNK         0.5000 
     21 O           0.0757  -22.3350  -47.1647 O.2       10 UNK        -0.5000 
     22 CA          0.7619  -21.1028  -45.2379 C.3       10 UNK         0.1400 
     23 CB          2.1180  -20.4806  -45.5963 C.3       10 UNK        -0.1800 
     24 N           0.0959  -20.3043  -44.2087 N.am      10 UNK        -0.5000 
     25 C          -1.0682  -20.6221  -43.6225 C.2       9 UNK         0.5000 
     26 O          -1.6845  -21.6634  -43.8587 O.2       9 UNK        -0.5000 
     27 CA         -1.6762  -19.5865  -42.6576 C.3       9 UNK         0.1400 
     28 CB         -1.3746  -19.9753  -41.2035 C.3       9 UNK        -0.1800 
     29 N          -1.2256  -18.2111  -42.8959 N.am      9 UNK        -0.5000 
     30 C          -1.4379  -17.5038  -44.0168 C.2       8 UNK         0.5000 
     31 O          -2.0445  -17.9411  -44.9958 O.2       8 UNK        -0.5000 
     32 CA         -0.8051  -16.0997  -44.0713 C.3       8 UNK         0.1400 
     33 CB         -1.6063  -15.0898  -43.2361 C.3       8 UNK        -0.1800 
     34 N           0.5866  -16.1246  -43.6181 N.am      8 UNK        -0.5000 
     35 C           1.5826  -16.6989  -44.3070 C.2       7 UNK         0.5000 
     36 O           1.4461  -17.1530  -45.4403 O.2       7 UNK        -0.5000 
     37 CA          2.9474  -16.8195  -43.6092 C.3       7 UNK         0.1400 
     38 CB          3.8245  -15.5931  -43.9062 C.3       7 UNK        -0.1800 
     39 N           2.7994  -16.9849  -42.1631 N.am      7 UNK        -0.5000 
     40 C           2.4541  -18.1361  -41.5678 C.2       6 UNK         0.5000 
     41 O           2.2637  -19.1862  -42.1800 O.2       6 UNK        -0.5000 
     42 CA          2.2617  -18.1099  -40.0376 C.3       6 UNK         0.1400 
     43 CB          3.5844  -18.4299  -39.3257 C.3       6 UNK        -0.1800 
     44 N           1.7471  -16.8334  -39.5394 N.am      6 UNK        -0.5000 
     45 C           0.5389  -16.3312  -39.8296 C.2       5 UNK         0.5000 
     46 O          -0.2994  -16.9251  -40.5059 O.2       5 UNK        -0.5000 
     47 CA          0.2430  -14.8977  -39.3430 C.3       5 UNK         0.1400 
     48 CB         -0.4367  -14.9284  -37.9665 C.3       5 UNK        -0.1800 
     49 N           1.4247  -14.0271  -39.2818 N.am      5 UNK        -0.5000 
     50 C           2.2395  -13.7650  -40.3131 C.2       4 UNK         0.5000 
     51 O           2.0796  -14.2537  -41.4332 O.2       4 UNK        -0.5000 
     52 CA          3.4340  -12.8238  -40.0378 C.3       4 UNK         0.1400 
     53 CB          4.3061  -13.3685  -38.8924 C.3       4 UNK        -0.1800 
     54 N           4.2992  -12.6441  -41.2096 N.am      4 UNK        -0.5000 
     55 C           4.0381  -12.0145  -42.3648 C.2       3 UNK         0.5000 
     56 O           4.8461  -12.0335  -43.2933 O.2       3 UNK        -0.5000 
     57 CA          2.7316  -11.2232  -42.5561 C.3       3 UNK         0.1400 
     58 CB          2.9957   -9.7079  -42.5455 C.3       3 UNK        -0.1800 
     59 N           2.1459  -11.6134  -43.8351 N.am      3 UNK        -0.5000 
     60 C           0.8293  -11.6794  -44.0740 C.2       2 UNK         0.5000 
     61 O          -0.0259  -11.3838  -43.2384 O.2       2 UNK        -0.5000 
     62 CA          0.3672  -12.1443  -45.4640 C.3       2 UNK         0.1400 
     63 CB          0.0552  -10.9380  -46.3669 C.3       2 UNK        -0.1800 
     64 N           1.3390  -13.0149  -46.1230 N.am      2 UNK        -0.5000 
     65 C           1.0386  -13.9729  -47.0048 C.2       1 UNK         0.5000 
     66 O          -0.1168  -14.2369  -47.3434 O.2       1 UNK        -0.5000 
     67 C          -2.9247  -21.7511  -47.6756 C.2       11 UNK         0.5000 
     68 O          -3.2077  -22.4539  -48.6472 O.2       11 UNK        -0.5000 
     69 N          -3.3354  -22.0151  -46.4281 N.am      12 UNK        -0.5000 
     70 CA         -4.1248  -23.1867  -46.0637 C.3       12 UNK         0.1400 
     71 CB         -4.8682  -22.9185  -44.7464 C.3       12 UNK        -0.1800 
     72 C          -3.2451  -24.4418  -45.9567 C.2       12 UNK         0.5000 
     73 O          -3.6299  -25.4910  -46.4720 O.2       12 UNK        -0.5000 
     74 N          -2.0749  -24.3103  -45.3132 N.am      13 UNK        -0.5000 
     75 CA         -1.1468  -25.4152  -45.0504 C.3       13 UNK         0.1400 
     76 CB         -0.0312  -24.9434  -44.1072 C.3       13 UNK        -0.1800 
     77 C          -0.5497  -26.0424  -46.3250 C.2       13 UNK         0.5000 
     78 O          -0.4183  -27.2650  -46.3912 O.2       13 UNK        -0.5000 
     79 N          -0.2261  -25.2066  -47.3217 N.am      14 UNK        -0.5000 
     80 CA          0.2701  -25.6358  -48.6327 C.3       14 UNK         0.1400 
     81 CB          1.0888  -24.4923  -49.2548 C.3       14 UNK        -0.1800 
     82 C          -0.8560  -26.0651  -49.5950 C.2       14 UNK         0.5000 
     83 O          -0.5543  -26.5491  -50.6864 O.2       14 UNK        -0.5000 
     84 N          -2.1202  -25.8515  -49.1964 N.am      15 UNK        -0.5000 
     85 CA         -3.3480  -26.0471  -49.9754 C.3       15 UNK         0.1400 
     86 CB         -3.5666  -27.5353  -50.3169 C.3       15 UNK        -0.1800 
     87 C          -3.4354  -25.1246  -51.2104 C.2       15 UNK         0.5000 
     88 O          -4.1032  -25.4595  -52.1889 O.2       15 UNK        -0.5000 
     89 N          -2.7917  -23.9530  -51.1294 N.am      16 UNK        -0.5000 
     90 CA         -2.8535  -22.8900  -52.1306 C.3       16 UNK         0.1400 
     91 CB         -1.7886  -21.8372  -51.8122 C.3       16 UNK        -0.1800 
     92 C          -4.2405  -22.2323  -52.1889 C.2       16 UNK         0.5000 
     93 O          -4.6882  -21.8610  -53.2743 O.2       16 UNK        -0.5000 
     94 N          -4.8987  -22.1457  -51.0236 N.am      17 UNK        -0.5000 
     95 CA         -6.2533  -21.6284  -50.8336 C.3       17 UNK         0.1400 
     96 CB         -6.5513  -21.5593  -49.3277 C.3       17 UNK        -0.1800 
     97 C          -7.3336  -22.4587  -51.5524 C.2       17 UNK         0.5000 
     98 O          -8.3583  -21.9049  -51.9510 O.2       17 UNK        -0.5000 
     99 N          -7.0785  -23.7627  -51.7414 N.am      18 UNK        -0.5000 
    100 CA        -7.9411  -24.6773  -52.4965 C.3       18 UNK         0.1400 
    101 CB        -7.5315  -26.1275  -52.1983 C.3       18 UNK        -0.1800 
    102 C         -7.9197  -24.4030  -54.0145 C.2       18 UNK         0.5000 
    103 O         -8.8607  -24.7819  -54.7118 O.2       18 UNK        -0.5000 
    104 N         -6.8697  -23.7193  -54.4867 N.am      19 UNK        -0.5000 
    105 CA        -6.7132  -23.2086  -55.8463 C.3       19 UNK         0.1400 
    106 CB        -5.3497  -23.6750  -56.3865 C.3       19 UNK        -0.1800 
    107 C         -6.8474  -21.6713  -55.8518 C.2       19 UNK         0.5000 
    108 O         -6.2013  -21.0023  -56.6612 O.2       19 UNK        -0.5000 
    109 N         -7.6473  -21.1332  -54.9175 N.am      20 UNK        -0.5000 
    110 CA        -7.8829  -19.7207  -54.5950 C.3       20 UNK         0.1400 
    111 CB        -8.4734  -18.9481  -55.7908 C.3       20 UNK        -0.1800 
    112 C         -6.6433  -19.0170  -54.0118 C.2       20 UNK         0.5000 
    113 O         -6.7042  -18.5102  -52.8916 O.2       20 UNK        -0.5000 
    114 N         -5.5471  -19.0204  -54.7734 N.am      21 UNK        -0.5000 
    115 CA        -4.2321  -18.5135  -54.4102 C.3       21 UNK         0.1400 
    116 CB        -4.2412  -16.9725  -54.3132 C.3       21 UNK        -0.1800 
    117 C         -3.2141  -19.0420  -55.4344 C.2       21 UNK         0.5000 
    118 O         -2.6728  -18.2637  -56.2213 O.2       21 UNK        -0.5000 
    119 N         -2.9957  -20.3634  -55.4225 N.am      22 UNK        -0.5000 
    120 CA        -2.0637  -21.0901  -56.3131 C.3       22 UNK         0.1400 
    121 C         -2.5153  -21.1722  -57.8068 C.2       22 UNK         0.5000 
    122 N         -3.7856  -20.9870  -58.1402 N.am      22 UNK        -0.7600 
    123 O         -1.7044  -21.4334  -58.6919 O.2       22 UNK        -0.5000 
    124 C124       -0.5753  -20.6293  -56.1938 C.3       23 UNK        -0.0398 
    125 S125        0.0992  -20.7134  -54.5009 S.3       23 UNK        -0.2404 
    126 C126        0.4182  -18.9605  -54.1236 C.3       23 UNK        -0.0205 
    127 H127        5.9816  -12.3917  -48.4149 H         1 UNK         0.0600 
    128 H128        4.7618  -11.1141  -48.4560 H         1 UNK         0.0600 
    129 H129        4.7520  -12.3851  -49.6827 H         1 UNK         0.0600 
    130 H130        3.1412  -13.8773  -49.3228 H         1 UNK         0.3000 
    131 H131        2.7678  -15.2072  -46.8065 H         1 UNK         0.0600 
    132 H132        1.1652  -15.4793  -49.3960 H         1 UNK         0.0800 
    133 H133        1.0749  -16.5238  -47.9961 H         1 UNK         0.0800 
    134 H134        2.9709  -19.2792  -49.7211 H         1 UNK         0.0800 
    135 H135        1.8914  -18.8559  -48.4184 H         1 UNK         0.0800 
    136 H136        2.2711  -19.0166  -52.0976 H         1 UNK         0.1150 
    137 H137       -1.8658  -18.2330  -52.8746 H         1 UNK         0.1150 
    138 H138       -0.3578  -17.9476  -48.8851 H         1 UNK         0.1150 
    139 H139       -3.2099  -17.1940  -51.1600 H         1 UNK         0.0800 
    140 H140       -2.5550  -16.8411  -49.5861 H         1 UNK         0.0800 
    141 H141       -3.6832  -19.2004  -47.2641 H         1 UNK         0.0800 
    142 H142       -2.2735  -18.3429  -47.7714 H         1 UNK         0.0800 
    143 H143       -1.4473  -20.6458  -48.7712 H         1 UNK         0.0600 
    144 H144       -1.1212  -19.5911  -46.1675 H         1 UNK         0.3000 
    145 H145        0.9548  -22.0818  -44.8020 H         1 UNK         0.0600 
    146 H146        2.6791  -21.1357  -46.2638 H         1 UNK         0.0600 
    147 H147        2.7304  -20.3189  -44.7092 H         1 UNK         0.0600 
    148 H148        2.0013  -19.5264  -46.1061 H         1 UNK         0.0600 
    149 H149        0.5563  -19.4498  -43.9275 H         1 UNK         0.3000 
    150 H150       -2.7584  -19.6081  -42.8000 H         1 UNK         0.0600 
    151 H151       -1.7348  -20.9813  -40.9840 H         1 UNK         0.0600 
    152 H152       -1.8613  -19.2961  -40.5034 H         1 UNK         0.0600 
    153 H153       -0.3039  -19.9578  -40.9995 H         1 UNK         0.0600 
    154 H154       -0.7531  -17.7566  -42.1179 H         1 UNK         0.3000 
    155 H155       -0.8221  -15.7646  -45.1103 H         1 UNK         0.0600 
    156 H156       -1.6704  -15.3842  -42.1889 H         1 UNK         0.0600 
    157 H157       -2.6259  -14.9996  -43.6124 H         1 UNK         0.0600 
    158 H158       -1.1558  -14.0984  -43.2753 H         1 UNK         0.0600 
    159 H159        0.7862  -15.7484  -42.7007 H         1 UNK         0.3000 
    160 H160        3.4550  -17.7004  -44.0084 H         1 UNK         0.0600 
    161 H161        3.2995  -14.6582  -43.7106 H         1 UNK         0.0600 
    162 H162        4.1300  -15.5790  -44.9522 H         1 UNK         0.0600 
    163 H163        4.7348  -15.5983  -43.3069 H         1 UNK         0.0600 
    164 H164        2.8546  -16.1375  -41.6109 H         1 UNK         0.3000 
    165 H165        1.5394  -18.8870  -39.7807 H         1 UNK         0.0600 
    166 H166        3.4461  -18.4943  -38.2463 H         1 UNK         0.0600 
    167 H167        3.9846  -19.3886  -39.6585 H         1 UNK         0.0600 
    168 H168        4.3425  -17.6710  -39.5235 H         1 UNK         0.0600 
    169 H169        2.3744  -16.2774  -38.9777 H         1 UNK         0.3000 
    170 H170       -0.4528  -14.4523  -40.0570 H         1 UNK         0.0600 
    171 H171       -0.7451  -13.9300  -37.6559 H         1 UNK         0.0600 
    172 H172        0.2260  -15.3304  -37.1991 H         1 UNK         0.0600 
    173 H173       -1.3321  -15.5513  -37.9867 H         1 UNK         0.0600 
    174 H174        1.6109  -13.5936  -38.3889 H         1 UNK         0.3000 
    175 H175        3.0421  -11.8507  -39.7368 H         1 UNK         0.0600 
    176 H176        3.7511  -13.4293  -37.9558 H         1 UNK         0.0600 
    177 H177        4.6864  -14.3665  -39.1153 H         1 UNK         0.0600 
    178 H178        5.1630  -12.7198  -38.7081 H         1 UNK         0.0600 
    179 H179        5.1745  -13.1419  -41.1573 H         1 UNK         0.3000 
    180 H180        2.0265  -11.4427  -41.7571 H         1 UNK         0.0600 
    181 H181        2.0701   -9.1452  -42.6685 H         1 UNK         0.0600 
    182 H182        3.6758   -9.4117  -43.3451 H         1 UNK         0.0600 
    183 H183        3.4423   -9.3976  -41.6001 H         1 UNK         0.0600 
    184 H184        2.8218  -11.8801  -44.5386 H         1 UNK         0.3000 
    185 H185       -0.5571  -12.7046  -45.3070 H         1 UNK         0.0600 
    186 H186       -0.3794  -11.2550  -47.3150 H         1 UNK         0.0600 
    187 H187       -0.6609  -10.2666  -45.8913 H         1 UNK         0.0600 
    188 H188        0.9538  -10.3602  -46.5863 H         1 UNK         0.0600 
    189 H189        2.3250  -12.8459  -45.9475 H         1 UNK         0.3000 
    190 H190       -2.9996  -21.4415  -45.6659 H         1 UNK         0.3000 
    191 H191       -4.8732  -23.3643  -46.8395 H         1 UNK         0.0600 
    192 H192       -5.5279  -22.0553  -44.8364 H         1 UNK         0.0600 
    193 H193       -5.4870  -23.7726  -44.4686 H         1 UNK         0.0600 
    194 H194       -4.1810  -22.7299  -43.9211 H         1 UNK         0.0600 
    195 H195       -1.8471  -23.4109  -44.9021 H         1 UNK         0.3000 
    196 H196       -1.7130  -26.1934  -44.5341 H         1 UNK         0.0600 
    197 H197        0.5552  -25.7909  -43.7506 H         1 UNK         0.0600 
    198 H198       -0.4338  -24.4333  -43.2317 H         1 UNK         0.0600 
    199 H199        0.6572  -24.2664  -44.6098 H         1 UNK         0.0600 
    200 H200       -0.3161  -24.2026  -47.1840 H         1 UNK         0.3000 
    201 H201        0.9339  -26.4925  -48.4993 H         1 UNK         0.0600 
    202 H202        1.5613  -24.8096  -50.1852 H         1 UNK         0.0600 
    203 H203        1.8824  -24.1624  -48.5842 H         1 UNK         0.0600 
    204 H204        0.4632  -23.6289  -49.4855 H         1 UNK         0.0600 
    205 H205       -2.2604  -25.4819  -48.2648 H         1 UNK         0.3000 
    206 H206       -4.1651  -25.7410  -49.3207 H         1 UNK         0.0600 
    207 H207       -3.5014  -28.1575  -49.4243 H         1 UNK         0.0600 
    208 H208       -4.5544  -27.6949  -50.7509 H         1 UNK         0.0600 
    209 H209       -2.8331  -27.9000  -51.0362 H         1 UNK         0.0600 
    210 H210       -2.3421  -23.7185  -50.2542 H         1 UNK         0.3000 
    211 H211       -2.6401  -23.3178  -53.1123 H         1 UNK         0.0600 
    212 H212       -1.8991  -21.4430  -50.8052 H         1 UNK         0.0600 
    213 H213       -1.8740  -20.9912  -52.4921 H         1 UNK         0.0600 
    214 H214       -0.7819  -22.2438  -51.9074 H         1 UNK         0.0600 
    215 H215       -4.3998  -22.4216  -50.1826 H         1 UNK         0.3000 
    216 H216       -6.2833  -20.6161  -51.2397 H         1 UNK         0.0600 
    217 H217       -6.4971  -22.5438  -48.8614 H         1 UNK         0.0600 
    218 H218       -7.5500  -21.1612  -49.1442 H         1 UNK         0.0600 
    219 H219       -5.8449  -20.9080  -48.8135 H         1 UNK         0.0600 
    220 H220       -6.2006  -24.1371  -51.4120 H         1 UNK         0.3000 
    221 H221       -8.9678  -24.5379  -52.1513 H         1 UNK         0.0600 
    222 H222       -6.5346  -26.3525  -52.5770 H         1 UNK         0.0600 
    223 H223       -7.5400  -26.3312  -51.1274 H         1 UNK         0.0600 
    224 H224       -8.2221  -26.8292  -52.6677 H         1 UNK         0.0600 
    225 H225       -6.1603  -23.4142  -53.8314 H         1 UNK         0.3000 
    226 H226       -7.4940  -23.6026  -56.4994 H         1 UNK         0.0600 
    227 H227       -5.2574  -24.7600  -56.3367 H         1 UNK         0.0600 
    228 H228       -5.2217  -23.3895  -57.4309 H         1 UNK         0.0600 
    229 H229       -4.5239  -23.2435  -55.8196 H         1 UNK         0.0600 
    230 H230       -8.0803  -21.7762  -54.2679 H         1 UNK         0.3000 
    231 H231       -8.6393  -19.7235  -53.8085 H         1 UNK         0.0600 
    232 H232       -7.7775  -18.8831  -56.6273 H         1 UNK         0.0600 
    233 H233       -8.7285  -17.9277  -55.5027 H         1 UNK         0.0600 
    234 H234       -9.3863  -19.4216  -56.1518 H         1 UNK         0.0600 
    235 H235       -5.6033  -19.5235  -55.6551 H         1 UNK         0.3000 
    236 H236       -3.9673  -18.9265  -53.4347 H         1 UNK         0.0600 
    237 H237       -4.5923  -16.5155  -55.2390 H         1 UNK         0.0600 
    238 H238       -4.8835  -16.6251  -53.5044 H         1 UNK         0.0600 
    239 H239       -3.2412  -16.5859  -54.1136 H         1 UNK         0.0600 
    240 H240       -3.5230  -20.9318  -54.7688 H         1 UNK         0.3000 
    241 H241       -2.0981  -22.1236  -55.9674 H         1 UNK         0.0600 
    242 H242       -4.5159  -20.8522  -57.4479 H         1 UNK         0.3800 
    243 H243       -4.0428  -21.0477  -59.1119 H         1 UNK         0.3800 
    244 H244       -0.4472  -19.6262  -56.6016 H         1 UNK         0.0800 
    245 H245        0.0630  -21.2713  -56.8028 H         1 UNK         0.0800 
    246 H246        1.4339  -18.7051  -54.4287 H         1 UNK         0.0800 
    247 H247       -0.2462  -18.3204  -54.7054 H         1 UNK         0.0800 
@<TRIPOS>BOND
     1    1    2 1    
     2    1  127 1    
     3    1  128 1    
     4    1  129 1    
     5    2    3 2    
     6    2    4 am   BACKBONE|DICT|INTERRES
     7    4    5 1    
     8    4  130 1    
     9    5    6 1    
    10    5   65 1    
    11    5  131 1    
    12    6    7 1    
    13    6  132 1    
    14    6  133 1    
    15    7    8 1    
    16    8    9 1    
    17    8  134 1    
    18    8  135 1    
    19    9   10 ar   
    20    9   14 ar   
    21   10   11 ar   
    22   10  136 1    
    23   11   12 ar   
    24   11  126 1    
    25   12   13 ar   
    26   12  137 1    
    27   13   14 ar   
    28   13   15 1    
    29   14  138 1    
    30   15   16 1    
    31   15  139 1    
    32   15  140 1    
    33   16   17 1    
    34   17   18 1    
    35   17  141 1    
    36   17  142 1    
    37   18   19 1    
    38   18   67 1    
    39   18  143 1    
    40   19   20 am   BACKBONE|DICT|INTERRES
    41   19  144 1    
    42   20   21 2    
    43   20   22 1    
    44   22   23 1    
    45   22   24 1    
    46   22  145 1    
    47   23  146 1    
    48   23  147 1    
    49   23  148 1    
    50   24   25 am   BACKBONE|DICT|INTERRES
    51   24  149 1    
    52   25   26 2    
    53   25   27 1    
    54   27   28 1    
    55   27   29 1    
    56   27  150 1    
    57   28  151 1    
    58   28  152 1    
    59   28  153 1    
    60   29   30 am   BACKBONE|DICT|INTERRES
    61   29  154 1    
    62   30   31 2    
    63   30   32 1    
    64   32   33 1    
    65   32   34 1    
    66   32  155 1    
    67   33  156 1    
    68   33  157 1    
    69   33  158 1    
    70   34   35 am   BACKBONE|DICT|INTERRES
    71   34  159 1    
    72   35   36 2    
    73   35   37 1    
    74   37   38 1    
    75   37   39 1    
    76   37  160 1    
    77   38  161 1    
    78   38  162 1    
    79   38  163 1    
    80   39   40 am   BACKBONE|DICT|INTERRES
    81   39  164 1    
    82   40   41 2    
    83   40   42 1    
    84   42   43 1    
    85   42   44 1    
    86   42  165 1    
    87   43  166 1    
    88   43  167 1    
    89   43  168 1    
    90   44   45 am   BACKBONE|DICT|INTERRES
    91   44  169 1    
    92   45   46 2    
    93   45   47 1    
    94   47   48 1    
    95   47   49 1    
    96   47  170 1    
    97   48  171 1    
    98   48  172 1    
    99   48  173 1    
   100   49   50 am   BACKBONE|DICT|INTERRES
   101   49  174 1    
   102   50   51 2    
   103   50   52 1    
   104   52   53 1    
   105   52   54 1    
   106   52  175 1    
   107   53  176 1    
   108   53  177 1    
   109   53  178 1    
   110   54   55 am   BACKBONE|DICT|INTERRES
   111   54  179 1    
   112   55   56 2    
   113   55   57 1    
   114   57   58 1    
   115   57   59 1    
   116   57  180 1    
   117   58  181 1    
   118   58  182 1    
   119   58  183 1    
   120   59   60 am   BACKBONE|DICT|INTERRES
   121   59  184 1    
   122   60   61 2    
   123   60   62 1    
   124   62   63 1    
   125   62   64 1    
   126   62  185 1    
   127   63  186 1    
   128   63  187 1    
   129   63  188 1    
   130   64   65 am   BACKBONE|DICT|INTERRES
   131   64  189 1    
   132   65   66 2    
   133   67   68 2    
   134   67   69 am   BACKBONE|DICT|INTERRES
   135   69   70 1    
   136   69  190 1    
   137   70   71 1    
   138   70   72 1    
   139   70  191 1    
   140   71  192 1    
   141   71  193 1    
   142   71  194 1    
   143   72   73 2    
   144   72   74 am   BACKBONE|DICT|INTERRES
   145   74   75 1    
   146   74  195 1    
   147   75   76 1    
   148   75   77 1    
   149   75  196 1    
   150   76  197 1    
   151   76  198 1    
   152   76  199 1    
   153   77   78 2    
   154   77   79 am   BACKBONE|DICT|INTERRES
   155   79   80 1    
   156   79  200 1    
   157   80   81 1    
   158   80   82 1    
   159   80  201 1    
   160   81  202 1    
   161   81  203 1    
   162   81  204 1    
   163   82   83 2    
   164   82   84 am   BACKBONE|DICT|INTERRES
   165   84   85 1    
   166   84  205 1    
   167   85   86 1    
   168   85   87 1    
   169   85  206 1    
   170   86  207 1    
   171   86  208 1    
   172   86  209 1    
   173   87   88 2    
   174   87   89 am   BACKBONE|DICT|INTERRES
   175   89   90 1    
   176   89  210 1    
   177   90   91 1    
   178   90   92 1    
   179   90  211 1    
   180   91  212 1    
   181   91  213 1    
   182   91  214 1    
   183   92   93 2    
   184   92   94 am   BACKBONE|DICT|INTERRES
   185   94   95 1    
   186   94  215 1    
   187   95   96 1    
   188   95   97 1    
   189   95  216 1    
   190   96  217 1    
   191   96  218 1    
   192   96  219 1    
   193   97   98 2    
   194   97   99 am   BACKBONE|DICT|INTERRES
   195   99  100 1    
   196   99  220 1    
   197  100  101 1    
   198  100  102 1    
   199  100  221 1    
   200  101  222 1    
   201  101  223 1    
   202  101  224 1    
   203  102  103 2    
   204  102  104 am   BACKBONE|DICT|INTERRES
   205  104  105 1    
   206  104  225 1    
   207  105  106 1    
   208  105  107 1    
   209  105  226 1    
   210  106  227 1    
   211  106  228 1    
   212  106  229 1    
   213  107  108 2    
   214  107  109 am   BACKBONE|DICT|INTERRES
   215  109  110 1    
   216  109  230 1    
   217  110  111 1    
   218  110  112 1    
   219  110  231 1    
   220  111  232 1    
   221  111  233 1    
   222  111  234 1    
   223  112  113 2    
   224  112  114 am   BACKBONE|DICT|INTERRES
   225  114  115 1    
   226  114  235 1    
   227  115  116 1    
   228  115  117 1    
   229  115  236 1    
   230  116  237 1    
   231  116  238 1    
   232  116  239 1    
   233  117  118 2    
   234  117  119 am   BACKBONE|DICT|INTERRES
   235  119  120 1    
   236  119  240 1    
   237  120  121 1    
   238  120  124 1    
   239  120  241 1    
   240  121  122 am   BACKBONE|DICT|INTERRES
   241  121  123 2    
   242  122  242 1    
   243  122  243 1    
   244  124  125 1    
   245  124  244 1    
   246  124  245 1    
   247  125  126 1    
   248  126  246 1    
   249  126  247 1    
@<TRIPOS>SUBSTRUCTURE
     1 UNK         1 GROUP             0       ****    0 ROOT    
