@<TRIPOS>MOLECULE
3R540
247   249    1
SMALL
USER_CHARGES


@<TRIPOS>ATOM
      1 CA          5.9305  -14.0355  -47.4003 C.3       0 UNK        -0.1800 
      2 C           4.5618  -13.4305  -47.1300 C.2       0 UNK         0.5000 
      3 O           4.0819  -13.4772  -45.9989 O.2       0 UNK        -0.5000 
      4 N           3.9260  -12.8481  -48.1542 N.am      1 UNK        -0.5000 
      5 CA          2.5722  -12.2763  -48.0781 C.3       1 UNK         0.1400 
      6 C6          1.9452  -12.0470  -49.4750 C.3       23 UNK        -0.0398 
      7 S7          1.8661  -13.5858  -50.4543 S.3       23 UNK        -0.2404 
      8 C8          0.3639  -14.3399  -49.7560 C.3       23 UNK        -0.0205 
      9 C9          0.2127  -15.7950  -50.1690 C.ar      23 UNK        -0.0193 
     10 C10        -0.8367  -16.1894  -51.0024 C.ar      23 UNK        -0.1150 
     11 C11        -1.0085  -17.5348  -51.3415 C.ar      23 UNK        -0.0193 
     12 C12        -0.1189  -18.4906  -50.8399 C.ar      23 UNK        -0.1150 
     13 C13         0.9350  -18.1081  -50.0015 C.ar      23 UNK        -0.0193 
     14 C14         1.0989  -16.7582  -49.6788 C.ar      23 UNK        -0.1150 
     15 C15         1.8824  -19.1546  -49.4250 C.3       23 UNK        -0.0205 
     16 S16         1.8190  -19.2459  -47.6005 S.3       23 UNK        -0.2404 
     17 C17         0.0621  -19.6387  -47.3130 C.3       23 UNK        -0.0398 
     18 CA         -0.1684  -21.1590  -47.1577 C.3       11 UNK         0.1400 
     19 N           0.2029  -21.6358  -45.8233 N.am      11 UNK        -0.5000 
     20 C           0.1483  -22.9090  -45.4088 C.2       10 UNK         0.5000 
     21 O          -0.1502  -23.8523  -46.1408 O.2       10 UNK        -0.5000 
     22 CA          0.4145  -23.1713  -43.9148 C.3       10 UNK         0.1400 
     23 CB          1.8720  -23.6050  -43.7014 C.3       10 UNK        -0.1800 
     24 N           0.1250  -22.0349  -43.0347 N.am      10 UNK        -0.5000 
     25 C          -1.0419  -21.3865  -42.9139 C.2       9 UNK         0.5000 
     26 O          -2.0337  -21.6512  -43.5945 O.2       9 UNK        -0.5000 
     27 CA         -1.1177  -20.2202  -41.9062 C.3       9 UNK         0.1400 
     28 CB         -1.9649  -20.5995  -40.6774 C.3       9 UNK        -0.1800 
     29 N           0.1759  -19.6497  -41.5041 N.am      9 UNK        -0.5000 
     30 C           1.1554  -20.1950  -40.7673 C.2       8 UNK         0.5000 
     31 O           1.1364  -21.3494  -40.3416 O.2       8 UNK        -0.5000 
     32 CA          2.3804  -19.3071  -40.4874 C.3       8 UNK         0.1400 
     33 CB          3.3911  -19.4213  -41.6392 C.3       8 UNK        -0.1800 
     34 N           2.0233  -17.9018  -40.2910 N.am      8 UNK        -0.5000 
     35 C           1.3637  -17.4251  -39.2255 C.2       7 UNK         0.5000 
     36 O           1.0446  -18.1111  -38.2536 O.2       7 UNK        -0.5000 
     37 CA          0.9738  -15.9357  -39.2627 C.3       7 UNK         0.1400 
     38 CB          2.1634  -15.0454  -38.8723 C.3       7 UNK        -0.1800 
     39 N           0.4639  -15.5225  -40.5701 N.am      7 UNK        -0.5000 
     40 C          -0.6842  -15.9516  -41.1136 C.2       6 UNK         0.5000 
     41 O          -1.4713  -16.7109  -40.5487 O.2       6 UNK        -0.5000 
     42 CA         -0.9923  -15.4725  -42.5422 C.3       6 UNK         0.1400 
     43 CB         -1.6566  -14.0870  -42.5279 C.3       6 UNK        -0.1800 
     44 N           0.2068  -15.4323  -43.3779 N.am      6 UNK        -0.5000 
     45 C           0.8272  -16.5163  -43.8631 C.2       5 UNK         0.5000 
     46 O           0.4406  -17.6702  -43.6747 O.2       5 UNK        -0.5000 
     47 CA          2.1089  -16.2641  -44.6772 C.3       5 UNK         0.1400 
     48 CB          1.7471  -15.8773  -46.1190 C.3       5 UNK        -0.1800 
     49 N           2.9617  -15.2210  -44.1038 N.am      5 UNK        -0.5000 
     50 C           3.5167  -15.2509  -42.8857 C.2       4 UNK         0.5000 
     51 O           3.4031  -16.1955  -42.1066 O.2       4 UNK        -0.5000 
     52 CA          4.2713  -13.9859  -42.4350 C.3       4 UNK         0.1400 
     53 CB          5.7145  -13.9803  -42.9607 C.3       4 UNK        -0.1800 
     54 N           3.5986  -12.7365  -42.8067 N.am      4 UNK        -0.5000 
     55 C           2.3707  -12.3798  -42.4080 C.2       3 UNK         0.5000 
     56 O           1.6491  -13.1114  -41.7293 O.2       3 UNK        -0.5000 
     57 CA          1.8256  -10.9982  -42.8256 C.3       3 UNK         0.1400 
     58 CB          1.9588   -9.9895  -41.6693 C.3       3 UNK        -0.1800 
     59 N           2.3524  -10.4384  -44.0783 N.am      3 UNK        -0.5000 
     60 C           3.5833   -9.9990  -44.3719 C.2       2 UNK         0.5000 
     61 O           4.5434  -10.0871  -43.6051 O.2       2 UNK        -0.5000 
     62 CA          3.7643   -9.4026  -45.7862 C.3       2 UNK         0.1400 
     63 CB          5.1272   -8.7110  -45.9677 C.3       2 UNK        -0.1800 
     64 N           3.6253  -10.4369  -46.8099 N.am      2 UNK        -0.5000 
     65 C           2.4774  -11.0104  -47.1962 C.2       1 UNK         0.5000 
     66 O           1.3700  -10.6066  -46.8365 O.2       1 UNK        -0.5000 
     67 C          -1.6186  -21.5154  -47.5414 C.2       11 UNK         0.5000 
     68 O          -1.8588  -21.8404  -48.7029 O.2       11 UNK        -0.5000 
     69 N          -2.5502  -21.4846  -46.5758 N.am      12 UNK        -0.5000 
     70 CA         -3.9540  -21.8355  -46.8004 C.3       12 UNK         0.1400 
     71 CB         -4.7961  -21.4200  -45.5857 C.3       12 UNK        -0.1800 
     72 C          -4.1384  -23.3314  -47.1063 C.2       12 UNK         0.5000 
     73 O          -4.9540  -23.6796  -47.9601 O.2       12 UNK        -0.5000 
     74 N          -3.3515  -24.1807  -46.4322 N.am      13 UNK        -0.5000 
     75 CA         -3.3058  -25.6217  -46.6660 C.3       13 UNK         0.1400 
     76 CB         -2.6223  -26.3179  -45.4789 C.3       13 UNK        -0.1800 
     77 C          -2.5995  -25.9576  -47.9901 C.2       13 UNK         0.5000 
     78 O          -3.1208  -26.7585  -48.7656 O.2       13 UNK        -0.5000 
     79 N          -1.4506  -25.3128  -48.2414 N.am      14 UNK        -0.5000 
     80 CA         -0.6354  -25.4846  -49.4465 C.3       14 UNK         0.1400 
     81 CB          0.6810  -24.7091  -49.2889 C.3       14 UNK        -0.1800 
     82 C          -1.3615  -25.0620  -50.7364 C.2       14 UNK         0.5000 
     83 O          -1.2714  -25.7658  -51.7426 O.2       14 UNK        -0.5000 
     84 N          -2.0936  -23.9417  -50.6741 N.am      15 UNK        -0.5000 
     85 CA         -2.9213  -23.4345  -51.7677 C.3       15 UNK         0.1400 
     86 CB         -3.0668  -21.9119  -51.6240 C.3       15 UNK        -0.1800 
     87 C          -4.3054  -24.1051  -51.8420 C.2       15 UNK         0.5000 
     88 O          -5.0553  -23.7987  -52.7685 O.2       15 UNK        -0.5000 
     89 N          -4.6357  -24.9848  -50.8847 N.am      16 UNK        -0.5000 
     90 CA         -5.8889  -25.7394  -50.7645 C.3       16 UNK         0.1400 
     91 CB         -5.9836  -26.7972  -51.8836 C.3       16 UNK        -0.1800 
     92 C          -7.1284  -24.8223  -50.6991 C.2       16 UNK         0.5000 
     93 O          -8.0874  -25.0206  -51.4454 O.2       16 UNK        -0.5000 
     94 N          -7.0564  -23.8078  -49.8252 N.am      17 UNK        -0.5000 
     95 CA         -8.0230  -22.7166  -49.6549 C.3       17 UNK         0.1400 
     96 CB         -9.3756  -23.2446  -49.1320 C.3       17 UNK        -0.1800 
     97 C          -8.1527  -21.8392  -50.9203 C.2       17 UNK         0.5000 
     98 O          -9.2561  -21.4271  -51.2823 O.2       17 UNK        -0.5000 
     99 N          -7.0014  -21.5707  -51.5540 N.am      18 UNK        -0.5000 
    100 CA        -6.8098  -20.7952  -52.7833 C.3       18 UNK         0.1400 
    101 CB        -7.1841  -19.3130  -52.5740 C.3       18 UNK        -0.1800 
    102 C         -7.4961  -21.4397  -54.0064 C.2       18 UNK         0.5000 
    103 O         -8.2622  -20.7795  -54.7119 O.2       18 UNK        -0.5000 
    104 N         -7.2114  -22.7298  -54.2190 N.am      19 UNK        -0.5000 
    105 CA        -7.7109  -23.5326  -55.3358 C.3       19 UNK         0.1400 
    106 CB        -8.7121  -24.5724  -54.8098 C.3       19 UNK        -0.1800 
    107 C         -6.5681  -24.2241  -56.0985 C.2       19 UNK         0.5000 
    108 O         -6.6385  -24.3204  -57.3244 O.2       19 UNK        -0.5000 
    109 N         -5.5351  -24.6867  -55.3801 N.am      20 UNK        -0.5000 
    110 CA        -4.3450  -25.3249  -55.9507 C.3       20 UNK         0.1400 
    111 CB        -3.7928  -26.3516  -54.9490 C.3       20 UNK        -0.1800 
    112 C         -3.2580  -24.3005  -56.3268 C.2       20 UNK         0.5000 
    113 O         -2.3829  -24.6140  -57.1348 O.2       20 UNK        -0.5000 
    114 N         -3.3365  -23.0981  -55.7489 N.am      21 UNK        -0.5000 
    115 CA        -2.4961  -21.9439  -56.0380 C.3       21 UNK         0.1400 
    116 CB        -1.2354  -21.9764  -55.1562 C.3       21 UNK        -0.1800 
    117 C         -3.3281  -20.6829  -55.7731 C.2       21 UNK         0.5000 
    118 O         -4.3450  -20.7620  -55.0802 O.2       21 UNK        -0.5000 
    119 N         -2.8811  -19.5474  -56.3205 N.am      22 UNK        -0.5000 
    120 CA        -3.4998  -18.2157  -56.1626 C.3       22 UNK         0.1400 
    121 C         -4.8987  -18.0537  -56.8377 C.2       22 UNK         0.5000 
    122 N         -5.3012  -18.9330  -57.7470 N.am      22 UNK        -0.7600 
    123 O         -5.6193  -17.0973  -56.5645 O.2       22 UNK        -0.5000 
    124 C124       -3.4911  -17.7091  -54.6912 C.3       23 UNK        -0.0398 
    125 S125       -1.8114  -17.6266  -53.9811 S.3       23 UNK        -0.2404 
    126 C126       -2.1735  -17.9450  -52.2286 C.3       23 UNK        -0.0205 
    127 H127        6.6821  -13.5551  -46.7739 H         1 UNK         0.0600 
    128 H128        5.9196  -15.1000  -47.1663 H         1 UNK         0.0600 
    129 H129        6.2269  -13.9177  -48.4427 H         1 UNK         0.0600 
    130 H130        4.3547  -12.8391  -49.0690 H         1 UNK         0.3000 
    131 H131        1.9546  -13.0148  -47.5654 H         1 UNK         0.0600 
    132 H132        0.9363  -11.6386  -49.3893 H         1 UNK         0.0800 
    133 H133        2.5247  -11.3119  -50.0357 H         1 UNK         0.0800 
    134 H134       -0.5044  -13.7556  -50.0648 H         1 UNK         0.0800 
    135 H135        0.3927  -14.2953  -48.6673 H         1 UNK         0.0800 
    136 H136       -1.5292  -15.4514  -51.3828 H         1 UNK         0.1150 
    137 H137       -0.2563  -19.5329  -51.0918 H         1 UNK         0.1150 
    138 H138        1.9091  -16.4583  -49.0295 H         1 UNK         0.1150 
    139 H139        1.6639  -20.1419  -49.8349 H         1 UNK         0.0800 
    140 H140        2.9018  -18.9149  -49.7302 H         1 UNK         0.0800 
    141 H141       -0.2709  -19.1057  -46.4205 H         1 UNK         0.0800 
    142 H142       -0.5313  -19.2247  -48.1287 H         1 UNK         0.0800 
    143 H143        0.4709  -21.6801  -47.8726 H         1 UNK         0.0600 
    144 H144        0.4673  -20.9302  -45.1518 H         1 UNK         0.3000 
    145 H145       -0.2374  -23.9926  -43.6110 H         1 UNK         0.0600 
    146 H146        2.0515  -23.8890  -42.6643 H         1 UNK         0.0600 
    147 H147        2.1185  -24.4685  -44.3210 H         1 UNK         0.0600 
    148 H148        2.5699  -22.8065  -43.9567 H         1 UNK         0.0600 
    149 H149        0.8518  -21.7798  -42.3788 H         1 UNK         0.3000 
    150 H150       -1.6378  -19.4120  -42.4228 H         1 UNK         0.0600 
    151 H151       -2.9699  -20.9003  -40.9759 H         1 UNK         0.0600 
    152 H152       -2.0676  -19.7544  -39.9962 H         1 UNK         0.0600 
    153 H153       -1.5294  -21.4298  -40.1212 H         1 UNK         0.0600 
    154 H154        0.3495  -18.7266  -41.8864 H         1 UNK         0.3000 
    155 H155        2.8574  -19.6711  -39.5751 H         1 UNK         0.0600 
    156 H156        3.6871  -20.4587  -41.8005 H         1 UNK         0.0600 
    157 H157        4.2971  -18.8543  -41.4247 H         1 UNK         0.0600 
    158 H158        2.9774  -19.0466  -42.5765 H         1 UNK         0.0600 
    159 H159        2.3196  -17.2523  -41.0162 H         1 UNK         0.3000 
    160 H160        0.1796  -15.7801  -38.5296 H         1 UNK         0.0600 
    161 H161        2.9942  -15.1538  -39.5694 H         1 UNK         0.0600 
    162 H162        1.8790  -13.9931  -38.8531 H         1 UNK         0.0600 
    163 H163        2.5329  -15.3021  -37.8788 H         1 UNK         0.0600 
    164 H164        1.0223  -14.8484  -41.0855 H         1 UNK         0.3000 
    165 H165       -1.6966  -16.1794  -42.9864 H         1 UNK         0.0600 
    166 H166       -1.9191  -13.7653  -43.5357 H         1 UNK         0.0600 
    167 H167       -2.5767  -14.1039  -41.9424 H         1 UNK         0.0600 
    168 H168       -1.0064  -13.3282  -42.0919 H         1 UNK         0.0600 
    169 H169        0.6271  -14.5271  -43.5294 H         1 UNK         0.3000 
    170 H170        2.6783  -17.1955  -44.6988 H         1 UNK         0.0600 
    171 H171        1.2828  -14.8920  -46.1655 H         1 UNK         0.0600 
    172 H172        2.6318  -15.8634  -46.7551 H         1 UNK         0.0600 
    173 H173        1.0433  -16.5870  -46.5543 H         1 UNK         0.0600 
    174 H174        3.1869  -14.4323  -44.7072 H         1 UNK         0.3000 
    175 H175        4.3178  -14.0110  -41.3447 H         1 UNK         0.0600 
    176 H176        5.7525  -13.9284  -44.0482 H         1 UNK         0.0600 
    177 H177        6.2735  -13.1316  -42.5664 H         1 UNK         0.0600 
    178 H178        6.2420  -14.8858  -42.6583 H         1 UNK         0.0600 
    179 H179        4.1352  -12.0620  -43.3396 H         1 UNK         0.3000 
    180 H180        0.7592  -11.1429  -43.0054 H         1 UNK         0.0600 
    181 H181        1.4640  -10.3604  -40.7707 H         1 UNK         0.0600 
    182 H182        3.0012   -9.8016  -41.4107 H         1 UNK         0.0600 
    183 H183        1.4974   -9.0350  -41.9227 H         1 UNK         0.0600 
    184 H184        1.6785  -10.3920  -44.8364 H         1 UNK         0.3000 
    185 H185        2.9858   -8.6505  -45.9313 H         1 UNK         0.0600 
    186 H186        5.2665   -7.9225  -45.2270 H         1 UNK         0.0600 
    187 H187        5.9550   -9.4134  -45.8607 H         1 UNK         0.0600 
    188 H188        5.2059   -8.2483  -46.9516 H         1 UNK         0.0600 
    189 H189        4.4829  -10.8643  -47.1277 H         1 UNK         0.3000 
    190 H190       -2.2785  -21.2825  -45.6195 H         1 UNK         0.3000 
    191 H191       -4.3097  -21.2735  -47.6668 H         1 UNK         0.0600 
    192 H192       -5.8542  -21.6205  -45.7591 H         1 UNK         0.0600 
    193 H193       -4.6959  -20.3539  -45.3816 H         1 UNK         0.0600 
    194 H194       -4.5035  -21.9625  -44.6860 H         1 UNK         0.0600 
    195 H195       -2.6821  -23.8018  -45.7780 H         1 UNK         0.3000 
    196 H196       -4.3311  -25.9929  -46.7290 H         1 UNK         0.0600 
    197 H197       -2.6044  -27.3992  -45.6208 H         1 UNK         0.0600 
    198 H198       -3.1547  -26.1215  -44.5481 H         1 UNK         0.0600 
    199 H199       -1.5912  -25.9881  -45.3503 H         1 UNK         0.0600 
    200 H200       -1.0738  -24.6946  -47.5265 H         1 UNK         0.3000 
    201 H201       -0.3959  -26.5464  -49.5332 H         1 UNK         0.0600 
    202 H202        1.2296  -25.0361  -48.4053 H         1 UNK         0.0600 
    203 H203        0.5058  -23.6374  -49.1972 H         1 UNK         0.0600 
    204 H204        1.3305  -24.8628  -50.1515 H         1 UNK         0.0600 
    205 H205       -2.0758  -23.3798  -49.8266 H         1 UNK         0.3000 
    206 H206       -2.4172  -23.6363  -52.7147 H         1 UNK         0.0600 
    207 H207       -2.0926  -21.4317  -51.5314 H         1 UNK         0.0600 
    208 H208       -3.5532  -21.4814  -52.4988 H         1 UNK         0.0600 
    209 H209       -3.6576  -21.6422  -50.7478 H         1 UNK         0.0600 
    210 H210       -3.9537  -25.1713  -50.1613 H         1 UNK         0.3000 
    211 H211       -5.8419  -26.2666  -49.8106 H         1 UNK         0.0600 
    212 H212       -6.0973  -26.3393  -52.8662 H         1 UNK         0.0600 
    213 H213       -6.8415  -27.4523  -51.7288 H         1 UNK         0.0600 
    214 H214       -5.0939  -27.4265  -51.9074 H         1 UNK         0.0600 
    215 H215       -6.2315  -23.7563  -49.2275 H         1 UNK         0.3000 
    216 H216       -7.6084  -22.0682  -48.8816 H         1 UNK         0.0600 
    217 H217       -9.2416  -23.8530  -48.2376 H         1 UNK         0.0600 
    218 H218       -9.8923  -23.8506  -49.8765 H         1 UNK         0.0600 
    219 H219      -10.0388  -22.4206  -48.8667 H         1 UNK         0.0600 
    220 H220       -6.1691  -22.0107  -51.1910 H         1 UNK         0.3000 
    221 H221       -5.7406  -20.8247  -52.9820 H         1 UNK         0.0600 
    222 H222       -8.2517  -19.1826  -52.3958 H         1 UNK         0.0600 
    223 H223       -6.6465  -18.8868  -51.7272 H         1 UNK         0.0600 
    224 H224       -6.9246  -18.7217  -53.4532 H         1 UNK         0.0600 
    225 H225       -6.5506  -23.1790  -53.5900 H         1 UNK         0.3000 
    226 H226       -8.2308  -22.8953  -56.0539 H         1 UNK         0.0600 
    227 H227       -9.5339  -24.0939  -54.2766 H         1 UNK         0.0600 
    228 H228       -9.1439  -25.1483  -55.6292 H         1 UNK         0.0600 
    229 H229       -8.2373  -25.2778  -54.1273 H         1 UNK         0.0600 
    230 H230       -5.5153  -24.5307  -54.3764 H         1 UNK         0.3000 
    231 H231       -4.6218  -25.8616  -56.8606 H         1 UNK         0.0600 
    232 H232       -3.4659  -25.8816  -54.0217 H         1 UNK         0.0600 
    233 H233       -4.5421  -27.1031  -54.7006 H         1 UNK         0.0600 
    234 H234       -2.9334  -26.8782  -55.3658 H         1 UNK         0.0600 
    235 H235       -4.1210  -22.8905  -55.1427 H         1 UNK         0.3000 
    236 H236       -2.2109  -21.9550  -57.0920 H         1 UNK         0.0600 
    237 H237       -0.5657  -21.1517  -55.4024 H         1 UNK         0.0600 
    238 H238       -1.4808  -21.8892  -54.0982 H         1 UNK         0.0600 
    239 H239       -0.6760  -22.9015  -55.2961 H         1 UNK         0.0600 
    240 H240       -2.0396  -19.5707  -56.8785 H         1 UNK         0.3000 
    241 H241       -2.8591  -17.5391  -56.7291 H         1 UNK         0.0600 
    242 H242       -6.2011  -18.8153  -58.1854 H         1 UNK         0.3800 
    243 H243       -4.7208  -19.7176  -57.9950 H         1 UNK         0.3800 
    244 H244       -4.1254  -18.3405  -54.0674 H         1 UNK         0.0800 
    245 H245       -3.9115  -16.7042  -54.6276 H         1 UNK         0.0800 
    246 H246       -2.4102  -19.0012  -52.0949 H         1 UNK         0.0800 
    247 H247       -3.0640  -17.3887  -51.9313 H         1 UNK         0.0800 
@<TRIPOS>BOND
     1    1    2 1    
     2    1  127 1    
     3    1  128 1    
     4    1  129 1    
     5    2    3 2    
     6    2    4 am   BACKBONE|DICT|INTERRES
     7    4    5 1    
     8    4  130 1    
     9    5    6 1    
    10    5   65 1    
    11    5  131 1    
    12    6    7 1    
    13    6  132 1    
    14    6  133 1    
    15    7    8 1    
    16    8    9 1    
    17    8  134 1    
    18    8  135 1    
    19    9   10 ar   
    20    9   14 ar   
    21   10   11 ar   
    22   10  136 1    
    23   11   12 ar   
    24   11  126 1    
    25   12   13 ar   
    26   12  137 1    
    27   13   14 ar   
    28   13   15 1    
    29   14  138 1    
    30   15   16 1    
    31   15  139 1    
    32   15  140 1    
    33   16   17 1    
    34   17   18 1    
    35   17  141 1    
    36   17  142 1    
    37   18   19 1    
    38   18   67 1    
    39   18  143 1    
    40   19   20 am   BACKBONE|DICT|INTERRES
    41   19  144 1    
    42   20   21 2    
    43   20   22 1    
    44   22   23 1    
    45   22   24 1    
    46   22  145 1    
    47   23  146 1    
    48   23  147 1    
    49   23  148 1    
    50   24   25 am   BACKBONE|DICT|INTERRES
    51   24  149 1    
    52   25   26 2    
    53   25   27 1    
    54   27   28 1    
    55   27   29 1    
    56   27  150 1    
    57   28  151 1    
    58   28  152 1    
    59   28  153 1    
    60   29   30 am   BACKBONE|DICT|INTERRES
    61   29  154 1    
    62   30   31 2    
    63   30   32 1    
    64   32   33 1    
    65   32   34 1    
    66   32  155 1    
    67   33  156 1    
    68   33  157 1    
    69   33  158 1    
    70   34   35 am   BACKBONE|DICT|INTERRES
    71   34  159 1    
    72   35   36 2    
    73   35   37 1    
    74   37   38 1    
    75   37   39 1    
    76   37  160 1    
    77   38  161 1    
    78   38  162 1    
    79   38  163 1    
    80   39   40 am   BACKBONE|DICT|INTERRES
    81   39  164 1    
    82   40   41 2    
    83   40   42 1    
    84   42   43 1    
    85   42   44 1    
    86   42  165 1    
    87   43  166 1    
    88   43  167 1    
    89   43  168 1    
    90   44   45 am   BACKBONE|DICT|INTERRES
    91   44  169 1    
    92   45   46 2    
    93   45   47 1    
    94   47   48 1    
    95   47   49 1    
    96   47  170 1    
    97   48  171 1    
    98   48  172 1    
    99   48  173 1    
   100   49   50 am   BACKBONE|DICT|INTERRES
   101   49  174 1    
   102   50   51 2    
   103   50   52 1    
   104   52   53 1    
   105   52   54 1    
   106   52  175 1    
   107   53  176 1    
   108   53  177 1    
   109   53  178 1    
   110   54   55 am   BACKBONE|DICT|INTERRES
   111   54  179 1    
   112   55   56 2    
   113   55   57 1    
   114   57   58 1    
   115   57   59 1    
   116   57  180 1    
   117   58  181 1    
   118   58  182 1    
   119   58  183 1    
   120   59   60 am   BACKBONE|DICT|INTERRES
   121   59  184 1    
   122   60   61 2    
   123   60   62 1    
   124   62   63 1    
   125   62   64 1    
   126   62  185 1    
   127   63  186 1    
   128   63  187 1    
   129   63  188 1    
   130   64   65 am   BACKBONE|DICT|INTERRES
   131   64  189 1    
   132   65   66 2    
   133   67   68 2    
   134   67   69 am   BACKBONE|DICT|INTERRES
   135   69   70 1    
   136   69  190 1    
   137   70   71 1    
   138   70   72 1    
   139   70  191 1    
   140   71  192 1    
   141   71  193 1    
   142   71  194 1    
   143   72   73 2    
   144   72   74 am   BACKBONE|DICT|INTERRES
   145   74   75 1    
   146   74  195 1    
   147   75   76 1    
   148   75   77 1    
   149   75  196 1    
   150   76  197 1    
   151   76  198 1    
   152   76  199 1    
   153   77   78 2    
   154   77   79 am   BACKBONE|DICT|INTERRES
   155   79   80 1    
   156   79  200 1    
   157   80   81 1    
   158   80   82 1    
   159   80  201 1    
   160   81  202 1    
   161   81  203 1    
   162   81  204 1    
   163   82   83 2    
   164   82   84 am   BACKBONE|DICT|INTERRES
   165   84   85 1    
   166   84  205 1    
   167   85   86 1    
   168   85   87 1    
   169   85  206 1    
   170   86  207 1    
   171   86  208 1    
   172   86  209 1    
   173   87   88 2    
   174   87   89 am   BACKBONE|DICT|INTERRES
   175   89   90 1    
   176   89  210 1    
   177   90   91 1    
   178   90   92 1    
   179   90  211 1    
   180   91  212 1    
   181   91  213 1    
   182   91  214 1    
   183   92   93 2    
   184   92   94 am   BACKBONE|DICT|INTERRES
   185   94   95 1    
   186   94  215 1    
   187   95   96 1    
   188   95   97 1    
   189   95  216 1    
   190   96  217 1    
   191   96  218 1    
   192   96  219 1    
   193   97   98 2    
   194   97   99 am   BACKBONE|DICT|INTERRES
   195   99  100 1    
   196   99  220 1    
   197  100  101 1    
   198  100  102 1    
   199  100  221 1    
   200  101  222 1    
   201  101  223 1    
   202  101  224 1    
   203  102  103 2    
   204  102  104 am   BACKBONE|DICT|INTERRES
   205  104  105 1    
   206  104  225 1    
   207  105  106 1    
   208  105  107 1    
   209  105  226 1    
   210  106  227 1    
   211  106  228 1    
   212  106  229 1    
   213  107  108 2    
   214  107  109 am   BACKBONE|DICT|INTERRES
   215  109  110 1    
   216  109  230 1    
   217  110  111 1    
   218  110  112 1    
   219  110  231 1    
   220  111  232 1    
   221  111  233 1    
   222  111  234 1    
   223  112  113 2    
   224  112  114 am   BACKBONE|DICT|INTERRES
   225  114  115 1    
   226  114  235 1    
   227  115  116 1    
   228  115  117 1    
   229  115  236 1    
   230  116  237 1    
   231  116  238 1    
   232  116  239 1    
   233  117  118 2    
   234  117  119 am   BACKBONE|DICT|INTERRES
   235  119  120 1    
   236  119  240 1    
   237  120  121 1    
   238  120  124 1    
   239  120  241 1    
   240  121  122 am   BACKBONE|DICT|INTERRES
   241  121  123 2    
   242  122  242 1    
   243  122  243 1    
   244  124  125 1    
   245  124  244 1    
   246  124  245 1    
   247  125  126 1    
   248  126  246 1    
   249  126  247 1    
@<TRIPOS>SUBSTRUCTURE
     1 UNK         1 GROUP             0       ****    0 ROOT    
