@<TRIPOS>MOLECULE
3R540
247   249    1
SMALL
USER_CHARGES


@<TRIPOS>ATOM
      1 CA          3.3545   -9.0509  -49.4742 C.3       0 UNK        -0.1800 
      2 C           1.8808   -9.4010  -49.2702 C.2       0 UNK         0.5000 
      3 O           1.0880   -8.5086  -48.9760 O.2       0 UNK        -0.5000 
      4 N           1.4562  -10.6633  -49.4270 N.am      1 UNK        -0.5000 
      5 CA          2.2711  -11.8553  -49.6829 C.3       1 UNK         0.1400 
      6 C6          1.3730  -13.0607  -50.0565 C.3       23 UNK        -0.0398 
      7 S7          2.3049  -14.4859  -50.7141 S.3       23 UNK        -0.2404 
      8 C8          1.0003  -15.3883  -51.6078 C.3       23 UNK        -0.0205 
      9 C9          0.1878  -16.2940  -50.6929 C.ar      23 UNK        -0.0193 
     10 C10        -0.9094  -15.7926  -49.9862 C.ar      23 UNK        -0.1150 
     11 C11        -1.7013  -16.6427  -49.2076 C.ar      23 UNK        -0.0193 
     12 C12        -1.3747  -17.9976  -49.1203 C.ar      23 UNK        -0.1150 
     13 C13        -0.2772  -18.5101  -49.8149 C.ar      23 UNK        -0.0193 
     14 C14         0.5030  -17.6526  -50.5953 C.ar      23 UNK        -0.1150 
     15 C15         0.0342  -19.9973  -49.7691 C.3       23 UNK        -0.0205 
     16 S16         1.3164  -20.3946  -48.5423 S.3       23 UNK        -0.2404 
     17 C17         0.4018  -20.2835  -46.9667 C.3       23 UNK        -0.0398 
     18 CA         -0.0352  -21.6772  -46.4558 C.3       11 UNK         0.1400 
     19 N          -0.1247  -21.7283  -44.9960 N.am      11 UNK        -0.5000 
     20 C          -0.2551  -22.8602  -44.2901 C.2       10 UNK         0.5000 
     21 O          -0.2707  -23.9824  -44.7940 O.2       10 UNK        -0.5000 
     22 CA         -0.4488  -22.7107  -42.7732 C.3       10 UNK         0.1400 
     23 CB          0.9021  -22.5289  -42.0674 C.3       10 UNK        -0.1800 
     24 N          -1.3385  -21.5952  -42.4495 N.am      10 UNK        -0.5000 
     25 C          -2.6561  -21.5940  -42.6975 C.2       9 UNK         0.5000 
     26 O          -3.2588  -22.5449  -43.1942 O.2       9 UNK        -0.5000 
     27 CA         -3.4205  -20.2978  -42.3758 C.3       9 UNK         0.1400 
     28 CB         -3.7852  -20.2387  -40.8851 C.3       9 UNK        -0.1800 
     29 N          -2.6754  -19.0927  -42.7423 N.am      9 UNK        -0.5000 
     30 C          -2.3510  -18.7540  -43.9981 C.2       8 UNK         0.5000 
     31 O          -2.6416  -19.4231  -44.9878 O.2       8 UNK        -0.5000 
     32 CA         -1.5235  -17.4702  -44.1750 C.3       8 UNK         0.1400 
     33 CB         -2.4538  -16.2461  -44.1592 C.3       8 UNK        -0.1800 
     34 N          -0.4677  -17.3020  -43.1685 N.am      8 UNK        -0.5000 
     35 C           0.5026  -18.1923  -42.9181 C.2       7 UNK         0.5000 
     36 O           0.6280  -19.2536  -43.5344 O.2       7 UNK        -0.5000 
     37 CA          1.4750  -17.8461  -41.7804 C.3       7 UNK         0.1400 
     38 CB          2.0246  -19.1203  -41.1017 C.3       7 UNK        -0.1800 
     39 N           2.5616  -17.0147  -42.2946 N.am      7 UNK        -0.5000 
     40 C           3.4687  -16.3873  -41.5317 C.2       6 UNK         0.5000 
     41 O           3.4657  -16.4165  -40.3000 O.2       6 UNK        -0.5000 
     42 CA          4.5583  -15.5754  -42.2556 C.3       6 UNK         0.1400 
     43 CB          5.4350  -16.4681  -43.1494 C.3       6 UNK        -0.1800 
     44 N           3.9910  -14.4833  -43.0411 N.am      6 UNK        -0.5000 
     45 C           3.4045  -13.3940  -42.5235 C.2       5 UNK         0.5000 
     46 O           3.3674  -13.1398  -41.3190 O.2       5 UNK        -0.5000 
     47 CA          2.7197  -12.4357  -43.5171 C.3       5 UNK         0.1400 
     48 CB          3.7190  -11.4054  -44.0646 C.3       5 UNK        -0.1800 
     49 N           2.0873  -13.1384  -44.6329 N.am      5 UNK        -0.5000 
     50 C           1.0684  -14.0012  -44.5131 C.2       4 UNK         0.5000 
     51 O           0.4950  -14.2527  -43.4527 O.2       4 UNK        -0.5000 
     52 CA          0.6478  -14.7365  -45.7943 C.3       4 UNK         0.1400 
     53 CB         -0.3025  -13.8720  -46.6338 C.3       4 UNK        -0.1800 
     54 N           1.8000  -15.1584  -46.5902 N.am      4 UNK        -0.5000 
     55 C           2.6389  -16.1406  -46.2273 C.2       3 UNK         0.5000 
     56 O           2.5005  -16.8155  -45.2073 O.2       3 UNK        -0.5000 
     57 CA          3.8662  -16.3751  -47.1264 C.3       3 UNK         0.1400 
     58 CB          3.5257  -17.3360  -48.2714 C.3       3 UNK        -0.1800 
     59 N           4.3990  -15.1302  -47.6784 N.am      3 UNK        -0.5000 
     60 C           5.0130  -14.1877  -46.9494 C.2       2 UNK         0.5000 
     61 O           5.2286  -14.2918  -45.7428 O.2       2 UNK        -0.5000 
     62 CA          5.4017  -12.8903  -47.6824 C.3       2 UNK         0.1400 
     63 CB          6.7932  -13.0232  -48.3180 C.3       2 UNK        -0.1800 
     64 N           4.4322  -12.5033  -48.7109 N.am      2 UNK        -0.5000 
     65 C           3.1568  -12.1787  -48.4619 C.2       1 UNK         0.5000 
     66 O           2.6660  -12.1615  -47.3313 O.2       1 UNK        -0.5000 
     67 C          -1.3379  -22.1668  -47.1260 C.2       11 UNK         0.5000 
     68 O          -1.2746  -22.9501  -48.0725 O.2       11 UNK        -0.5000 
     69 N          -2.4964  -21.7497  -46.5954 N.am      12 UNK        -0.5000 
     70 CA         -3.8171  -22.2107  -47.0260 C.3       12 UNK         0.1400 
     71 CB         -4.9072  -21.3746  -46.3410 C.3       12 UNK        -0.1800 
     72 C          -4.0359  -23.7142  -46.7725 C.2       12 UNK         0.5000 
     73 O          -4.5830  -24.3983  -47.6370 O.2       12 UNK        -0.5000 
     74 N          -3.5701  -24.2153  -45.6193 N.am      13 UNK        -0.5000 
     75 CA         -3.5886  -25.6385  -45.2743 C.3       13 UNK         0.1400 
     76 CB         -3.2056  -25.8224  -43.7983 C.3       13 UNK        -0.1800 
     77 C          -2.6828  -26.4879  -46.1865 C.2       13 UNK         0.5000 
     78 O          -3.0611  -27.6055  -46.5365 O.2       13 UNK        -0.5000 
     79 N          -1.5224  -25.9393  -46.5739 N.am      14 UNK        -0.5000 
     80 CA         -0.5989  -26.5439  -47.5346 C.3       14 UNK         0.1400 
     81 CB          0.7546  -25.8187  -47.4785 C.3       14 UNK        -0.1800 
     82 C          -1.1617  -26.5524  -48.9688 C.2       14 UNK         0.5000 
     83 O          -0.9867  -27.5438  -49.6784 O.2       14 UNK        -0.5000 
     84 N          -1.8379  -25.4625  -49.3623 N.am      15 UNK        -0.5000 
     85 CA         -2.5448  -25.3270  -50.6379 C.3       15 UNK         0.1400 
     86 CB         -3.0045  -23.8711  -50.8190 C.3       15 UNK        -0.1800 
     87 C          -3.7308  -26.3031  -50.7572 C.2       15 UNK         0.5000 
     88 O          -3.8961  -26.9282  -51.8058 O.2       15 UNK        -0.5000 
     89 N          -4.4985  -26.4428  -49.6662 N.am      16 UNK        -0.5000 
     90 CA         -5.6087  -27.3749  -49.4622 C.3       16 UNK         0.1400 
     91 CB         -5.0839  -28.8248  -49.3644 C.3       16 UNK        -0.1800 
     92 C          -6.7261  -27.1964  -50.5092 C.2       16 UNK         0.5000 
     93 O          -7.5804  -26.3258  -50.3401 O.2       16 UNK        -0.5000 
     94 N          -6.7037  -28.0237  -51.5624 N.am      17 UNK        -0.5000 
     95 CA         -7.6320  -27.9726  -52.6907 C.3       17 UNK         0.1400 
     96 CB         -7.5679  -29.3091  -53.4461 C.3       17 UNK        -0.1800 
     97 C          -7.3594  -26.7973  -53.6500 C.2       17 UNK         0.5000 
     98 O          -8.2795  -26.3746  -54.3523 O.2       17 UNK        -0.5000 
     99 N          -6.1167  -26.2935  -53.6782 N.am      18 UNK        -0.5000 
    100 CA        -5.7277  -25.1181  -54.4566 C.3       18 UNK         0.1400 
    101 CB        -4.2018  -25.1081  -54.6396 C.3       18 UNK        -0.1800 
    102 C         -6.2152  -23.8172  -53.7912 C.2       18 UNK         0.5000 
    103 O         -6.4227  -23.7769  -52.5769 O.2       18 UNK        -0.5000 
    104 N         -6.3679  -22.7661  -54.6055 N.am      19 UNK        -0.5000 
    105 CA        -6.9174  -21.4652  -54.2095 C.3       19 UNK         0.1400 
    106 CB        -7.3080  -20.6968  -55.4830 C.3       19 UNK        -0.1800 
    107 C         -5.9860  -20.6042  -53.3306 C.2       19 UNK         0.5000 
    108 O         -6.4239  -19.5595  -52.8480 O.2       19 UNK        -0.5000 
    109 N         -4.7165  -21.0118  -53.1812 N.am      20 UNK        -0.5000 
    110 CA        -3.6244  -20.3798  -52.4207 C.3       20 UNK         0.1400 
    111 CB        -3.9972  -20.2141  -50.9344 C.3       20 UNK        -0.1800 
    112 C         -3.0958  -19.0571  -53.0187 C.2       20 UNK         0.5000 
    113 O         -1.9142  -18.7618  -52.8493 O.2       20 UNK        -0.5000 
    114 N         -3.9527  -18.3230  -53.7421 N.am      21 UNK        -0.5000 
    115 CA        -3.6903  -17.0706  -54.4563 C.3       21 UNK         0.1400 
    116 CB        -2.6407  -17.2710  -55.5704 C.3       21 UNK        -0.1800 
    117 C         -3.3632  -15.9018  -53.5057 C.2       21 UNK         0.5000 
    118 O         -2.4013  -15.1645  -53.7309 O.2       21 UNK        -0.5000 
    119 N         -4.1936  -15.7437  -52.4661 N.am      22 UNK        -0.5000 
    120 CA        -4.1014  -14.6465  -51.4867 C.3       22 UNK         0.1400 
    121 C         -4.4988  -13.2417  -52.0317 C.2       22 UNK         0.5000 
    122 N         -5.1378  -13.1280  -53.1899 N.am      22 UNK        -0.7600 
    123 O         -4.2173  -12.2335  -51.3902 O.2       22 UNK        -0.5000 
    124 C124       -4.8755  -14.9488  -50.1772 C.3       23 UNK        -0.0398 
    125 S125       -4.4498  -16.5392  -49.3887 S.3       23 UNK        -0.2404 
    126 C126       -2.9287  -16.1234  -48.4765 C.3       23 UNK        -0.0205 
    127 H127        3.9422   -9.3425  -48.6039 H         1 UNK         0.0600 
    128 H128        3.4720   -7.9754  -49.6083 H         1 UNK         0.0600 
    129 H129        3.7678   -9.5343  -50.3586 H         1 UNK         0.0600 
    130 H130        0.4771  -10.8472  -49.2643 H         1 UNK         0.3000 
    131 H131        2.9114  -11.6418  -50.5406 H         1 UNK         0.0600 
    132 H132        0.7779  -13.3889  -49.2059 H         1 UNK         0.0800 
    133 H133        0.6585  -12.7491  -50.8198 H         1 UNK         0.0800 
    134 H134        0.3408  -14.6918  -52.1279 H         1 UNK         0.0800 
    135 H135        1.4710  -15.9862  -52.3896 H         1 UNK         0.0800 
    136 H136       -1.1556  -14.7440  -50.0602 H         1 UNK         0.1150 
    137 H137       -1.9973  -18.6570  -48.5321 H         1 UNK         0.1150 
    138 H138        1.3433  -18.0501  -51.1467 H         1 UNK         0.1150 
    139 H139       -0.8685  -20.5745  -49.5670 H         1 UNK         0.0800 
    140 H140        0.3793  -20.3217  -50.7519 H         1 UNK         0.0800 
    141 H141        1.0882  -19.8257  -46.2524 H         1 UNK         0.0800 
    142 H142       -0.4392  -19.5942  -47.0383 H         1 UNK         0.0800 
    143 H143        0.7458  -22.3915  -46.7265 H         1 UNK         0.0600 
    144 H144       -0.0751  -20.8441  -44.4987 H         1 UNK         0.3000 
    145 H145       -0.9046  -23.6295  -42.3983 H         1 UNK         0.0600 
    146 H146        0.7758  -22.4035  -40.9920 H         1 UNK         0.0600 
    147 H147        1.5382  -23.4014  -42.2209 H         1 UNK         0.0600 
    148 H148        1.4423  -21.6634  -42.4499 H         1 UNK         0.0600 
    149 H149       -0.9082  -20.7550  -42.0937 H         1 UNK         0.3000 
    150 H150       -4.3473  -20.3082  -42.9534 H         1 UNK         0.0600 
    151 H151       -4.3564  -21.1194  -40.5884 H         1 UNK         0.0600 
    152 H152       -4.3992  -19.3655  -40.6638 H         1 UNK         0.0600 
    153 H153       -2.8976  -20.1946  -40.2528 H         1 UNK         0.0600 
    154 H154       -2.3911  -18.4835  -41.9896 H         1 UNK         0.3000 
    155 H155       -1.0436  -17.5354  -45.1532 H         1 UNK         0.0600 
    156 H156       -1.9113  -15.3203  -44.3410 H         1 UNK         0.0600 
    157 H157       -2.9654  -16.1432  -43.2015 H         1 UNK         0.0600 
    158 H158       -3.2199  -16.3281  -44.9314 H         1 UNK         0.0600 
    159 H159       -0.4671  -16.4275  -42.6605 H         1 UNK         0.3000 
    160 H160        0.9224  -17.2725  -41.0335 H         1 UNK         0.0600 
    161 H161        2.6837  -19.6767  -41.7689 H         1 UNK         0.0600 
    162 H162        1.2128  -19.7844  -40.8040 H         1 UNK         0.0600 
    163 H163        2.5865  -18.8894  -40.1974 H         1 UNK         0.0600 
    164 H164        2.6042  -16.9271  -43.3089 H         1 UNK         0.3000 
    165 H165        5.2069  -15.1382  -41.4934 H         1 UNK         0.0600 
    166 H166        4.8697  -16.9105  -43.9687 H         1 UNK         0.0600 
    167 H167        6.2579  -15.8999  -43.5835 H         1 UNK         0.0600 
    168 H168        5.8720  -17.2852  -42.5742 H         1 UNK         0.0600 
    169 H169        4.0446  -14.5719  -44.0491 H         1 UNK         0.3000 
    170 H170        1.9375  -11.8988  -42.9766 H         1 UNK         0.0600 
    171 H171        4.1632  -10.8253  -43.2549 H         1 UNK         0.0600 
    172 H172        4.5326  -11.8839  -44.6095 H         1 UNK         0.0600 
    173 H173        3.2315  -10.7026  -44.7407 H         1 UNK         0.0600 
    174 H174        2.4517  -12.9431  -45.5608 H         1 UNK         0.3000 
    175 H175        0.1113  -15.6363  -45.5035 H         1 UNK         0.0600 
    176 H176       -1.2045  -13.6286  -46.0714 H         1 UNK         0.0600 
    177 H177        0.1567  -12.9292  -46.9299 H         1 UNK         0.0600 
    178 H178       -0.6157  -14.3964  -47.5337 H         1 UNK         0.0600 
    179 H179        2.0100  -14.6212  -47.4172 H         1 UNK         0.3000 
    180 H180        4.6453  -16.8375  -46.5167 H         1 UNK         0.0600 
    181 H181        2.7132  -16.9561  -48.8906 H         1 UNK         0.0600 
    182 H182        3.2146  -18.3022  -47.8758 H         1 UNK         0.0600 
    183 H183        4.3876  -17.5117  -48.9149 H         1 UNK         0.0600 
    184 H184        4.2528  -14.9660  -48.6641 H         1 UNK         0.3000 
    185 H185        5.4408  -12.0901  -46.9405 H         1 UNK         0.0600 
    186 H186        7.1120  -12.0836  -48.7696 H         1 UNK         0.0600 
    187 H187        7.5397  -13.2921  -47.5692 H         1 UNK         0.0600 
    188 H188        6.8121  -13.7921  -49.0914 H         1 UNK         0.0600 
    189 H189        4.7637  -12.5118  -49.6651 H         1 UNK         0.3000 
    190 H190       -2.4810  -21.0553  -45.8518 H         1 UNK         0.3000 
    191 H191       -3.8914  -22.0419  -48.1019 H         1 UNK         0.0600 
    192 H192       -5.9011  -21.6927  -46.6581 H         1 UNK         0.0600 
    193 H193       -4.8082  -20.3183  -46.5924 H         1 UNK         0.0600 
    194 H194       -4.8621  -21.4658  -45.2554 H         1 UNK         0.0600 
    195 H195       -3.1885  -23.5823  -44.9239 H         1 UNK         0.3000 
    196 H196       -4.6120  -25.9974  -45.4023 H         1 UNK         0.0600 
    197 H197       -3.2408  -26.8749  -43.5145 H         1 UNK         0.0600 
    198 H198       -3.8924  -25.2862  -43.1433 H         1 UNK         0.0600 
    199 H199       -2.1978  -25.4616  -43.5944 H         1 UNK         0.0600 
    200 H200       -1.2479  -25.0469  -46.1759 H         1 UNK         0.3000 
    201 H201       -0.4354  -27.5816  -47.2363 H         1 UNK         0.0600 
    202 H202        1.1823  -25.8603  -46.4766 H         1 UNK         0.0600 
    203 H203        0.6646  -24.7696  -47.7593 H         1 UNK         0.0600 
    204 H204        1.4718  -26.2796  -48.1586 H         1 UNK         0.0600 
    205 H205       -1.8569  -24.6559  -48.7445 H         1 UNK         0.3000 
    206 H206       -1.8395  -25.5616  -51.4377 H         1 UNK         0.0600 
    207 H207       -2.1582  -23.1842  -50.8004 H         1 UNK         0.0600 
    208 H208       -3.5169  -23.7311  -51.7701 H         1 UNK         0.0600 
    209 H209       -3.6969  -23.5677  -50.0348 H         1 UNK         0.0600 
    210 H210       -4.3296  -25.8070  -48.8905 H         1 UNK         0.3000 
    211 H211       -6.0464  -27.1203  -48.4957 H         1 UNK         0.0600 
    212 H212       -4.5391  -29.1338  -50.2568 H         1 UNK         0.0600 
    213 H213       -5.9029  -29.5292  -49.2135 H         1 UNK         0.0600 
    214 H214       -4.4069  -28.9345  -48.5176 H         1 UNK         0.0600 
    215 H215       -5.9405  -28.6812  -51.6334 H         1 UNK         0.3000 
    216 H216       -8.6443  -27.8506  -52.2996 H         1 UNK         0.0600 
    217 H217       -6.5727  -29.4944  -53.8522 H         1 UNK         0.0600 
    218 H218       -7.8263  -30.1439  -52.7942 H         1 UNK         0.0600 
    219 H219       -8.2704  -29.3204  -54.2805 H         1 UNK         0.0600 
    220 H220       -5.4236  -26.6565  -53.0305 H         1 UNK         0.3000 
    221 H221       -6.1865  -25.1914  -55.4451 H         1 UNK         0.0600 
    222 H222       -3.8593  -26.0215  -55.1262 H         1 UNK         0.0600 
    223 H223       -3.8857  -24.2716  -55.2638 H         1 UNK         0.0600 
    224 H224       -3.6776  -25.0231  -53.6894 H         1 UNK         0.0600 
    225 H225       -6.1567  -22.8764  -55.5872 H         1 UNK         0.3000 
    226 H226       -7.8251  -21.6437  -53.6292 H         1 UNK         0.0600 
    227 H227       -6.4398  -20.4900  -56.1102 H         1 UNK         0.0600 
    228 H228       -8.0274  -21.2591  -56.0787 H         1 UNK         0.0600 
    229 H229       -7.7720  -19.7400  -55.2397 H         1 UNK         0.0600 
    230 H230       -4.4617  -21.8602  -53.6648 H         1 UNK         0.3000 
    231 H231       -2.7948  -21.0870  -52.4671 H         1 UNK         0.0600 
    232 H232       -3.1293  -19.9115  -50.3505 H         1 UNK         0.0600 
    233 H233       -4.3648  -21.1482  -50.5107 H         1 UNK         0.0600 
    234 H234       -4.7641  -19.4534  -50.7873 H         1 UNK         0.0600 
    235 H235       -4.9161  -18.6402  -53.7436 H         1 UNK         0.3000 
    236 H236       -4.6281  -16.8040  -54.9457 H         1 UNK         0.0600 
    237 H237       -2.9169  -18.0942  -56.2292 H         1 UNK         0.0600 
    238 H238       -2.5543  -16.3765  -56.1882 H         1 UNK         0.0600 
    239 H239       -1.6506  -17.4821  -55.1657 H         1 UNK         0.0600 
    240 H240       -4.9423  -16.4065  -52.3283 H         1 UNK         0.3000 
    241 H241       -3.0499  -14.5542  -51.2227 H         1 UNK         0.0600 
    242 H242       -5.3802  -13.9444  -53.7272 H         1 UNK         0.3800 
    243 H243       -5.3853  -12.2123  -53.5315 H         1 UNK         0.3800 
    244 H244       -4.7256  -14.1513  -49.4472 H         1 UNK         0.0800 
    245 H245       -5.9478  -14.9652  -50.3793 H         1 UNK         0.0800 
    246 H246       -2.9773  -16.5798  -47.4869 H         1 UNK         0.0800 
    247 H247       -2.8589  -15.0477  -48.3116 H         1 UNK         0.0800 
@<TRIPOS>BOND
     1    1    2 1    
     2    1  127 1    
     3    1  128 1    
     4    1  129 1    
     5    2    3 2    
     6    2    4 am   BACKBONE|DICT|INTERRES
     7    4    5 1    
     8    4  130 1    
     9    5    6 1    
    10    5   65 1    
    11    5  131 1    
    12    6    7 1    
    13    6  132 1    
    14    6  133 1    
    15    7    8 1    
    16    8    9 1    
    17    8  134 1    
    18    8  135 1    
    19    9   10 ar   
    20    9   14 ar   
    21   10   11 ar   
    22   10  136 1    
    23   11   12 ar   
    24   11  126 1    
    25   12   13 ar   
    26   12  137 1    
    27   13   14 ar   
    28   13   15 1    
    29   14  138 1    
    30   15   16 1    
    31   15  139 1    
    32   15  140 1    
    33   16   17 1    
    34   17   18 1    
    35   17  141 1    
    36   17  142 1    
    37   18   19 1    
    38   18   67 1    
    39   18  143 1    
    40   19   20 am   BACKBONE|DICT|INTERRES
    41   19  144 1    
    42   20   21 2    
    43   20   22 1    
    44   22   23 1    
    45   22   24 1    
    46   22  145 1    
    47   23  146 1    
    48   23  147 1    
    49   23  148 1    
    50   24   25 am   BACKBONE|DICT|INTERRES
    51   24  149 1    
    52   25   26 2    
    53   25   27 1    
    54   27   28 1    
    55   27   29 1    
    56   27  150 1    
    57   28  151 1    
    58   28  152 1    
    59   28  153 1    
    60   29   30 am   BACKBONE|DICT|INTERRES
    61   29  154 1    
    62   30   31 2    
    63   30   32 1    
    64   32   33 1    
    65   32   34 1    
    66   32  155 1    
    67   33  156 1    
    68   33  157 1    
    69   33  158 1    
    70   34   35 am   BACKBONE|DICT|INTERRES
    71   34  159 1    
    72   35   36 2    
    73   35   37 1    
    74   37   38 1    
    75   37   39 1    
    76   37  160 1    
    77   38  161 1    
    78   38  162 1    
    79   38  163 1    
    80   39   40 am   BACKBONE|DICT|INTERRES
    81   39  164 1    
    82   40   41 2    
    83   40   42 1    
    84   42   43 1    
    85   42   44 1    
    86   42  165 1    
    87   43  166 1    
    88   43  167 1    
    89   43  168 1    
    90   44   45 am   BACKBONE|DICT|INTERRES
    91   44  169 1    
    92   45   46 2    
    93   45   47 1    
    94   47   48 1    
    95   47   49 1    
    96   47  170 1    
    97   48  171 1    
    98   48  172 1    
    99   48  173 1    
   100   49   50 am   BACKBONE|DICT|INTERRES
   101   49  174 1    
   102   50   51 2    
   103   50   52 1    
   104   52   53 1    
   105   52   54 1    
   106   52  175 1    
   107   53  176 1    
   108   53  177 1    
   109   53  178 1    
   110   54   55 am   BACKBONE|DICT|INTERRES
   111   54  179 1    
   112   55   56 2    
   113   55   57 1    
   114   57   58 1    
   115   57   59 1    
   116   57  180 1    
   117   58  181 1    
   118   58  182 1    
   119   58  183 1    
   120   59   60 am   BACKBONE|DICT|INTERRES
   121   59  184 1    
   122   60   61 2    
   123   60   62 1    
   124   62   63 1    
   125   62   64 1    
   126   62  185 1    
   127   63  186 1    
   128   63  187 1    
   129   63  188 1    
   130   64   65 am   BACKBONE|DICT|INTERRES
   131   64  189 1    
   132   65   66 2    
   133   67   68 2    
   134   67   69 am   BACKBONE|DICT|INTERRES
   135   69   70 1    
   136   69  190 1    
   137   70   71 1    
   138   70   72 1    
   139   70  191 1    
   140   71  192 1    
   141   71  193 1    
   142   71  194 1    
   143   72   73 2    
   144   72   74 am   BACKBONE|DICT|INTERRES
   145   74   75 1    
   146   74  195 1    
   147   75   76 1    
   148   75   77 1    
   149   75  196 1    
   150   76  197 1    
   151   76  198 1    
   152   76  199 1    
   153   77   78 2    
   154   77   79 am   BACKBONE|DICT|INTERRES
   155   79   80 1    
   156   79  200 1    
   157   80   81 1    
   158   80   82 1    
   159   80  201 1    
   160   81  202 1    
   161   81  203 1    
   162   81  204 1    
   163   82   83 2    
   164   82   84 am   BACKBONE|DICT|INTERRES
   165   84   85 1    
   166   84  205 1    
   167   85   86 1    
   168   85   87 1    
   169   85  206 1    
   170   86  207 1    
   171   86  208 1    
   172   86  209 1    
   173   87   88 2    
   174   87   89 am   BACKBONE|DICT|INTERRES
   175   89   90 1    
   176   89  210 1    
   177   90   91 1    
   178   90   92 1    
   179   90  211 1    
   180   91  212 1    
   181   91  213 1    
   182   91  214 1    
   183   92   93 2    
   184   92   94 am   BACKBONE|DICT|INTERRES
   185   94   95 1    
   186   94  215 1    
   187   95   96 1    
   188   95   97 1    
   189   95  216 1    
   190   96  217 1    
   191   96  218 1    
   192   96  219 1    
   193   97   98 2    
   194   97   99 am   BACKBONE|DICT|INTERRES
   195   99  100 1    
   196   99  220 1    
   197  100  101 1    
   198  100  102 1    
   199  100  221 1    
   200  101  222 1    
   201  101  223 1    
   202  101  224 1    
   203  102  103 2    
   204  102  104 am   BACKBONE|DICT|INTERRES
   205  104  105 1    
   206  104  225 1    
   207  105  106 1    
   208  105  107 1    
   209  105  226 1    
   210  106  227 1    
   211  106  228 1    
   212  106  229 1    
   213  107  108 2    
   214  107  109 am   BACKBONE|DICT|INTERRES
   215  109  110 1    
   216  109  230 1    
   217  110  111 1    
   218  110  112 1    
   219  110  231 1    
   220  111  232 1    
   221  111  233 1    
   222  111  234 1    
   223  112  113 2    
   224  112  114 am   BACKBONE|DICT|INTERRES
   225  114  115 1    
   226  114  235 1    
   227  115  116 1    
   228  115  117 1    
   229  115  236 1    
   230  116  237 1    
   231  116  238 1    
   232  116  239 1    
   233  117  118 2    
   234  117  119 am   BACKBONE|DICT|INTERRES
   235  119  120 1    
   236  119  240 1    
   237  120  121 1    
   238  120  124 1    
   239  120  241 1    
   240  121  122 am   BACKBONE|DICT|INTERRES
   241  121  123 2    
   242  122  242 1    
   243  122  243 1    
   244  124  125 1    
   245  124  244 1    
   246  124  245 1    
   247  125  126 1    
   248  126  246 1    
   249  126  247 1    
@<TRIPOS>SUBSTRUCTURE
     1 UNK         1 GROUP             0       ****    0 ROOT    
