@<TRIPOS>MOLECULE
3R540
247   249    1
SMALL
USER_CHARGES


@<TRIPOS>ATOM
      1 CA         -0.8723   -8.7955  -45.9312 C.3       0 UNK        -0.1800 
      2 C          -0.4368  -10.1733  -46.4077 C.2       0 UNK         0.5000 
      3 O           0.3361  -10.8384  -45.7175 O.2       0 UNK        -0.5000 
      4 N          -0.9397  -10.6047  -47.5747 N.am      1 UNK        -0.5000 
      5 CA         -0.6524  -11.8986  -48.2089 C.3       1 UNK         0.1400 
      6 C6         -1.3660  -12.0321  -49.5804 C.3       23 UNK        -0.0398 
      7 S7         -0.9686  -13.5739  -50.4834 S.3       23 UNK        -0.2404 
      8 C8         -2.4922  -14.5653  -50.2622 C.3       23 UNK        -0.0205 
      9 C9         -2.2185  -16.0199  -49.8818 C.ar      23 UNK        -0.0193 
     10 C10        -1.2509  -16.7693  -50.5604 C.ar      23 UNK        -0.1150 
     11 C11        -0.9758  -18.0876  -50.1871 C.ar      23 UNK        -0.0193 
     12 C12        -1.7069  -18.6754  -49.1527 C.ar      23 UNK        -0.1150 
     13 C13        -2.6891  -17.9483  -48.4743 C.ar      23 UNK        -0.0193 
     14 C14        -2.9436  -16.6237  -48.8468 C.ar      23 UNK        -0.1150 
     15 C15        -3.4305  -18.5868  -47.3088 C.3       23 UNK        -0.0205 
     16 S16        -2.4463  -18.4439  -45.7856 S.3       23 UNK        -0.2404 
     17 C17        -3.1130  -19.7681  -44.7277 C.3       23 UNK        -0.0398 
     18 CA         -2.6384  -21.1893  -45.1254 C.3       11 UNK         0.1400 
     19 N          -1.1909  -21.2859  -45.3757 N.am      11 UNK        -0.5000 
     20 C          -0.6042  -22.2994  -46.0323 C.2       10 UNK         0.5000 
     21 O          -1.2102  -23.2989  -46.4181 O.2       10 UNK        -0.5000 
     22 CA          0.9169  -22.2068  -46.2286 C.3       10 UNK         0.1400 
     23 CB          1.2675  -21.2117  -47.3450 C.3       10 UNK        -0.1800 
     24 N           1.5808  -21.8181  -44.9841 N.am      10 UNK        -0.5000 
     25 C           1.8148  -22.6582  -43.9664 C.2       9 UNK         0.5000 
     26 O           1.5527  -23.8606  -44.0153 O.2       9 UNK        -0.5000 
     27 CA          2.3949  -22.0556  -42.6693 C.3       9 UNK         0.1400 
     28 CB          3.1490  -23.0886  -41.8065 C.3       9 UNK        -0.1800 
     29 N           3.2031  -20.8509  -42.8796 N.am      9 UNK        -0.5000 
     30 C           4.3761  -20.7399  -43.5216 C.2       8 UNK         0.5000 
     31 O           4.9634  -21.6900  -44.0403 O.2       8 UNK        -0.5000 
     32 CA          5.0051  -19.3305  -43.6140 C.3       8 UNK         0.1400 
     33 CB          5.0651  -18.8640  -45.0773 C.3       8 UNK        -0.1800 
     34 N           4.2962  -18.3173  -42.8270 N.am      8 UNK        -0.5000 
     35 C           4.3725  -18.1746  -41.4965 C.2       7 UNK         0.5000 
     36 O           5.1325  -18.8283  -40.7816 O.2       7 UNK        -0.5000 
     37 CA          3.3904  -17.1746  -40.8516 C.3       7 UNK         0.1400 
     38 CB          3.9917  -15.7623  -40.7970 C.3       7 UNK        -0.1800 
     39 N           2.0937  -17.1354  -41.5359 N.am      7 UNK        -0.5000 
     40 C           1.2355  -18.1657  -41.5830 C.2       6 UNK         0.5000 
     41 O           1.4208  -19.2327  -40.9992 O.2       6 UNK        -0.5000 
     42 CA         -0.0038  -18.0113  -42.4786 C.3       6 UNK         0.1400 
     43 CB         -1.1314  -17.2960  -41.7224 C.3       6 UNK        -0.1800 
     44 N           0.3067  -17.3171  -43.7305 N.am      6 UNK        -0.5000 
     45 C           1.0507  -17.8506  -44.7111 C.2       5 UNK         0.5000 
     46 O           1.4524  -19.0139  -44.6877 O.2       5 UNK        -0.5000 
     47 CA          1.4608  -16.9465  -45.8892 C.3       5 UNK         0.1400 
     48 CB          0.4618  -17.0231  -47.0451 C.3       5 UNK        -0.1800 
     49 N           1.6459  -15.5509  -45.5086 N.am      5 UNK        -0.5000 
     50 C           2.6545  -15.1052  -44.7520 C.2       4 UNK         0.5000 
     51 O           3.5339  -15.8340  -44.2935 O.2       4 UNK        -0.5000 
     52 CA          2.6577  -13.6017  -44.4256 C.3       4 UNK         0.1400 
     53 CB          3.1885  -12.7853  -45.6135 C.3       4 UNK        -0.1800 
     54 N           1.3328  -13.1082  -44.0504 N.am      4 UNK        -0.5000 
     55 C           0.6621  -13.4958  -42.9565 C.2       3 UNK         0.5000 
     56 O           1.0995  -14.3006  -42.1325 O.2       3 UNK        -0.5000 
     57 CA         -0.7541  -12.9201  -42.7823 C.3       3 UNK         0.1400 
     58 CB         -0.7084  -11.4537  -42.3255 C.3       3 UNK        -0.1800 
     59 N          -1.5410  -13.0329  -44.0109 N.am      3 UNK        -0.5000 
     60 C          -1.9725  -14.1977  -44.5148 C.2       2 UNK         0.5000 
     61 O          -1.7867  -15.2808  -43.9693 O.2       2 UNK        -0.5000 
     62 CA         -2.7008  -14.1620  -45.8686 C.3       2 UNK         0.1400 
     63 CB         -4.2156  -14.0087  -45.6735 C.3       2 UNK        -0.1800 
     64 N          -2.2145  -13.1089  -46.7585 N.am      2 UNK        -0.5000 
     65 C          -0.9770  -13.0782  -47.2724 C.2       1 UNK         0.5000 
     66 O          -0.1003  -13.8977  -47.0041 O.2       1 UNK        -0.5000 
     67 C          -3.1516  -22.2395  -44.1143 C.2       11 UNK         0.5000 
     68 O          -4.3596  -22.4599  -44.0318 O.2       11 UNK        -0.5000 
     69 N          -2.2354  -22.9102  -43.3993 N.am      12 UNK        -0.5000 
     70 CA         -2.5131  -24.0754  -42.5556 C.3       12 UNK         0.1400 
     71 CB         -1.2554  -24.4164  -41.7423 C.3       12 UNK        -0.1800 
     72 C          -2.9906  -25.3032  -43.3619 C.2       12 UNK         0.5000 
     73 O          -3.6963  -26.1482  -42.8115 O.2       12 UNK        -0.5000 
     74 N          -2.6376  -25.3573  -44.6546 N.am      13 UNK        -0.5000 
     75 CA         -3.1145  -26.3376  -45.6316 C.3       13 UNK         0.1400 
     76 CB         -1.9138  -26.8172  -46.4666 C.3       13 UNK        -0.1800 
     77 C          -4.2291  -25.7413  -46.5200 C.2       13 UNK         0.5000 
     78 O          -4.4214  -26.1984  -47.6483 O.2       13 UNK        -0.5000 
     79 N          -4.9239  -24.7115  -46.0113 N.am      14 UNK        -0.5000 
     80 CA         -5.9214  -23.8537  -46.6587 C.3       14 UNK         0.1400 
     81 CB         -7.1240  -24.6496  -47.2039 C.3       14 UNK        -0.1800 
     82 C          -5.2930  -22.9385  -47.7222 C.2       14 UNK         0.5000 
     83 O          -5.3041  -21.7196  -47.5495 O.2       14 UNK        -0.5000 
     84 N          -4.7382  -23.5465  -48.7792 N.am      15 UNK        -0.5000 
     85 CA         -3.9967  -22.9828  -49.9153 C.3       15 UNK         0.1400 
     86 CB         -2.6671  -22.3670  -49.4484 C.3       15 UNK        -0.1800 
     87 C          -4.7774  -22.0079  -50.8202 C.2       15 UNK         0.5000 
     88 O          -4.6824  -22.1185  -52.0436 O.2       15 UNK        -0.5000 
     89 N          -5.5248  -21.0782  -50.2113 N.am      16 UNK        -0.5000 
     90 CA         -6.4786  -20.1296  -50.7997 C.3       16 UNK         0.1400 
     91 CB         -7.7313  -20.8901  -51.2791 C.3       16 UNK        -0.1800 
     92 C          -5.9057  -19.2139  -51.9035 C.2       16 UNK         0.5000 
     93 O          -6.6749  -18.6812  -52.7060 O.2       16 UNK        -0.5000 
     94 N          -4.5736  -19.0687  -51.9456 N.am      17 UNK        -0.5000 
     95 CA         -3.7492  -18.3873  -52.9497 C.3       17 UNK         0.1400 
     96 CB         -4.0888  -16.8880  -53.0350 C.3       17 UNK        -0.1800 
     97 C          -3.7939  -19.0486  -54.3416 C.2       17 UNK         0.5000 
     98 O          -2.7435  -19.3730  -54.8962 O.2       17 UNK        -0.5000 
     99 N          -5.0021  -19.2197  -54.8867 N.am      18 UNK        -0.5000 
    100 CA        -5.2605  -19.7116  -56.2357 C.3       18 UNK         0.1400 
    101 CB        -6.5534  -19.0645  -56.7548 C.3       18 UNK        -0.1800 
    102 C         -5.3658  -21.2431  -56.3171 C.2       18 UNK         0.5000 
    103 O         -5.0503  -21.7984  -57.3692 O.2       18 UNK        -0.5000 
    104 N         -5.8066  -21.9059  -55.2359 N.am      19 UNK        -0.5000 
    105 CA        -6.0253  -23.3575  -55.2150 C.3       19 UNK         0.1400 
    106 CB        -6.9541  -23.7482  -54.0550 C.3       19 UNK        -0.1800 
    107 C         -4.7015  -24.1390  -55.1706 C.2       19 UNK         0.5000 
    108 O         -4.5249  -25.0837  -55.9406 O.2       19 UNK        -0.5000 
    109 N         -3.7756  -23.6948  -54.3104 N.am      20 UNK        -0.5000 
    110 CA        -2.3898  -24.1713  -54.2742 C.3       20 UNK         0.1400 
    111 CB        -1.7847  -23.8564  -52.8977 C.3       20 UNK        -0.1800 
    112 C         -1.5177  -23.5612  -55.3896 C.2       20 UNK         0.5000 
    113 O         -0.4294  -24.0754  -55.6495 O.2       20 UNK        -0.5000 
    114 N         -1.9984  -22.4669  -56.0006 N.am      21 UNK        -0.5000 
    115 CA        -1.3284  -21.6285  -57.0023 C.3       21 UNK         0.1400 
    116 CB        -1.0792  -22.4124  -58.3072 C.3       21 UNK        -0.1800 
    117 C         -0.0596  -20.9396  -56.4532 C.2       21 UNK         0.5000 
    118 O          0.8722  -20.6565  -57.2086 O.2       21 UNK        -0.5000 
    119 N         -0.0544  -20.6844  -55.1401 N.am      22 UNK        -0.5000 
    120 CA         1.0040  -19.9825  -54.4073 C.3       22 UNK         0.1400 
    121 C          0.9223  -18.4313  -54.5130 C.2       22 UNK         0.5000 
    122 N         -0.2021  -17.8546  -54.9230 N.am      22 UNK        -0.7600 
    123 O          1.9001  -17.7443  -54.2309 O.2       22 UNK        -0.5000 
    124 C124        1.0767  -20.4712  -52.9376 C.3       23 UNK        -0.0398 
    125 S125       -0.4444  -20.1478  -51.9735 S.3       23 UNK        -0.2404 
    126 C126        0.1581  -18.8482  -50.8548 C.3       23 UNK        -0.0205 
    127 H127       -1.5680   -8.3256  -46.6267 H         1 UNK         0.0600 
    128 H128       -1.3612   -8.8730  -44.9601 H         1 UNK         0.0600 
    129 H129       -0.0042   -8.1450  -45.8257 H         1 UNK         0.0600 
    130 H130       -1.5681   -9.9988  -48.0830 H         1 UNK         0.3000 
    131 H131        0.4241  -11.9247  -48.3916 H         1 UNK         0.0600 
    132 H132       -1.0633  -11.2030  -50.2214 H         1 UNK         0.0800 
    133 H133       -2.4465  -11.9318  -49.4693 H         1 UNK         0.0800 
    134 H134       -3.0600  -14.5379  -51.1920 H         1 UNK         0.0800 
    135 H135       -3.1268  -14.1052  -49.5042 H         1 UNK         0.0800 
    136 H136       -0.6870  -16.3136  -51.3618 H         1 UNK         0.1150 
    137 H137       -1.4783  -19.6860  -48.8476 H         1 UNK         0.1150 
    138 H138       -3.6951  -16.0578  -48.3151 H         1 UNK         0.1150 
    139 H139       -4.4031  -18.1156  -47.1614 H         1 UNK         0.0800 
    140 H140       -3.6236  -19.6348  -47.5338 H         1 UNK         0.0800 
    141 H141       -2.8137  -19.5415  -43.7030 H         1 UNK         0.0800 
    142 H142       -4.2029  -19.7098  -44.7469 H         1 UNK         0.0800 
    143 H143       -3.1251  -21.4324  -46.0704 H         1 UNK         0.0600 
    144 H144       -0.6288  -20.4950  -45.0933 H         1 UNK         0.3000 
    145 H145        1.2790  -23.1913  -46.5329 H         1 UNK         0.0600 
    146 H146        2.3431  -21.1769  -47.5177 H         1 UNK         0.0600 
    147 H147        0.7935  -21.4960  -48.2855 H         1 UNK         0.0600 
    148 H148        0.9361  -20.2036  -47.1038 H         1 UNK         0.0600 
    149 H149        1.7686  -20.8257  -44.8561 H         1 UNK         0.3000 
    150 H150        1.5287  -21.7306  -42.0919 H         1 UNK         0.0600 
    151 H151        2.4899  -23.9046  -41.5076 H         1 UNK         0.0600 
    152 H152        3.5327  -22.6335  -40.8933 H         1 UNK         0.0600 
    153 H153        3.9901  -23.5291  -42.3423 H         1 UNK         0.0600 
    154 H154        2.8041  -20.0049  -42.4937 H         1 UNK         0.3000 
    155 H155        6.0279  -19.4046  -43.2395 H         1 UNK         0.0600 
    156 H156        5.6802  -19.5360  -45.6768 H         1 UNK         0.0600 
    157 H157        5.4983  -17.8669  -45.1592 H         1 UNK         0.0600 
    158 H158        4.0746  -18.8392  -45.5303 H         1 UNK         0.0600 
    159 H159        3.7037  -17.6762  -43.3433 H         1 UNK         0.3000 
    160 H160        3.2139  -17.5037  -39.8254 H         1 UNK         0.0600 
    161 H161        4.1933  -15.3672  -41.7921 H         1 UNK         0.0600 
    162 H162        3.3198  -15.0676  -40.2926 H         1 UNK         0.0600 
    163 H163        4.9339  -15.7614  -40.2476 H         1 UNK         0.0600 
    164 H164        1.8520  -16.2719  -42.0104 H         1 UNK         0.3000 
    165 H165       -0.3573  -19.0143  -42.7269 H         1 UNK         0.0600 
    166 H166       -2.0573  -17.3092  -42.2972 H         1 UNK         0.0600 
    167 H167       -1.3377  -17.7861  -40.7701 H         1 UNK         0.0600 
    168 H168       -0.8789  -16.2566  -41.5102 H         1 UNK         0.0600 
    169 H169       -0.0777  -16.3851  -43.8411 H         1 UNK         0.3000 
    170 H170        2.4157  -17.3200  -46.2625 H         1 UNK         0.0600 
    171 H171        0.2678  -18.0556  -47.3271 H         1 UNK         0.0600 
    172 H172       -0.4914  -16.5661  -46.7819 H         1 UNK         0.0600 
    173 H173        0.8383  -16.5099  -47.9301 H         1 UNK         0.0600 
    174 H174        0.9766  -14.8849  -45.8905 H         1 UNK         0.3000 
    175 H175        3.3278  -13.4466  -43.5775 H         1 UNK         0.0600 
    176 H176        2.5368  -12.8713  -46.4841 H         1 UNK         0.0600 
    177 H177        3.2665  -11.7279  -45.3602 H         1 UNK         0.0600 
    178 H178        4.1818  -13.1249  -45.9093 H         1 UNK         0.0600 
    179 H179        0.9024  -12.4370  -44.6803 H         1 UNK         0.3000 
    180 H180       -1.2547  -13.4989  -42.0028 H         1 UNK         0.0600 
    181 H181       -0.1465  -11.3543  -41.3960 H         1 UNK         0.0600 
    182 H182       -0.2321  -10.8104  -43.0656 H         1 UNK         0.0600 
    183 H183       -1.7110  -11.0673  -42.1416 H         1 UNK         0.0600 
    184 H184       -1.6888  -12.1884  -44.5426 H         1 UNK         0.3000 
    185 H185       -2.5177  -15.1218  -46.3556 H         1 UNK         0.0600 
    186 H186       -4.6067  -14.8009  -45.0334 H         1 UNK         0.0600 
    187 H187       -4.4679  -13.0549  -45.2087 H         1 UNK         0.0600 
    188 H188       -4.7440  -14.0715  -46.6249 H         1 UNK         0.0600 
    189 H189       -2.8641  -12.3736  -46.9952 H         1 UNK         0.3000 
    190 H190       -1.2641  -22.6761  -43.5382 H         1 UNK         0.3000 
    191 H191       -3.3100  -23.8058  -41.8594 H         1 UNK         0.0600 
    192 H192       -1.4498  -25.2384  -41.0521 H         1 UNK         0.0600 
    193 H193       -0.9235  -23.5651  -41.1476 H         1 UNK         0.0600 
    194 H194       -0.4299  -24.7202  -42.3864 H         1 UNK         0.0600 
    195 H195       -2.0706  -24.6088  -45.0398 H         1 UNK         0.3000 
    196 H196       -3.5393  -27.2047  -45.1224 H         1 UNK         0.0600 
    197 H197       -2.2047  -27.6099  -47.1569 H         1 UNK         0.0600 
    198 H198       -1.1258  -27.2181  -45.8289 H         1 UNK         0.0600 
    199 H199       -1.4864  -26.0060  -47.0573 H         1 UNK         0.0600 
    200 H200       -4.6551  -24.3925  -45.0892 H         1 UNK         0.3000 
    201 H201       -6.3027  -23.2016  -45.8713 H         1 UNK         0.0600 
    202 H202       -7.5830  -25.2516  -46.4197 H         1 UNK         0.0600 
    203 H203       -6.8499  -25.3179  -48.0199 H         1 UNK         0.0600 
    204 H204       -7.8908  -23.9743  -47.5851 H         1 UNK         0.0600 
    205 H205       -4.7692  -24.5614  -48.7583 H         1 UNK         0.3000 
    206 H206       -3.7574  -23.8412  -50.5416 H         1 UNK         0.0600 
    207 H207       -2.0222  -23.1256  -49.0059 H         1 UNK         0.0600 
    208 H208       -2.1208  -21.9269  -50.2822 H         1 UNK         0.0600 
    209 H209       -2.8197  -21.5863  -48.7051 H         1 UNK         0.0600 
    210 H210       -5.4988  -21.0931  -49.1925 H         1 UNK         0.3000 
    211 H211       -6.7822  -19.4665  -49.9887 H         1 UNK         0.0600 
    212 H212       -7.5115  -21.5220  -52.1390 H         1 UNK         0.0600 
    213 H213       -8.5243  -20.2014  -51.5728 H         1 UNK         0.0600 
    214 H214       -8.1336  -21.5255  -50.4900 H         1 UNK         0.0600 
    215 H215       -4.0484  -19.5799  -51.2510 H         1 UNK         0.3000 
    216 H216       -2.7233  -18.4647  -52.5921 H         1 UNK         0.0600 
    217 H217       -4.1238  -16.4409  -52.0432 H         1 UNK         0.0600 
    218 H218       -5.0531  -16.7083  -53.5108 H         1 UNK         0.0600 
    219 H219       -3.3343  -16.3526  -53.6122 H         1 UNK         0.0600 
    220 H220       -5.8055  -18.9444  -54.3267 H         1 UNK         0.3000 
    221 H221       -4.4430  -19.4014  -56.8903 H         1 UNK         0.0600 
    222 H222       -7.4109  -19.3224  -56.1319 H         1 UNK         0.0600 
    223 H223       -6.4688  -17.9778  -56.7748 H         1 UNK         0.0600 
    224 H224       -6.7746  -19.3912  -57.7718 H         1 UNK         0.0600 
    225 H225       -6.0028  -21.3951  -54.3873 H         1 UNK         0.3000 
    226 H226       -6.5359  -23.6325  -56.1408 H         1 UNK         0.0600 
    227 H227       -7.8966  -23.2029  -54.1030 H         1 UNK         0.0600 
    228 H228       -7.1930  -24.8115  -54.0954 H         1 UNK         0.0600 
    229 H229       -6.5041  -23.5577  -53.0825 H         1 UNK         0.0600 
    230 H230       -4.0306  -22.9610  -53.6540 H         1 UNK         0.3000 
    231 H231       -2.3793  -25.2548  -54.4097 H         1 UNK         0.0600 
    232 H232       -2.2649  -24.4475  -52.1202 H         1 UNK         0.0600 
    233 H233       -0.7210  -24.0960  -52.8659 H         1 UNK         0.0600 
    234 H234       -1.8910  -22.8017  -52.6427 H         1 UNK         0.0600 
    235 H235       -2.9051  -22.1392  -55.7022 H         1 UNK         0.3000 
    236 H236       -2.0273  -20.8239  -57.2350 H         1 UNK         0.0600 
    237 H237       -1.9956  -22.8835  -58.6630 H         1 UNK         0.0600 
    238 H238       -0.7275  -21.7503  -59.0992 H         1 UNK         0.0600 
    239 H239       -0.3282  -23.1919  -58.1769 H         1 UNK         0.0600 
    240 H240       -0.8932  -20.8828  -54.6133 H         1 UNK         0.3000 
    241 H241        1.9543  -20.2553  -54.8701 H         1 UNK         0.0600 
    242 H242       -0.2473  -16.8520  -55.0022 H         1 UNK         0.3800 
    243 H243       -1.0277  -18.4178  -55.0984 H         1 UNK         0.3800 
    244 H244        1.2518  -21.5478  -52.9244 H         1 UNK         0.0800 
    245 H245        1.9409  -20.0339  -52.4349 H         1 UNK         0.0800 
    246 H246        0.7939  -19.2981  -50.0908 H         1 UNK         0.0800 
    247 H247        0.7908  -18.1546  -51.4108 H         1 UNK         0.0800 
@<TRIPOS>BOND
     1    1    2 1    
     2    1  127 1    
     3    1  128 1    
     4    1  129 1    
     5    2    3 2    
     6    2    4 am   BACKBONE|DICT|INTERRES
     7    4    5 1    
     8    4  130 1    
     9    5    6 1    
    10    5   65 1    
    11    5  131 1    
    12    6    7 1    
    13    6  132 1    
    14    6  133 1    
    15    7    8 1    
    16    8    9 1    
    17    8  134 1    
    18    8  135 1    
    19    9   10 ar   
    20    9   14 ar   
    21   10   11 ar   
    22   10  136 1    
    23   11   12 ar   
    24   11  126 1    
    25   12   13 ar   
    26   12  137 1    
    27   13   14 ar   
    28   13   15 1    
    29   14  138 1    
    30   15   16 1    
    31   15  139 1    
    32   15  140 1    
    33   16   17 1    
    34   17   18 1    
    35   17  141 1    
    36   17  142 1    
    37   18   19 1    
    38   18   67 1    
    39   18  143 1    
    40   19   20 am   BACKBONE|DICT|INTERRES
    41   19  144 1    
    42   20   21 2    
    43   20   22 1    
    44   22   23 1    
    45   22   24 1    
    46   22  145 1    
    47   23  146 1    
    48   23  147 1    
    49   23  148 1    
    50   24   25 am   BACKBONE|DICT|INTERRES
    51   24  149 1    
    52   25   26 2    
    53   25   27 1    
    54   27   28 1    
    55   27   29 1    
    56   27  150 1    
    57   28  151 1    
    58   28  152 1    
    59   28  153 1    
    60   29   30 am   BACKBONE|DICT|INTERRES
    61   29  154 1    
    62   30   31 2    
    63   30   32 1    
    64   32   33 1    
    65   32   34 1    
    66   32  155 1    
    67   33  156 1    
    68   33  157 1    
    69   33  158 1    
    70   34   35 am   BACKBONE|DICT|INTERRES
    71   34  159 1    
    72   35   36 2    
    73   35   37 1    
    74   37   38 1    
    75   37   39 1    
    76   37  160 1    
    77   38  161 1    
    78   38  162 1    
    79   38  163 1    
    80   39   40 am   BACKBONE|DICT|INTERRES
    81   39  164 1    
    82   40   41 2    
    83   40   42 1    
    84   42   43 1    
    85   42   44 1    
    86   42  165 1    
    87   43  166 1    
    88   43  167 1    
    89   43  168 1    
    90   44   45 am   BACKBONE|DICT|INTERRES
    91   44  169 1    
    92   45   46 2    
    93   45   47 1    
    94   47   48 1    
    95   47   49 1    
    96   47  170 1    
    97   48  171 1    
    98   48  172 1    
    99   48  173 1    
   100   49   50 am   BACKBONE|DICT|INTERRES
   101   49  174 1    
   102   50   51 2    
   103   50   52 1    
   104   52   53 1    
   105   52   54 1    
   106   52  175 1    
   107   53  176 1    
   108   53  177 1    
   109   53  178 1    
   110   54   55 am   BACKBONE|DICT|INTERRES
   111   54  179 1    
   112   55   56 2    
   113   55   57 1    
   114   57   58 1    
   115   57   59 1    
   116   57  180 1    
   117   58  181 1    
   118   58  182 1    
   119   58  183 1    
   120   59   60 am   BACKBONE|DICT|INTERRES
   121   59  184 1    
   122   60   61 2    
   123   60   62 1    
   124   62   63 1    
   125   62   64 1    
   126   62  185 1    
   127   63  186 1    
   128   63  187 1    
   129   63  188 1    
   130   64   65 am   BACKBONE|DICT|INTERRES
   131   64  189 1    
   132   65   66 2    
   133   67   68 2    
   134   67   69 am   BACKBONE|DICT|INTERRES
   135   69   70 1    
   136   69  190 1    
   137   70   71 1    
   138   70   72 1    
   139   70  191 1    
   140   71  192 1    
   141   71  193 1    
   142   71  194 1    
   143   72   73 2    
   144   72   74 am   BACKBONE|DICT|INTERRES
   145   74   75 1    
   146   74  195 1    
   147   75   76 1    
   148   75   77 1    
   149   75  196 1    
   150   76  197 1    
   151   76  198 1    
   152   76  199 1    
   153   77   78 2    
   154   77   79 am   BACKBONE|DICT|INTERRES
   155   79   80 1    
   156   79  200 1    
   157   80   81 1    
   158   80   82 1    
   159   80  201 1    
   160   81  202 1    
   161   81  203 1    
   162   81  204 1    
   163   82   83 2    
   164   82   84 am   BACKBONE|DICT|INTERRES
   165   84   85 1    
   166   84  205 1    
   167   85   86 1    
   168   85   87 1    
   169   85  206 1    
   170   86  207 1    
   171   86  208 1    
   172   86  209 1    
   173   87   88 2    
   174   87   89 am   BACKBONE|DICT|INTERRES
   175   89   90 1    
   176   89  210 1    
   177   90   91 1    
   178   90   92 1    
   179   90  211 1    
   180   91  212 1    
   181   91  213 1    
   182   91  214 1    
   183   92   93 2    
   184   92   94 am   BACKBONE|DICT|INTERRES
   185   94   95 1    
   186   94  215 1    
   187   95   96 1    
   188   95   97 1    
   189   95  216 1    
   190   96  217 1    
   191   96  218 1    
   192   96  219 1    
   193   97   98 2    
   194   97   99 am   BACKBONE|DICT|INTERRES
   195   99  100 1    
   196   99  220 1    
   197  100  101 1    
   198  100  102 1    
   199  100  221 1    
   200  101  222 1    
   201  101  223 1    
   202  101  224 1    
   203  102  103 2    
   204  102  104 am   BACKBONE|DICT|INTERRES
   205  104  105 1    
   206  104  225 1    
   207  105  106 1    
   208  105  107 1    
   209  105  226 1    
   210  106  227 1    
   211  106  228 1    
   212  106  229 1    
   213  107  108 2    
   214  107  109 am   BACKBONE|DICT|INTERRES
   215  109  110 1    
   216  109  230 1    
   217  110  111 1    
   218  110  112 1    
   219  110  231 1    
   220  111  232 1    
   221  111  233 1    
   222  111  234 1    
   223  112  113 2    
   224  112  114 am   BACKBONE|DICT|INTERRES
   225  114  115 1    
   226  114  235 1    
   227  115  116 1    
   228  115  117 1    
   229  115  236 1    
   230  116  237 1    
   231  116  238 1    
   232  116  239 1    
   233  117  118 2    
   234  117  119 am   BACKBONE|DICT|INTERRES
   235  119  120 1    
   236  119  240 1    
   237  120  121 1    
   238  120  124 1    
   239  120  241 1    
   240  121  122 am   BACKBONE|DICT|INTERRES
   241  121  123 2    
   242  122  242 1    
   243  122  243 1    
   244  124  125 1    
   245  124  244 1    
   246  124  245 1    
   247  125  126 1    
   248  126  246 1    
   249  126  247 1    
@<TRIPOS>SUBSTRUCTURE
     1 UNK         1 GROUP             0       ****    0 ROOT    
