@<TRIPOS>MOLECULE
3R540
247   249    1
SMALL
USER_CHARGES


@<TRIPOS>ATOM
      1 CA         -0.9358  -19.2742  -43.0715 C.3       0 UNK        -0.1800 
      2 C          -1.7965  -18.2585  -43.8079 C.2       0 UNK         0.5000 
      3 O          -3.0047  -18.1946  -43.5828 O.2       0 UNK        -0.5000 
      4 N          -1.1766  -17.4675  -44.6891 N.am      1 UNK        -0.5000 
      5 CA         -1.8192  -16.3802  -45.4282 C.3       1 UNK         0.1400 
      6 C6         -1.0311  -16.0618  -46.7163 C.3       23 UNK        -0.0398 
      7 S7         -1.9513  -15.0216  -47.9047 S.3       23 UNK        -0.2404 
      8 C8         -2.4044  -16.2084  -49.2090 C.3       23 UNK        -0.0205 
      9 C9         -1.1955  -16.9155  -49.8048 C.ar      23 UNK        -0.0193 
     10 C10        -0.3136  -16.2316  -50.6429 C.ar      23 UNK        -0.1150 
     11 C11         0.7800  -16.8924  -51.2097 C.ar      23 UNK        -0.0193 
     12 C12         1.0078  -18.2390  -50.9046 C.ar      23 UNK        -0.1150 
     13 C13         0.1355  -18.9328  -50.0604 C.ar      23 UNK        -0.0193 
     14 C14        -0.9675  -18.2645  -49.5260 C.ar      23 UNK        -0.1150 
     15 C15         0.3584  -20.4100  -49.7634 C.3       23 UNK        -0.0205 
     16 S16         1.1460  -20.6950  -48.1419 S.3       23 UNK        -0.2404 
     17 C17        -0.3005  -20.8207  -47.0359 C.3       23 UNK        -0.0398 
     18 CA         -0.7000  -22.2907  -46.7701 C.3       11 UNK         0.1400 
     19 N           0.2528  -22.9824  -45.8964 N.am      11 UNK        -0.5000 
     20 C           0.2539  -24.3069  -45.6780 C.2       10 UNK         0.5000 
     21 O          -0.5446  -25.0826  -46.2008 O.2       10 UNK        -0.5000 
     22 CA          1.2691  -24.8571  -44.6576 C.3       10 UNK         0.1400 
     23 CB          2.5929  -25.1996  -45.3561 C.3       10 UNK        -0.1800 
     24 N           1.5376  -23.9448  -43.5465 N.am      10 UNK        -0.5000 
     25 C           0.6230  -23.3783  -42.7458 C.2       9 UNK         0.5000 
     26 O          -0.5792  -23.6431  -42.7883 O.2       9 UNK        -0.5000 
     27 CA          1.1258  -22.2819  -41.7848 C.3       9 UNK         0.1400 
     28 CB          1.2625  -22.8425  -40.3620 C.3       9 UNK        -0.1800 
     29 N           2.3987  -21.6656  -42.1839 N.am      9 UNK        -0.5000 
     30 C           2.6362  -21.0326  -43.3425 C.2       8 UNK         0.5000 
     31 O           1.7961  -20.8985  -44.2367 O.2       8 UNK        -0.5000 
     32 CA          4.0846  -20.5605  -43.5610 C.3       8 UNK         0.1400 
     33 CB          4.9631  -21.7425  -44.0026 C.3       8 UNK        -0.1800 
     34 N           4.1797  -19.5114  -44.5732 N.am      8 UNK        -0.5000 
     35 C           3.7848  -18.2457  -44.4003 C.2       7 UNK         0.5000 
     36 O           3.3062  -17.8105  -43.3497 O.2       7 UNK        -0.5000 
     37 CA          3.9379  -17.3247  -45.6253 C.3       7 UNK         0.1400 
     38 CB          2.6516  -17.3458  -46.4659 C.3       7 UNK        -0.1800 
     39 N           4.2568  -15.9445  -45.2530 N.am      7 UNK        -0.5000 
     40 C           5.4001  -15.5534  -44.6675 C.2       6 UNK         0.5000 
     41 O           6.3282  -16.3248  -44.4181 O.2       6 UNK        -0.5000 
     42 CA          5.5692  -14.0568  -44.3209 C.3       6 UNK         0.1400 
     43 CB          6.5439  -13.3865  -45.3024 C.3       6 UNK        -0.1800 
     44 N           4.3160  -13.3030  -44.3254 N.am      6 UNK        -0.5000 
     45 C           3.3695  -13.3706  -43.3804 C.2       5 UNK         0.5000 
     46 O           3.5052  -13.9963  -42.3285 O.2       5 UNK        -0.5000 
     47 CA          2.0427  -12.6252  -43.6526 C.3       5 UNK         0.1400 
     48 CB          1.9505  -11.3546  -42.7935 C.3       5 UNK        -0.1800 
     49 N           1.7851  -12.2610  -45.0531 N.am      5 UNK        -0.5000 
     50 C           1.7335  -13.1074  -46.0897 C.2       4 UNK         0.5000 
     51 O           2.0135  -14.3009  -46.0029 O.2       4 UNK        -0.5000 
     52 CA          1.2655  -12.5214  -47.4318 C.3       4 UNK         0.1400 
     53 CB          1.4952  -13.4838  -48.6129 C.3       4 UNK        -0.1800 
     54 N          -0.1566  -12.2029  -47.3458 N.am      4 UNK        -0.5000 
     55 C          -0.6585  -11.0474  -46.8939 C.2       3 UNK         0.5000 
     56 O           0.0343  -10.0959  -46.5304 O.2       3 UNK        -0.5000 
     57 CA         -2.1899  -10.9638  -46.8014 C.3       3 UNK         0.1400 
     58 CB         -2.8418  -11.0425  -48.1921 C.3       3 UNK        -0.1800 
     59 N          -2.7298  -12.0208  -45.9466 N.am      3 UNK        -0.5000 
     60 C          -2.7029  -11.9999  -44.6058 C.2       2 UNK         0.5000 
     61 O          -2.2164  -11.0831  -43.9434 O.2       2 UNK        -0.5000 
     62 CA         -3.3379  -13.2019  -43.8819 C.3       2 UNK         0.1400 
     63 CB         -4.8519  -12.9958  -43.7201 C.3       2 UNK        -0.1800 
     64 N          -3.0954  -14.4622  -44.5847 N.am      2 UNK        -0.5000 
     65 C          -1.9395  -15.1348  -44.5276 C.2       1 UNK         0.5000 
     66 O          -0.9835  -14.7947  -43.8271 O.2       1 UNK        -0.5000 
     67 C          -2.1539  -22.3754  -46.2597 C.2       11 UNK         0.5000 
     68 O          -3.0730  -22.4022  -47.0799 O.2       11 UNK        -0.5000 
     69 N          -2.3391  -22.4388  -44.9347 N.am      12 UNK        -0.5000 
     70 CA         -3.6412  -22.6444  -44.3066 C.3       12 UNK         0.1400 
     71 CB         -3.6587  -21.9897  -42.9165 C.3       12 UNK        -0.1800 
     72 C          -3.9726  -24.1418  -44.2130 C.2       12 UNK         0.5000 
     73 O          -5.0934  -24.5323  -44.5373 O.2       12 UNK        -0.5000 
     74 N          -2.9908  -24.9529  -43.7916 N.am      13 UNK        -0.5000 
     75 CA         -3.1365  -26.3921  -43.5588 C.3       13 UNK         0.1400 
     76 CB         -1.8740  -26.9302  -42.8703 C.3       13 UNK        -0.1800 
     77 C          -3.4489  -27.1998  -44.8324 C.2       13 UNK         0.5000 
     78 O          -4.3140  -28.0756  -44.7945 O.2       13 UNK        -0.5000 
     79 N          -2.7639  -26.8800  -45.9391 N.am      14 UNK        -0.5000 
     80 CA         -2.9924  -27.4866  -47.2545 C.3       14 UNK         0.1400 
     81 CB         -1.6733  -27.4791  -48.0447 C.3       14 UNK        -0.1800 
     82 C          -4.0985  -26.7689  -48.0536 C.2       14 UNK         0.5000 
     83 O          -4.4637  -27.2430  -49.1297 O.2       14 UNK        -0.5000 
     84 N          -4.5858  -25.6316  -47.5333 N.am      15 UNK        -0.5000 
     85 CA         -5.5749  -24.7219  -48.1222 C.3       15 UNK         0.1400 
     86 CB         -6.9478  -25.4095  -48.2671 C.3       15 UNK        -0.1800 
     87 C          -5.1008  -24.0532  -49.4303 C.2       15 UNK         0.5000 
     88 O          -5.9258  -23.5954  -50.2221 O.2       15 UNK        -0.5000 
     89 N          -3.7768  -23.9563  -49.6206 N.am      16 UNK        -0.5000 
     90 CA         -3.1363  -23.2983  -50.7617 C.3       16 UNK         0.1400 
     91 CB         -1.6350  -23.6176  -50.7635 C.3       16 UNK        -0.1800 
     92 C          -3.3900  -21.7786  -50.8162 C.2       16 UNK         0.5000 
     93 O          -3.2727  -21.1876  -51.8867 O.2       16 UNK        -0.5000 
     94 N          -3.7995  -21.1759  -49.6919 N.am      17 UNK        -0.5000 
     95 CA         -4.3143  -19.8069  -49.6159 C.3       17 UNK         0.1400 
     96 CB         -4.5257  -19.4438  -48.1366 C.3       17 UNK        -0.1800 
     97 C          -5.6059  -19.5639  -50.4282 C.2       17 UNK         0.5000 
     98 O          -5.9058  -18.4104  -50.7367 O.2       17 UNK        -0.5000 
     99 N          -6.3436  -20.6327  -50.7633 N.am      18 UNK        -0.5000 
    100 CA        -7.5417  -20.5831  -51.6025 C.3       18 UNK         0.1400 
    101 CB        -8.5587  -21.6065  -51.0696 C.3       18 UNK        -0.1800 
    102 C         -7.2414  -20.8410  -53.0944 C.2       18 UNK         0.5000 
    103 O         -8.1595  -20.7329  -53.9095 O.2       18 UNK        -0.5000 
    104 N         -5.9950  -21.1968  -53.4413 N.am      19 UNK        -0.5000 
    105 CA        -5.5722  -21.4692  -54.8163 C.3       19 UNK         0.1400 
    106 CB        -4.2725  -22.2905  -54.7951 C.3       19 UNK        -0.1800 
    107 C         -5.3713  -20.1746  -55.6252 C.2       19 UNK         0.5000 
    108 O         -5.1110  -19.1147  -55.0519 O.2       19 UNK        -0.5000 
    109 N         -5.4604  -20.2950  -56.9564 N.am      20 UNK        -0.5000 
    110 CA        -5.1943  -19.2050  -57.8994 C.3       20 UNK         0.1400 
    111 CB        -5.7719  -19.5728  -59.2746 C.3       20 UNK        -0.1800 
    112 C         -3.6930  -18.8766  -58.0139 C.2       20 UNK         0.5000 
    113 O         -3.3345  -17.7164  -58.2211 O.2       20 UNK        -0.5000 
    114 N         -2.8387  -19.8964  -57.8514 N.am      21 UNK        -0.5000 
    115 CA        -1.3784  -19.7989  -57.8582 C.3       21 UNK         0.1400 
    116 CB        -0.7972  -21.1620  -58.2754 C.3       21 UNK        -0.1800 
    117 C         -0.8533  -19.3219  -56.4888 C.2       21 UNK         0.5000 
    118 O         -0.1464  -20.0607  -55.7997 O.2       21 UNK        -0.5000 
    119 N         -1.2537  -18.1057  -56.1001 N.am      22 UNK        -0.5000 
    120 CA        -1.0161  -17.4522  -54.8008 C.3       22 UNK         0.1400 
    121 C         -1.7957  -18.1143  -53.6265 C.2       22 UNK         0.5000 
    122 N         -1.6756  -19.4219  -53.4391 N.am      22 UNK        -0.7600 
    123 O         -2.5437  -17.4445  -52.9211 O.2       22 UNK        -0.5000 
    124 C124        0.4978  -17.2583  -54.4888 C.3       23 UNK        -0.0398 
    125 S125        0.8603  -15.6529  -53.6967 S.3       23 UNK        -0.2404 
    126 C126        1.7060  -16.1498  -52.1596 C.3       23 UNK        -0.0205 
    127 H127       -1.2509  -19.3568  -42.0313 H         1 UNK         0.0600 
    128 H128        0.1165  -18.9886  -43.0831 H         1 UNK         0.0600 
    129 H129       -1.0292  -20.2543  -43.5375 H         1 UNK         0.0600 
    130 H130       -0.1731  -17.5258  -44.7808 H         1 UNK         0.3000 
    131 H131       -2.8198  -16.7112  -45.7164 H         1 UNK         0.0600 
    132 H132       -0.0949  -15.5610  -46.4799 H         1 UNK         0.0800 
    133 H133       -0.7357  -16.9931  -47.1945 H         1 UNK         0.0800 
    134 H134       -3.1122  -16.9285  -48.7991 H         1 UNK         0.0800 
    135 H135       -2.9348  -15.6801  -50.0025 H         1 UNK         0.0800 
    136 H136       -0.4910  -15.1902  -50.8715 H         1 UNK         0.1150 
    137 H137        1.8542  -18.7528  -51.3376 H         1 UNK         0.1150 
    138 H138       -1.6571  -18.7904  -48.8888 H         1 UNK         0.1150 
    139 H139       -0.5918  -20.9407  -49.8161 H         1 UNK         0.0800 
    140 H140        0.9895  -20.8512  -50.5362 H         1 UNK         0.0800 
    141 H141       -1.1302  -20.2721  -47.4747 H         1 UNK         0.0800 
    142 H142       -0.0710  -20.3076  -46.1009 H         1 UNK         0.0800 
    143 H143       -0.6901  -22.8187  -47.7234 H         1 UNK         0.0600 
    144 H144        0.9230  -22.3963  -45.4093 H         1 UNK         0.3000 
    145 H145        0.8584  -25.7753  -44.2380 H         1 UNK         0.0600 
    146 H146        3.2944  -25.6687  -44.6661 H         1 UNK         0.0600 
    147 H147        2.4310  -25.8986  -46.1780 H         1 UNK         0.0600 
    148 H148        3.0712  -24.3109  -45.7701 H         1 UNK         0.0600 
    149 H149        2.4972  -23.6579  -43.4290 H         1 UNK         0.3000 
    150 H150        0.3690  -21.4964  -41.7694 H         1 UNK         0.0600 
    151 H151        2.0292  -23.6163  -40.3063 H         1 UNK         0.0600 
    152 H152        0.3243  -23.2850  -40.0241 H         1 UNK         0.0600 
    153 H153        1.5233  -22.0579  -39.6515 H         1 UNK         0.0600 
    154 H154        3.1525  -21.7459  -41.5164 H         1 UNK         0.3000 
    155 H155        4.4693  -20.1675  -42.6175 H         1 UNK         0.0600 
    156 H156        4.6135  -22.1758  -44.9409 H         1 UNK         0.0600 
    157 H157        4.9644  -22.5366  -43.2549 H         1 UNK         0.0600 
    158 H158        5.9991  -21.4328  -44.1425 H         1 UNK         0.0600 
    159 H159        4.5126  -19.7994  -45.4814 H         1 UNK         0.3000 
    160 H160        4.7576  -17.6967  -46.2435 H         1 UNK         0.0600 
    161 H161        1.7940  -17.0043  -45.8869 H         1 UNK         0.0600 
    162 H162        2.4289  -18.3543  -46.8138 H         1 UNK         0.0600 
    163 H163        2.7382  -16.7095  -47.3471 H         1 UNK         0.0600 
    164 H164        3.5215  -15.2611  -45.4154 H         1 UNK         0.3000 
    165 H165        6.0022  -14.0012  -43.3200 H         1 UNK         0.0600 
    166 H166        6.7265  -12.3469  -45.0298 H         1 UNK         0.0600 
    167 H167        7.5094  -13.8942  -45.3041 H         1 UNK         0.0600 
    168 H168        6.1617  -13.4051  -46.3239 H         1 UNK         0.0600 
    169 H169        4.1136  -12.7680  -45.1565 H         1 UNK         0.3000 
    170 H170        1.2401  -13.2983  -43.3462 H         1 UNK         0.0600 
    171 H171        2.0978  -11.5825  -41.7370 H         1 UNK         0.0600 
    172 H172        2.7051  -10.6214  -43.0806 H         1 UNK         0.0600 
    173 H173        0.9707  -10.8854  -42.8886 H         1 UNK         0.0600 
    174 H174        1.5108  -11.3012  -45.2206 H         1 UNK         0.3000 
    175 H175        1.8416  -11.6140  -47.6250 H         1 UNK         0.0600 
    176 H176        2.5544  -13.7192  -48.7222 H         1 UNK         0.0600 
    177 H177        0.9655  -14.4277  -48.4829 H         1 UNK         0.0600 
    178 H178        1.1617  -13.0427  -49.5523 H         1 UNK         0.0600 
    179 H179       -0.7941  -12.9513  -47.5819 H         1 UNK         0.3000 
    180 H180       -2.4469   -9.9948  -46.3677 H         1 UNK         0.0600 
    181 H181       -2.6684  -12.0054  -48.6737 H         1 UNK         0.0600 
    182 H182       -2.4459  -10.2695  -48.8521 H         1 UNK         0.0600 
    183 H183       -3.9196  -10.8921  -48.1281 H         1 UNK         0.0600 
    184 H184       -3.1344  -12.8202  -46.4106 H         1 UNK         0.3000 
    185 H185       -2.8985  -13.2618  -42.8836 H         1 UNK         0.0600 
    186 H186       -5.0639  -12.0709  -43.1819 H         1 UNK         0.0600 
    187 H187       -5.3585  -12.9377  -44.6843 H         1 UNK         0.0600 
    188 H188       -5.3018  -13.8107  -43.1527 H         1 UNK         0.0600 
    189 H189       -3.8420  -14.8072  -45.1706 H         1 UNK         0.3000 
    190 H190       -1.5319  -22.4931  -44.3269 H         1 UNK         0.3000 
    191 H191       -4.4167  -22.1643  -44.9079 H         1 UNK         0.0600 
    192 H192       -3.5068  -20.9133  -42.9888 H         1 UNK         0.0600 
    193 H193       -4.6195  -22.1467  -42.4248 H         1 UNK         0.0600 
    194 H194       -2.8863  -22.3940  -42.2620 H         1 UNK         0.0600 
    195 H195       -2.1040  -24.5382  -43.5193 H         1 UNK         0.3000 
    196 H196       -3.9745  -26.5257  -42.8715 H         1 UNK         0.0600 
    197 H197       -1.9967  -27.9792  -42.5979 H         1 UNK         0.0600 
    198 H198       -1.6545  -26.3790  -41.9556 H         1 UNK         0.0600 
    199 H199       -1.0036  -26.8625  -43.5210 H         1 UNK         0.0600 
    200 H200       -2.0419  -26.1636  -45.8958 H         1 UNK         0.3000 
    201 H201       -3.3004  -28.5263  -47.1260 H         1 UNK         0.0600 
    202 H202       -1.7750  -28.0340  -48.9781 H         1 UNK         0.0600 
    203 H203       -0.8678  -27.9446  -47.4764 H         1 UNK         0.0600 
    204 H204       -1.3617  -26.4663  -48.3020 H         1 UNK         0.0600 
    205 H205       -4.2358  -25.3538  -46.6267 H         1 UNK         0.3000 
    206 H206       -5.6922  -23.9095  -47.4035 H         1 UNK         0.0600 
    207 H207       -7.2620  -25.8622  -47.3266 H         1 UNK         0.0600 
    208 H208       -7.7170  -24.6908  -48.5524 H         1 UNK         0.0600 
    209 H209       -6.9334  -26.1896  -49.0285 H         1 UNK         0.0600 
    210 H210       -3.1696  -24.3106  -48.8967 H         1 UNK         0.3000 
    211 H211       -3.5684  -23.7216  -51.6708 H         1 UNK         0.0600 
    212 H212       -1.1458  -23.2709  -49.8562 H         1 UNK         0.0600 
    213 H213       -1.1350  -23.1424  -51.6086 H         1 UNK         0.0600 
    214 H214       -1.4621  -24.6908  -50.8463 H         1 UNK         0.0600 
    215 H215       -3.8162  -21.7172  -48.8333 H         1 UNK         0.3000 
    216 H216       -3.5624  -19.1423  -50.0415 H         1 UNK         0.0600 
    217 H217       -4.9131  -18.4300  -48.0298 H         1 UNK         0.0600 
    218 H218       -3.5928  -19.4958  -47.5757 H         1 UNK         0.0600 
    219 H219       -5.2379  -20.1179  -47.6590 H         1 UNK         0.0600 
    220 H220       -6.0419  -21.5585  -50.4774 H         1 UNK         0.3000 
    221 H221       -8.0009  -19.5949  -51.5326 H         1 UNK         0.0600 
    222 H222       -8.2007  -22.6298  -51.1847 H         1 UNK         0.0600 
    223 H223       -8.7707  -21.4412  -50.0132 H         1 UNK         0.0600 
    224 H224       -9.5057  -21.5312  -51.6054 H         1 UNK         0.0600 
    225 H225       -5.2639  -21.1827  -52.7416 H         1 UNK         0.3000 
    226 H226       -6.3464  -22.0678  -55.3012 H         1 UNK         0.0600 
    227 H227       -4.0180  -22.6441  -55.7946 H         1 UNK         0.0600 
    228 H228       -3.4279  -21.7007  -54.4379 H         1 UNK         0.0600 
    229 H229       -4.3661  -23.1682  -54.1553 H         1 UNK         0.0600 
    230 H230       -5.6909  -21.1931  -57.3569 H         1 UNK         0.3000 
    231 H231       -5.7052  -18.3067  -57.5457 H         1 UNK         0.0600 
    232 H232       -5.3098  -20.4742  -59.6793 H         1 UNK         0.0600 
    233 H233       -5.6083  -18.7690  -59.9938 H         1 UNK         0.0600 
    234 H234       -6.8473  -19.7423  -59.2182 H         1 UNK         0.0600 
    235 H235       -3.2224  -20.8072  -57.6491 H         1 UNK         0.3000 
    236 H236       -1.0694  -19.0630  -58.6035 H         1 UNK         0.0600 
    237 H237       -1.1458  -21.4519  -59.2667 H         1 UNK         0.0600 
    238 H238        0.2924  -21.1271  -58.3132 H         1 UNK         0.0600 
    239 H239       -1.0775  -21.9519  -57.5772 H         1 UNK         0.0600 
    240 H240       -1.8857  -17.6144  -56.7226 H         1 UNK         0.3000 
    241 H241       -1.4568  -16.4629  -54.9329 H         1 UNK         0.0600 
    242 H242       -2.2335  -19.8993  -52.7375 H         1 UNK         0.3800 
    243 H243       -1.0832  -19.9528  -54.0662 H         1 UNK         0.3800 
    244 H244        0.8926  -18.0837  -53.8943 H         1 UNK         0.0800 
    245 H245        1.0747  -17.2710  -55.4143 H         1 UNK         0.0800 
    246 H246        2.5803  -16.7533  -52.4080 H         1 UNK         0.0800 
    247 H247        2.0818  -15.2564  -51.6587 H         1 UNK         0.0800 
@<TRIPOS>BOND
     1    1    2 1    
     2    1  127 1    
     3    1  128 1    
     4    1  129 1    
     5    2    3 2    
     6    2    4 am   BACKBONE|DICT|INTERRES
     7    4    5 1    
     8    4  130 1    
     9    5    6 1    
    10    5   65 1    
    11    5  131 1    
    12    6    7 1    
    13    6  132 1    
    14    6  133 1    
    15    7    8 1    
    16    8    9 1    
    17    8  134 1    
    18    8  135 1    
    19    9   10 ar   
    20    9   14 ar   
    21   10   11 ar   
    22   10  136 1    
    23   11   12 ar   
    24   11  126 1    
    25   12   13 ar   
    26   12  137 1    
    27   13   14 ar   
    28   13   15 1    
    29   14  138 1    
    30   15   16 1    
    31   15  139 1    
    32   15  140 1    
    33   16   17 1    
    34   17   18 1    
    35   17  141 1    
    36   17  142 1    
    37   18   19 1    
    38   18   67 1    
    39   18  143 1    
    40   19   20 am   BACKBONE|DICT|INTERRES
    41   19  144 1    
    42   20   21 2    
    43   20   22 1    
    44   22   23 1    
    45   22   24 1    
    46   22  145 1    
    47   23  146 1    
    48   23  147 1    
    49   23  148 1    
    50   24   25 am   BACKBONE|DICT|INTERRES
    51   24  149 1    
    52   25   26 2    
    53   25   27 1    
    54   27   28 1    
    55   27   29 1    
    56   27  150 1    
    57   28  151 1    
    58   28  152 1    
    59   28  153 1    
    60   29   30 am   BACKBONE|DICT|INTERRES
    61   29  154 1    
    62   30   31 2    
    63   30   32 1    
    64   32   33 1    
    65   32   34 1    
    66   32  155 1    
    67   33  156 1    
    68   33  157 1    
    69   33  158 1    
    70   34   35 am   BACKBONE|DICT|INTERRES
    71   34  159 1    
    72   35   36 2    
    73   35   37 1    
    74   37   38 1    
    75   37   39 1    
    76   37  160 1    
    77   38  161 1    
    78   38  162 1    
    79   38  163 1    
    80   39   40 am   BACKBONE|DICT|INTERRES
    81   39  164 1    
    82   40   41 2    
    83   40   42 1    
    84   42   43 1    
    85   42   44 1    
    86   42  165 1    
    87   43  166 1    
    88   43  167 1    
    89   43  168 1    
    90   44   45 am   BACKBONE|DICT|INTERRES
    91   44  169 1    
    92   45   46 2    
    93   45   47 1    
    94   47   48 1    
    95   47   49 1    
    96   47  170 1    
    97   48  171 1    
    98   48  172 1    
    99   48  173 1    
   100   49   50 am   BACKBONE|DICT|INTERRES
   101   49  174 1    
   102   50   51 2    
   103   50   52 1    
   104   52   53 1    
   105   52   54 1    
   106   52  175 1    
   107   53  176 1    
   108   53  177 1    
   109   53  178 1    
   110   54   55 am   BACKBONE|DICT|INTERRES
   111   54  179 1    
   112   55   56 2    
   113   55   57 1    
   114   57   58 1    
   115   57   59 1    
   116   57  180 1    
   117   58  181 1    
   118   58  182 1    
   119   58  183 1    
   120   59   60 am   BACKBONE|DICT|INTERRES
   121   59  184 1    
   122   60   61 2    
   123   60   62 1    
   124   62   63 1    
   125   62   64 1    
   126   62  185 1    
   127   63  186 1    
   128   63  187 1    
   129   63  188 1    
   130   64   65 am   BACKBONE|DICT|INTERRES
   131   64  189 1    
   132   65   66 2    
   133   67   68 2    
   134   67   69 am   BACKBONE|DICT|INTERRES
   135   69   70 1    
   136   69  190 1    
   137   70   71 1    
   138   70   72 1    
   139   70  191 1    
   140   71  192 1    
   141   71  193 1    
   142   71  194 1    
   143   72   73 2    
   144   72   74 am   BACKBONE|DICT|INTERRES
   145   74   75 1    
   146   74  195 1    
   147   75   76 1    
   148   75   77 1    
   149   75  196 1    
   150   76  197 1    
   151   76  198 1    
   152   76  199 1    
   153   77   78 2    
   154   77   79 am   BACKBONE|DICT|INTERRES
   155   79   80 1    
   156   79  200 1    
   157   80   81 1    
   158   80   82 1    
   159   80  201 1    
   160   81  202 1    
   161   81  203 1    
   162   81  204 1    
   163   82   83 2    
   164   82   84 am   BACKBONE|DICT|INTERRES
   165   84   85 1    
   166   84  205 1    
   167   85   86 1    
   168   85   87 1    
   169   85  206 1    
   170   86  207 1    
   171   86  208 1    
   172   86  209 1    
   173   87   88 2    
   174   87   89 am   BACKBONE|DICT|INTERRES
   175   89   90 1    
   176   89  210 1    
   177   90   91 1    
   178   90   92 1    
   179   90  211 1    
   180   91  212 1    
   181   91  213 1    
   182   91  214 1    
   183   92   93 2    
   184   92   94 am   BACKBONE|DICT|INTERRES
   185   94   95 1    
   186   94  215 1    
   187   95   96 1    
   188   95   97 1    
   189   95  216 1    
   190   96  217 1    
   191   96  218 1    
   192   96  219 1    
   193   97   98 2    
   194   97   99 am   BACKBONE|DICT|INTERRES
   195   99  100 1    
   196   99  220 1    
   197  100  101 1    
   198  100  102 1    
   199  100  221 1    
   200  101  222 1    
   201  101  223 1    
   202  101  224 1    
   203  102  103 2    
   204  102  104 am   BACKBONE|DICT|INTERRES
   205  104  105 1    
   206  104  225 1    
   207  105  106 1    
   208  105  107 1    
   209  105  226 1    
   210  106  227 1    
   211  106  228 1    
   212  106  229 1    
   213  107  108 2    
   214  107  109 am   BACKBONE|DICT|INTERRES
   215  109  110 1    
   216  109  230 1    
   217  110  111 1    
   218  110  112 1    
   219  110  231 1    
   220  111  232 1    
   221  111  233 1    
   222  111  234 1    
   223  112  113 2    
   224  112  114 am   BACKBONE|DICT|INTERRES
   225  114  115 1    
   226  114  235 1    
   227  115  116 1    
   228  115  117 1    
   229  115  236 1    
   230  116  237 1    
   231  116  238 1    
   232  116  239 1    
   233  117  118 2    
   234  117  119 am   BACKBONE|DICT|INTERRES
   235  119  120 1    
   236  119  240 1    
   237  120  121 1    
   238  120  124 1    
   239  120  241 1    
   240  121  122 am   BACKBONE|DICT|INTERRES
   241  121  123 2    
   242  122  242 1    
   243  122  243 1    
   244  124  125 1    
   245  124  244 1    
   246  124  245 1    
   247  125  126 1    
   248  126  246 1    
   249  126  247 1    
@<TRIPOS>SUBSTRUCTURE
     1 UNK         1 GROUP             0       ****    0 ROOT    
