@<TRIPOS>MOLECULE
3R540
247   249    1
SMALL
USER_CHARGES


@<TRIPOS>ATOM
      1 CA          7.0326  -14.3338  -48.0509 C.3       0 UNK        -0.1800 
      2 C           5.5662  -13.9980  -47.8255 C.2       0 UNK         0.5000 
      3 O           5.1022  -14.0025  -46.6862 O.2       0 UNK        -0.5000 
      4 N           4.8332  -13.6852  -48.9026 N.am      1 UNK        -0.5000 
      5 CA          3.3888  -13.3983  -48.8944 C.3       1 UNK         0.1400 
      6 C6          2.7863  -13.3770  -50.3225 C.3       23 UNK        -0.0398 
      7 S7          3.2116  -14.7943  -51.4075 S.3       23 UNK        -0.2404 
      8 C8          3.2336  -16.2679  -50.3258 C.3       23 UNK        -0.0205 
      9 C9          1.8996  -17.0028  -50.2827 C.ar      23 UNK        -0.0193 
     10 C10         0.7330  -16.3717  -49.8398 C.ar      23 UNK        -0.1150 
     11 C11        -0.4825  -17.0630  -49.7986 C.ar      23 UNK        -0.0193 
     12 C12        -0.5139  -18.4094  -50.1791 C.ar      23 UNK        -0.1150 
     13 C13         0.6514  -19.0658  -50.5966 C.ar      23 UNK        -0.0193 
     14 C14         1.8464  -18.3469  -50.6574 C.ar      23 UNK        -0.1150 
     15 C15         0.6785  -20.5452  -50.9850 C.3       23 UNK        -0.0205 
     16 S16        -0.6209  -21.5854  -50.2389 S.3       23 UNK        -0.2404 
     17 C17        -0.4941  -21.1811  -48.4612 C.3       23 UNK        -0.0398 
     18 CA         -0.3624  -22.4245  -47.5597 C.3       11 UNK         0.1400 
     19 N           0.1750  -22.0664  -46.2479 N.am      11 UNK        -0.5000 
     20 C           0.6317  -22.9392  -45.3418 C.2       10 UNK         0.5000 
     21 O           0.6303  -24.1597  -45.5091 O.2       10 UNK        -0.5000 
     22 CA          1.1250  -22.3406  -44.0126 C.3       10 UNK         0.1400 
     23 CB          2.5103  -21.6969  -44.1758 C.3       10 UNK        -0.1800 
     24 N           0.1844  -21.3514  -43.4849 N.am      10 UNK        -0.5000 
     25 C          -1.0311  -21.6581  -43.0106 C.2       9 UNK         0.5000 
     26 O          -1.4478  -22.8117  -42.9002 O.2       9 UNK        -0.5000 
     27 CA         -1.9474  -20.4823  -42.6249 C.3       9 UNK         0.1400 
     28 CB         -1.6352  -20.0026  -41.1996 C.3       9 UNK        -0.1800 
     29 N          -1.8673  -19.3531  -43.5558 N.am      9 UNK        -0.5000 
     30 C          -2.2211  -19.4074  -44.8482 C.2       8 UNK         0.5000 
     31 O          -2.6641  -20.4162  -45.3889 O.2       8 UNK        -0.5000 
     32 CA         -2.0034  -18.1474  -45.7025 C.3       8 UNK         0.1400 
     33 CB         -3.1441  -17.1413  -45.4937 C.3       8 UNK        -0.1800 
     34 N          -0.7180  -17.5018  -45.4465 N.am      8 UNK        -0.5000 
     35 C           0.4785  -18.0779  -45.6310 C.2       7 UNK         0.5000 
     36 O           0.6330  -19.2197  -46.0639 O.2       7 UNK        -0.5000 
     37 CA          1.7033  -17.2605  -45.1908 C.3       7 UNK         0.1400 
     38 CB          2.0681  -16.1977  -46.2397 C.3       7 UNK        -0.1800 
     39 N           1.4773  -16.6314  -43.8887 N.am      7 UNK        -0.5000 
     40 C           1.4042  -17.3096  -42.7335 C.2       6 UNK         0.5000 
     41 O           1.5932  -18.5233  -42.6405 O.2       6 UNK        -0.5000 
     42 CA          1.0086  -16.5072  -41.4801 C.3       6 UNK         0.1400 
     43 CB          2.2381  -15.8689  -40.8216 C.3       6 UNK        -0.1800 
     44 N           0.0142  -15.4722  -41.7686 N.am      6 UNK        -0.5000 
     45 C          -1.2683  -15.7394  -42.0533 C.2       5 UNK         0.5000 
     46 O          -1.7339  -16.8770  -42.0830 O.2       5 UNK        -0.5000 
     47 CA         -2.1805  -14.5498  -42.4029 C.3       5 UNK         0.1400 
     48 CB         -2.8163  -13.9686  -41.1317 C.3       5 UNK        -0.1800 
     49 N          -1.5039  -13.4798  -43.1349 N.am      5 UNK        -0.5000 
     50 C          -0.8766  -13.6154  -44.3108 C.2       4 UNK         0.5000 
     51 O          -0.7788  -14.6841  -44.9143 O.2       4 UNK        -0.5000 
     52 CA         -0.2278  -12.3546  -44.9088 C.3       4 UNK         0.1400 
     53 CB         -0.7901  -11.0323  -44.3419 C.3       4 UNK        -0.1800 
     54 N           1.2314  -12.3647  -44.7943 N.am      4 UNK        -0.5000 
     55 C           1.9762  -12.4864  -43.6821 C.2       3 UNK         0.5000 
     56 O           1.5132  -12.7660  -42.5748 O.2       3 UNK        -0.5000 
     57 CA          3.4971  -12.2408  -43.8158 C.3       3 UNK         0.1400 
     58 CB          4.2901  -13.5319  -43.5648 C.3       3 UNK        -0.1800 
     59 N           3.8837  -11.6899  -45.1175 N.am      3 UNK        -0.5000 
     60 C           3.6513  -10.4282  -45.5161 C.2       2 UNK         0.5000 
     61 O           3.1871   -9.5596  -44.7771 O.2       2 UNK        -0.5000 
     62 CA          3.9462  -10.0785  -46.9917 C.3       2 UNK         0.1400 
     63 CB          5.2592   -9.2890  -47.1049 C.3       2 UNK        -0.1800 
     64 N           4.0206  -11.2455  -47.8741 N.am      2 UNK        -0.5000 
     65 C           3.0261  -12.1119  -48.1194 C.2       1 UNK         0.5000 
     66 O           1.8774  -11.9593  -47.7034 O.2       1 UNK        -0.5000 
     67 C          -1.6787  -23.2288  -47.4677 C.2       11 UNK         0.5000 
     68 O          -1.9273  -24.0746  -48.3266 O.2       11 UNK        -0.5000 
     69 N          -2.4929  -22.9916  -46.4297 N.am      12 UNK        -0.5000 
     70 CA         -3.7073  -23.7503  -46.1177 C.3       12 UNK         0.1400 
     71 CB         -4.4472  -23.1056  -44.9371 C.3       12 UNK        -0.1800 
     72 C          -3.4296  -25.2375  -45.8425 C.2       12 UNK         0.5000 
     73 O          -4.2066  -26.0874  -46.2771 O.2       12 UNK        -0.5000 
     74 N          -2.3108  -25.5256  -45.1663 N.am      13 UNK        -0.5000 
     75 CA         -1.8307  -26.8854  -44.9365 C.3       13 UNK         0.1400 
     76 CB         -0.8586  -26.8890  -43.7465 C.3       13 UNK        -0.1800 
     77 C          -1.1655  -27.4796  -46.1915 C.2       13 UNK         0.5000 
     78 O          -1.3751  -28.6565  -46.4874 O.2       13 UNK        -0.5000 
     79 N          -0.3661  -26.6646  -46.8939 N.am      14 UNK        -0.5000 
     80 CA          0.4503  -27.0972  -48.0276 C.3       14 UNK         0.1400 
     81 CB          1.5617  -26.0668  -48.2784 C.3       14 UNK        -0.1800 
     82 C          -0.3425  -27.3510  -49.3233 C.2       14 UNK         0.5000 
     83 O          -0.0707  -28.3425  -50.0023 O.2       14 UNK        -0.5000 
     84 N          -1.2663  -26.4452  -49.6721 N.am      15 UNK        -0.5000 
     85 CA         -1.9020  -26.3970  -50.9931 C.3       15 UNK         0.1400 
     86 CB         -0.9948  -25.6074  -51.9595 C.3       15 UNK        -0.1800 
     87 C          -3.3303  -25.8232  -50.9566 C.2       15 UNK         0.5000 
     88 O          -3.8155  -25.3494  -51.9864 O.2       15 UNK        -0.5000 
     89 N          -3.9795  -25.8419  -49.7823 N.am      16 UNK        -0.5000 
     90 CA         -5.3268  -25.3112  -49.5271 C.3       16 UNK         0.1400 
     91 CB         -6.3922  -26.1788  -50.2301 C.3       16 UNK        -0.1800 
     92 C          -5.4541  -23.8113  -49.8745 C.2       16 UNK         0.5000 
     93 O          -6.4440  -23.3969  -50.4780 O.2       16 UNK        -0.5000 
     94 N          -4.4162  -23.0346  -49.5287 N.am      17 UNK        -0.5000 
     95 CA         -4.2422  -21.6094  -49.8359 C.3       17 UNK         0.1400 
     96 CB         -5.2896  -20.7415  -49.1108 C.3       17 UNK        -0.1800 
     97 C          -4.1516  -21.3540  -51.3553 C.2       17 UNK         0.5000 
     98 O          -4.7167  -20.3836  -51.8631 O.2       17 UNK        -0.5000 
     99 N          -3.4638  -22.2726  -52.0510 N.am      18 UNK        -0.5000 
    100 CA        -3.3151  -22.3762  -53.5050 C.3       18 UNK         0.1400 
    101 CB        -2.4529  -21.2212  -54.0480 C.3       18 UNK        -0.1800 
    102 C         -4.6854  -22.5020  -54.1994 C.2       18 UNK         0.5000 
    103 O         -4.9783  -21.7596  -55.1374 O.2       18 UNK        -0.5000 
    104 N         -5.5093  -23.4203  -53.6720 N.am      19 UNK        -0.5000 
    105 CA        -6.9238  -23.6321  -53.9964 C.3       19 UNK         0.1400 
    106 CB        -7.0826  -24.1857  -55.4279 C.3       19 UNK        -0.1800 
    107 C         -7.7802  -22.3741  -53.7258 C.2       19 UNK         0.5000 
    108 O         -8.5672  -21.9614  -54.5800 O.2       19 UNK        -0.5000 
    109 N         -7.5969  -21.7988  -52.5277 N.am      20 UNK        -0.5000 
    110 CA        -8.2563  -20.6069  -51.9861 C.3       20 UNK         0.1400 
    111 CB        -9.7279  -20.9235  -51.6487 C.3       20 UNK        -0.1800 
    112 C         -8.0922  -19.3580  -52.8774 C.2       20 UNK         0.5000 
    113 O         -9.0859  -18.7168  -53.2281 O.2       20 UNK        -0.5000 
    114 N         -6.8423  -19.0412  -53.2396 N.am      21 UNK        -0.5000 
    115 CA        -6.5165  -17.9387  -54.1477 C.3       21 UNK         0.1400 
    116 CB        -6.5747  -18.4419  -55.6013 C.3       21 UNK        -0.1800 
    117 C         -5.1659  -17.2569  -53.8664 C.2       21 UNK         0.5000 
    118 O         -4.9881  -16.1193  -54.3045 O.2       21 UNK        -0.5000 
    119 N         -4.2334  -17.9345  -53.1800 N.am      22 UNK        -0.5000 
    120 CA        -2.8496  -17.4776  -52.9258 C.3       22 UNK         0.1400 
    121 C         -1.9757  -17.2743  -54.2068 C.2       22 UNK         0.5000 
    122 N         -2.3414  -17.8316  -55.3554 N.am      22 UNK        -0.7600 
    123 O         -0.9316  -16.6302  -54.1622 O.2       22 UNK        -0.5000 
    124 C124       -2.7842  -16.2682  -51.9472 C.3       23 UNK        -0.0398 
    125 S125       -3.2594  -16.7468  -50.2499 S.3       23 UNK        -0.2404 
    126 C126       -1.7406  -16.3435  -49.3141 C.3       23 UNK        -0.0205 
    127 H127        7.2439  -15.3419  -47.6947 H         1 UNK         0.0600 
    128 H128        7.6652  -13.6369  -47.5012 H         1 UNK         0.0600 
    129 H129        7.3027  -14.2814  -49.1058 H         1 UNK         0.0600 
    130 H130        5.2669  -13.6935  -49.8154 H         1 UNK         0.3000 
    131 H131        2.9004  -14.1994  -48.3380 H         1 UNK         0.0600 
    132 H132        3.1084  -12.4749  -50.8458 H         1 UNK         0.0800 
    133 H133        1.6984  -13.3111  -50.2695 H         1 UNK         0.0800 
    134 H134        4.0039  -16.9312  -50.7218 H         1 UNK         0.0800 
    135 H135        3.5570  -16.0442  -49.3126 H         1 UNK         0.0800 
    136 H136        0.7704  -15.3386  -49.5283 H         1 UNK         0.1150 
    137 H137       -1.4501  -18.9458  -50.1384 H         1 UNK         0.1150 
    138 H138        2.7476  -18.8455  -50.9861 H         1 UNK         0.1150 
    139 H139        0.6007  -20.6197  -52.0701 H         1 UNK         0.0800 
    140 H140        1.6430  -20.9777  -50.7141 H         1 UNK         0.0800 
    141 H141       -1.3432  -20.5652  -48.1608 H         1 UNK         0.0800 
    142 H142        0.3876  -20.5542  -48.3253 H         1 UNK         0.0800 
    143 H143        0.3771  -23.0799  -48.0202 H         1 UNK         0.0600 
    144 H144        0.2341  -21.0718  -46.0420 H         1 UNK         0.3000 
    145 H145        1.2116  -23.1548  -43.2900 H         1 UNK         0.0600 
    146 H146        2.8859  -21.3269  -43.2216 H         1 UNK         0.0600 
    147 H147        3.2343  -22.4199  -44.5535 H         1 UNK         0.0600 
    148 H148        2.4892  -20.8577  -44.8717 H         1 UNK         0.0600 
    149 H149        0.4643  -20.3795  -43.5276 H         1 UNK         0.3000 
    150 H150       -2.9754  -20.8503  -42.6403 H         1 UNK         0.0600 
    151 H151       -1.6754  -20.8296  -40.4896 H         1 UNK         0.0600 
    152 H152       -2.3578  -19.2570  -40.8684 H         1 UNK         0.0600 
    153 H153       -0.6411  -19.5591  -41.1335 H         1 UNK         0.0600 
    154 H154       -1.5746  -18.4631  -43.1626 H         1 UNK         0.3000 
    155 H155       -2.0100  -18.4565  -46.7496 H         1 UNK         0.0600 
    156 H156       -3.2184  -16.8296  -44.4524 H         1 UNK         0.0600 
    157 H157       -3.0041  -16.2469  -46.1008 H         1 UNK         0.0600 
    158 H158       -4.1031  -17.5789  -45.7735 H         1 UNK         0.0600 
    159 H159       -0.7473  -16.5393  -45.1184 H         1 UNK         0.3000 
    160 H160        2.5479  -17.9469  -45.0994 H         1 UNK         0.0600 
    161 H161        1.2740  -15.4640  -46.3778 H         1 UNK         0.0600 
    162 H162        2.2542  -16.6625  -47.2082 H         1 UNK         0.0600 
    163 H163        2.9746  -15.6619  -45.9605 H         1 UNK         0.0600 
    164 H164        1.2354  -15.6512  -43.8916 H         1 UNK         0.3000 
    165 H165        0.5750  -17.2096  -40.7647 H         1 UNK         0.0600 
    166 H166        1.9751  -15.3895  -39.8786 H         1 UNK         0.0600 
    167 H167        3.0017  -16.6173  -40.6059 H         1 UNK         0.0600 
    168 H168        2.6864  -15.1147  -41.4652 H         1 UNK         0.0600 
    169 H169        0.3386  -14.5126  -41.8050 H         1 UNK         0.3000 
    170 H170       -2.9819  -14.9253  -43.0412 H         1 UNK         0.0600 
    171 H171       -2.0657  -13.5403  -40.4661 H         1 UNK         0.0600 
    172 H172       -3.5378  -13.1876  -41.3722 H         1 UNK         0.0600 
    173 H173       -3.3486  -14.7400  -40.5735 H         1 UNK         0.0600 
    174 H174       -1.4986  -12.5700  -42.6978 H         1 UNK         0.3000 
    175 H175       -0.4530  -12.3763  -45.9762 H         1 UNK         0.0600 
    176 H176       -0.3880  -10.1782  -44.8871 H         1 UNK         0.0600 
    177 H177       -0.5412  -10.8926  -43.2893 H         1 UNK         0.0600 
    178 H178       -1.8759  -10.9909  -44.4388 H         1 UNK         0.0600 
    179 H179        1.7142  -12.1854  -45.6674 H         1 UNK         0.3000 
    180 H180        3.7788  -11.5189  -43.0466 H         1 UNK         0.0600 
    181 H181        3.9361  -14.3537  -44.1875 H         1 UNK         0.0600 
    182 H182        4.2053  -13.8416  -42.5244 H         1 UNK         0.0600 
    183 H183        5.3521  -13.3919  -43.7680 H         1 UNK         0.0600 
    184 H184        4.2863  -12.3501  -45.7753 H         1 UNK         0.3000 
    185 H185        3.1304   -9.4447  -47.3451 H         1 UNK         0.0600 
    186 H186        5.2314   -8.3920  -46.4846 H         1 UNK         0.0600 
    187 H187        6.1148   -9.8843  -46.7832 H         1 UNK         0.0600 
    188 H188        5.4395   -8.9668  -48.1306 H         1 UNK         0.0600 
    189 H189        4.9323  -11.4651  -48.2481 H         1 UNK         0.3000 
    190 H190       -2.2956  -22.1963  -45.8273 H         1 UNK         0.3000 
    191 H191       -4.3701  -23.6970  -46.9791 H         1 UNK         0.0600 
    192 H192       -4.7564  -22.0878  -45.1746 H         1 UNK         0.0600 
    193 H193       -5.3493  -23.6658  -44.6883 H         1 UNK         0.0600 
    194 H194       -3.8273  -23.0690  -44.0420 H         1 UNK         0.0600 
    195 H195       -1.7167  -24.7683  -44.8556 H         1 UNK         0.3000 
    196 H196       -2.6809  -27.5193  -44.6750 H         1 UNK         0.0600 
    197 H197       -0.5094  -27.8998  -43.5321 H         1 UNK         0.0600 
    198 H198       -1.3404  -26.5127  -42.8439 H         1 UNK         0.0600 
    199 H199        0.0202  -26.2724  -43.9372 H         1 UNK         0.0600 
    200 H200       -0.2087  -25.7241  -46.5487 H         1 UNK         0.3000 
    201 H201        0.9332  -28.0366  -47.7493 H         1 UNK         0.0600 
    202 H202        2.1455  -25.8832  -47.3761 H         1 UNK         0.0600 
    203 H203        1.1575  -25.1145  -48.6185 H         1 UNK         0.0600 
    204 H204        2.2513  -26.4190  -49.0465 H         1 UNK         0.0600 
    205 H205       -1.4334  -25.6407  -49.0692 H         1 UNK         0.3000 
    206 H206       -2.0108  -27.4125  -51.3788 H         1 UNK         0.0600 
    207 H207       -0.0025  -26.0535  -52.0262 H         1 UNK         0.0600 
    208 H208       -1.4048  -25.5926  -52.9700 H         1 UNK         0.0600 
    209 H209       -0.8742  -24.5728  -51.6357 H         1 UNK         0.0600 
    210 H210       -3.5043  -26.2381  -48.9831 H         1 UNK         0.3000 
    211 H211       -5.5014  -25.3901  -48.4548 H         1 UNK         0.0600 
    212 H212       -6.3211  -26.1121  -51.3161 H         1 UNK         0.0600 
    213 H213       -7.3985  -25.8654  -49.9497 H         1 UNK         0.0600 
    214 H214       -6.2913  -27.2277  -49.9516 H         1 UNK         0.0600 
    215 H215       -3.6180  -23.4868  -49.0920 H         1 UNK         0.3000 
    216 H216       -3.2786  -21.3211  -49.4246 H         1 UNK         0.0600 
    217 H217       -5.1322  -19.6817  -49.3159 H         1 UNK         0.0600 
    218 H218       -5.2204  -20.8738  -48.0308 H         1 UNK         0.0600 
    219 H219       -6.3067  -20.9878  -49.4090 H         1 UNK         0.0600 
    220 H220       -3.0787  -23.0483  -51.5321 H         1 UNK         0.3000 
    221 H221       -2.7804  -23.3072  -53.6985 H         1 UNK         0.0600 
    222 H222       -2.9615  -20.2651  -53.9510 H         1 UNK         0.0600 
    223 H223       -1.5032  -21.1523  -53.5179 H         1 UNK         0.0600 
    224 H224       -2.2284  -21.3652  -55.1053 H         1 UNK         0.0600 
    225 H225       -5.1428  -23.9900  -52.9163 H         1 UNK         0.3000 
    226 H226       -7.2820  -24.3980  -53.3069 H         1 UNK         0.0600 
    227 H227       -6.4800  -25.0824  -55.5722 H         1 UNK         0.0600 
    228 H228       -8.1200  -24.4566  -55.6272 H         1 UNK         0.0600 
    229 H229       -6.7855  -23.4566  -56.1822 H         1 UNK         0.0600 
    230 H230       -6.9649  -22.2656  -51.8815 H         1 UNK         0.3000 
    231 H231       -7.7517  -20.3727  -51.0498 H         1 UNK         0.0600 
    232 H232      -10.3083  -21.1529  -52.5429 H         1 UNK         0.0600 
    233 H233      -10.2070  -20.0777  -51.1541 H         1 UNK         0.0600 
    234 H234       -9.8010  -21.7764  -50.9738 H         1 UNK         0.0600 
    235 H235       -6.0747  -19.6049  -52.8838 H         1 UNK         0.3000 
    236 H236       -7.2653  -17.1521  -54.0324 H         1 UNK         0.0600 
    237 H237       -7.5661  -18.8212  -55.8498 H         1 UNK         0.0600 
    238 H238       -6.3484  -17.6407  -56.3060 H         1 UNK         0.0600 
    239 H239       -5.8582  -19.2453  -55.7738 H         1 UNK         0.0600 
    240 H240       -4.4525  -18.8519  -52.8018 H         1 UNK         0.3000 
    241 H241       -2.3647  -18.3178  -52.4284 H         1 UNK         0.0600 
    242 H242       -3.1900  -18.3689  -55.4203 H         1 UNK         0.3800 
    243 H243       -1.7652  -17.7013  -56.1717 H         1 UNK         0.3800 
    244 H244       -1.7810  -15.8420  -51.9128 H         1 UNK         0.0800 
    245 H245       -3.4314  -15.4571  -52.2804 H         1 UNK         0.0800 
    246 H246       -1.8976  -16.5919  -48.2657 H         1 UNK         0.0800 
    247 H247       -1.5967  -15.2625  -49.3518 H         1 UNK         0.0800 
@<TRIPOS>BOND
     1    1    2 1    
     2    1  127 1    
     3    1  128 1    
     4    1  129 1    
     5    2    3 2    
     6    2    4 am   BACKBONE|DICT|INTERRES
     7    4    5 1    
     8    4  130 1    
     9    5    6 1    
    10    5   65 1    
    11    5  131 1    
    12    6    7 1    
    13    6  132 1    
    14    6  133 1    
    15    7    8 1    
    16    8    9 1    
    17    8  134 1    
    18    8  135 1    
    19    9   10 ar   
    20    9   14 ar   
    21   10   11 ar   
    22   10  136 1    
    23   11   12 ar   
    24   11  126 1    
    25   12   13 ar   
    26   12  137 1    
    27   13   14 ar   
    28   13   15 1    
    29   14  138 1    
    30   15   16 1    
    31   15  139 1    
    32   15  140 1    
    33   16   17 1    
    34   17   18 1    
    35   17  141 1    
    36   17  142 1    
    37   18   19 1    
    38   18   67 1    
    39   18  143 1    
    40   19   20 am   BACKBONE|DICT|INTERRES
    41   19  144 1    
    42   20   21 2    
    43   20   22 1    
    44   22   23 1    
    45   22   24 1    
    46   22  145 1    
    47   23  146 1    
    48   23  147 1    
    49   23  148 1    
    50   24   25 am   BACKBONE|DICT|INTERRES
    51   24  149 1    
    52   25   26 2    
    53   25   27 1    
    54   27   28 1    
    55   27   29 1    
    56   27  150 1    
    57   28  151 1    
    58   28  152 1    
    59   28  153 1    
    60   29   30 am   BACKBONE|DICT|INTERRES
    61   29  154 1    
    62   30   31 2    
    63   30   32 1    
    64   32   33 1    
    65   32   34 1    
    66   32  155 1    
    67   33  156 1    
    68   33  157 1    
    69   33  158 1    
    70   34   35 am   BACKBONE|DICT|INTERRES
    71   34  159 1    
    72   35   36 2    
    73   35   37 1    
    74   37   38 1    
    75   37   39 1    
    76   37  160 1    
    77   38  161 1    
    78   38  162 1    
    79   38  163 1    
    80   39   40 am   BACKBONE|DICT|INTERRES
    81   39  164 1    
    82   40   41 2    
    83   40   42 1    
    84   42   43 1    
    85   42   44 1    
    86   42  165 1    
    87   43  166 1    
    88   43  167 1    
    89   43  168 1    
    90   44   45 am   BACKBONE|DICT|INTERRES
    91   44  169 1    
    92   45   46 2    
    93   45   47 1    
    94   47   48 1    
    95   47   49 1    
    96   47  170 1    
    97   48  171 1    
    98   48  172 1    
    99   48  173 1    
   100   49   50 am   BACKBONE|DICT|INTERRES
   101   49  174 1    
   102   50   51 2    
   103   50   52 1    
   104   52   53 1    
   105   52   54 1    
   106   52  175 1    
   107   53  176 1    
   108   53  177 1    
   109   53  178 1    
   110   54   55 am   BACKBONE|DICT|INTERRES
   111   54  179 1    
   112   55   56 2    
   113   55   57 1    
   114   57   58 1    
   115   57   59 1    
   116   57  180 1    
   117   58  181 1    
   118   58  182 1    
   119   58  183 1    
   120   59   60 am   BACKBONE|DICT|INTERRES
   121   59  184 1    
   122   60   61 2    
   123   60   62 1    
   124   62   63 1    
   125   62   64 1    
   126   62  185 1    
   127   63  186 1    
   128   63  187 1    
   129   63  188 1    
   130   64   65 am   BACKBONE|DICT|INTERRES
   131   64  189 1    
   132   65   66 2    
   133   67   68 2    
   134   67   69 am   BACKBONE|DICT|INTERRES
   135   69   70 1    
   136   69  190 1    
   137   70   71 1    
   138   70   72 1    
   139   70  191 1    
   140   71  192 1    
   141   71  193 1    
   142   71  194 1    
   143   72   73 2    
   144   72   74 am   BACKBONE|DICT|INTERRES
   145   74   75 1    
   146   74  195 1    
   147   75   76 1    
   148   75   77 1    
   149   75  196 1    
   150   76  197 1    
   151   76  198 1    
   152   76  199 1    
   153   77   78 2    
   154   77   79 am   BACKBONE|DICT|INTERRES
   155   79   80 1    
   156   79  200 1    
   157   80   81 1    
   158   80   82 1    
   159   80  201 1    
   160   81  202 1    
   161   81  203 1    
   162   81  204 1    
   163   82   83 2    
   164   82   84 am   BACKBONE|DICT|INTERRES
   165   84   85 1    
   166   84  205 1    
   167   85   86 1    
   168   85   87 1    
   169   85  206 1    
   170   86  207 1    
   171   86  208 1    
   172   86  209 1    
   173   87   88 2    
   174   87   89 am   BACKBONE|DICT|INTERRES
   175   89   90 1    
   176   89  210 1    
   177   90   91 1    
   178   90   92 1    
   179   90  211 1    
   180   91  212 1    
   181   91  213 1    
   182   91  214 1    
   183   92   93 2    
   184   92   94 am   BACKBONE|DICT|INTERRES
   185   94   95 1    
   186   94  215 1    
   187   95   96 1    
   188   95   97 1    
   189   95  216 1    
   190   96  217 1    
   191   96  218 1    
   192   96  219 1    
   193   97   98 2    
   194   97   99 am   BACKBONE|DICT|INTERRES
   195   99  100 1    
   196   99  220 1    
   197  100  101 1    
   198  100  102 1    
   199  100  221 1    
   200  101  222 1    
   201  101  223 1    
   202  101  224 1    
   203  102  103 2    
   204  102  104 am   BACKBONE|DICT|INTERRES
   205  104  105 1    
   206  104  225 1    
   207  105  106 1    
   208  105  107 1    
   209  105  226 1    
   210  106  227 1    
   211  106  228 1    
   212  106  229 1    
   213  107  108 2    
   214  107  109 am   BACKBONE|DICT|INTERRES
   215  109  110 1    
   216  109  230 1    
   217  110  111 1    
   218  110  112 1    
   219  110  231 1    
   220  111  232 1    
   221  111  233 1    
   222  111  234 1    
   223  112  113 2    
   224  112  114 am   BACKBONE|DICT|INTERRES
   225  114  115 1    
   226  114  235 1    
   227  115  116 1    
   228  115  117 1    
   229  115  236 1    
   230  116  237 1    
   231  116  238 1    
   232  116  239 1    
   233  117  118 2    
   234  117  119 am   BACKBONE|DICT|INTERRES
   235  119  120 1    
   236  119  240 1    
   237  120  121 1    
   238  120  124 1    
   239  120  241 1    
   240  121  122 am   BACKBONE|DICT|INTERRES
   241  121  123 2    
   242  122  242 1    
   243  122  243 1    
   244  124  125 1    
   245  124  244 1    
   246  124  245 1    
   247  125  126 1    
   248  126  246 1    
   249  126  247 1    
@<TRIPOS>SUBSTRUCTURE
     1 UNK         1 GROUP             0       ****    0 ROOT    
