@<TRIPOS>MOLECULE
3R540
247   249    1
SMALL
USER_CHARGES


@<TRIPOS>ATOM
      1 CA         -1.1966  -14.6666  -49.9870 C.3       0 UNK        -0.1800 
      2 C          -0.2983  -14.5995  -48.7628 C.2       0 UNK         0.5000 
      3 O          -0.6139  -13.8875  -47.8101 O.2       0 UNK        -0.5000 
      4 N           0.8133  -15.3471  -48.7764 N.am      1 UNK        -0.5000 
      5 CA          1.8626  -15.3664  -47.7452 C.3       1 UNK         0.1400 
      6 C6          3.0478  -16.3079  -48.0973 C.3       23 UNK        -0.0398 
      7 S7          3.5332  -16.2385  -49.8614 S.3       23 UNK        -0.2404 
      8 C8          3.6811  -17.9997  -50.3398 C.3       23 UNK        -0.0205 
      9 C9          2.5505  -18.9002  -49.8462 C.ar      23 UNK        -0.0193 
     10 C10         1.2077  -18.5285  -49.9885 C.ar      23 UNK        -0.1150 
     11 C11         0.1897  -19.3393  -49.4790 C.ar      23 UNK        -0.0193 
     12 C12         0.5204  -20.5553  -48.8781 C.ar      23 UNK        -0.1150 
     13 C13         1.8513  -20.9641  -48.7700 C.ar      23 UNK        -0.0193 
     14 C14         2.8622  -20.1217  -49.2384 C.ar      23 UNK        -0.1150 
     15 C15         2.1891  -22.3475  -48.2301 C.3       23 UNK        -0.0205 
     16 S16         2.6896  -22.3705  -46.4776 S.3       23 UNK        -0.2404 
     17 C17         1.2407  -21.7266  -45.5737 C.3       23 UNK        -0.0398 
     18 CA          0.1313  -22.7772  -45.2780 C.3       11 UNK         0.1400 
     19 N          -0.4129  -22.6516  -43.9180 N.am      11 UNK        -0.5000 
     20 C          -1.2493  -23.5376  -43.3490 C.2       10 UNK         0.5000 
     21 O          -1.6303  -24.5637  -43.9133 O.2       10 UNK        -0.5000 
     22 CA         -1.7672  -23.2439  -41.9258 C.3       10 UNK         0.1400 
     23 CB         -1.0399  -24.1282  -40.9012 C.3       10 UNK        -0.1800 
     24 N          -1.6345  -21.8477  -41.5131 N.am      10 UNK        -0.5000 
     25 C          -2.3021  -20.8081  -42.0329 C.2       9 UNK         0.5000 
     26 O          -3.1484  -20.9107  -42.9206 O.2       9 UNK        -0.5000 
     27 CA         -1.9061  -19.4134  -41.5029 C.3       9 UNK         0.1400 
     28 CB         -2.8038  -19.0109  -40.3237 C.3       9 UNK        -0.1800 
     29 N          -0.4982  -19.3229  -41.0926 N.am      9 UNK        -0.5000 
     30 C           0.5419  -19.5495  -41.9058 C.2       8 UNK         0.5000 
     31 O           0.4178  -19.8717  -43.0889 O.2       8 UNK        -0.5000 
     32 CA          1.9454  -19.4877  -41.2755 C.3       8 UNK         0.1400 
     33 CB          2.2977  -20.8441  -40.6447 C.3       8 UNK        -0.1800 
     34 N           2.9684  -19.1516  -42.2669 N.am      8 UNK        -0.5000 
     35 C           3.0594  -17.9615  -42.8694 C.2       7 UNK         0.5000 
     36 O           2.3505  -16.9953  -42.5729 O.2       7 UNK        -0.5000 
     37 CA          4.1038  -17.8373  -43.9919 C.3       7 UNK         0.1400 
     38 CB          3.6652  -18.6289  -45.2364 C.3       7 UNK        -0.1800 
     39 N           4.2163  -16.4266  -44.3383 N.am      7 UNK        -0.5000 
     40 C           5.3266  -15.6828  -44.2978 C.2       6 UNK         0.5000 
     41 O           6.4620  -16.1431  -44.1748 O.2       6 UNK        -0.5000 
     42 CA          5.1219  -14.1561  -44.3629 C.3       6 UNK         0.1400 
     43 CB          5.2307  -13.6417  -45.8061 C.3       6 UNK        -0.1800 
     44 N           3.8184  -13.7746  -43.8186 N.am      6 UNK        -0.5000 
     45 C           3.5356  -13.6490  -42.5150 C.2       5 UNK         0.5000 
     46 O           4.3901  -13.6883  -41.6280 O.2       5 UNK        -0.5000 
     47 CA          2.0445  -13.4868  -42.1469 C.3       5 UNK         0.1400 
     48 CB          1.8233  -12.6775  -40.8518 C.3       5 UNK        -0.1800 
     49 N           1.2295  -12.9738  -43.2538 N.am      5 UNK        -0.5000 
     50 C           1.2557  -11.7486  -43.7995 C.2       4 UNK         0.5000 
     51 O           1.9627  -10.8270  -43.3909 O.2       4 UNK        -0.5000 
     52 CA          0.3605  -11.5149  -45.0343 C.3       4 UNK         0.1400 
     53 CB          1.2243  -11.4074  -46.3009 C.3       4 UNK        -0.1800 
     54 N          -0.6423  -12.5616  -45.2442 N.am      4 UNK        -0.5000 
     55 C          -1.7349  -12.7531  -44.4920 C.2       3 UNK         0.5000 
     56 O          -2.0453  -12.0374  -43.5395 O.2       3 UNK        -0.5000 
     57 CA         -2.6096  -13.9662  -44.8503 C.3       3 UNK         0.1400 
     58 CB         -3.6154  -13.6058  -45.9546 C.3       3 UNK        -0.1800 
     59 N          -1.7971  -15.1021  -45.2875 N.am      3 UNK        -0.5000 
     60 C          -1.2240  -15.9894  -44.4621 C.2       2 UNK         0.5000 
     61 O          -1.3501  -15.9647  -43.2383 O.2       2 UNK        -0.5000 
     62 CA         -0.3634  -17.0883  -45.1148 C.3       2 UNK         0.1400 
     63 CB         -1.2395  -18.2903  -45.5000 C.3       2 UNK        -0.1800 
     64 N           0.3431  -16.6346  -46.3113 N.am      2 UNK        -0.5000 
     65 C           1.3169  -15.7150  -46.3461 C.2       1 UNK         0.5000 
     66 O           1.7646  -15.1395  -45.3544 O.2       1 UNK        -0.5000 
     67 C          -0.9840  -22.7203  -46.3432 C.2       11 UNK         0.5000 
     68 O          -0.8824  -23.3979  -47.3645 O.2       11 UNK        -0.5000 
     69 N          -2.0474  -21.9423  -46.0789 N.am      12 UNK        -0.5000 
     70 CA         -3.1716  -21.6988  -46.9898 C.3       12 UNK         0.1400 
     71 CB         -4.1681  -20.7392  -46.3241 C.3       12 UNK        -0.1800 
     72 C          -3.8955  -22.9671  -47.4831 C.2       12 UNK         0.5000 
     73 O          -4.4364  -22.9611  -48.5882 O.2       12 UNK        -0.5000 
     74 N          -3.8436  -24.0459  -46.6894 N.am      13 UNK        -0.5000 
     75 CA         -4.3619  -25.3709  -47.0326 C.3       13 UNK         0.1400 
     76 CB         -4.2501  -26.2785  -45.7981 C.3       13 UNK        -0.1800 
     77 C          -3.6680  -26.0246  -48.2475 C.2       13 UNK         0.5000 
     78 O          -4.2656  -26.8987  -48.8766 O.2       13 UNK        -0.5000 
     79 N          -2.4366  -25.5974  -48.5668 N.am      14 UNK        -0.5000 
     80 CA         -1.6787  -26.0649  -49.7280 C.3       14 UNK         0.1400 
     81 CB         -0.1861  -25.7722  -49.5070 C.3       14 UNK        -0.1800 
     82 C          -2.1476  -25.4344  -51.0539 C.2       14 UNK         0.5000 
     83 O          -1.8563  -25.9993  -52.1087 O.2       14 UNK        -0.5000 
     84 N          -2.8356  -24.2804  -50.9849 N.am      15 UNK        -0.5000 
     85 CA         -3.3123  -23.4688  -52.1147 C.3       15 UNK         0.1400 
     86 CB         -4.4610  -24.1894  -52.8509 C.3       15 UNK        -0.1800 
     87 C          -2.1705  -23.0277  -53.0607 C.2       15 UNK         0.5000 
     88 O          -2.3307  -23.0327  -54.2827 O.2       15 UNK        -0.5000 
     89 N          -1.0194  -22.6670  -52.4723 N.am      16 UNK        -0.5000 
     90 CA          0.2252  -22.3289  -53.1715 C.3       16 UNK         0.1400 
     91 CB          1.3500  -22.1659  -52.1410 C.3       16 UNK        -0.1800 
     92 C           0.1309  -21.0747  -54.0623 C.2       16 UNK         0.5000 
     93 O           0.8705  -20.9705  -55.0408 O.2       16 UNK        -0.5000 
     94 N          -0.7998  -20.1682  -53.7357 N.am      17 UNK        -0.5000 
     95 CA         -1.1343  -18.9765  -54.5189 C.3       17 UNK         0.1400 
     96 CB         -1.6884  -17.9025  -53.5688 C.3       17 UNK        -0.1800 
     97 C          -2.1131  -19.2661  -55.6817 C.2       17 UNK         0.5000 
     98 O          -2.6583  -18.3238  -56.2563 O.2       17 UNK        -0.5000 
     99 N          -2.3484  -20.5501  -55.9924 N.am      18 UNK        -0.5000 
    100 CA        -3.1919  -21.1235  -57.0504 C.3       18 UNK         0.1400 
    101 CB        -2.8386  -20.5651  -58.4424 C.3       18 UNK        -0.1800 
    102 C         -4.7039  -21.0430  -56.7724 C.2       18 UNK         0.5000 
    103 O         -5.4352  -21.9504  -57.1723 O.2       18 UNK        -0.5000 
    104 N         -5.1511  -19.9928  -56.0742 N.am      19 UNK        -0.5000 
    105 CA        -6.4978  -19.8738  -55.5207 C.3       19 UNK         0.1400 
    106 CB        -6.6973  -18.4423  -54.9992 C.3       19 UNK        -0.1800 
    107 C         -6.7007  -20.8879  -54.3817 C.2       19 UNK         0.5000 
    108 O         -5.7981  -21.0561  -53.5599 O.2       19 UNK        -0.5000 
    109 N         -7.8853  -21.5098  -54.3193 N.am      20 UNK        -0.5000 
    110 CA        -8.2382  -22.5306  -53.3238 C.3       20 UNK         0.1400 
    111 CB        -9.6028  -23.1366  -53.6850 C.3       20 UNK        -0.1800 
    112 C         -8.2446  -22.0115  -51.8718 C.2       20 UNK         0.5000 
    113 O         -7.9330  -22.7685  -50.9528 O.2       20 UNK        -0.5000 
    114 N         -8.5732  -20.7242  -51.7011 N.am      21 UNK        -0.5000 
    115 CA        -8.5063  -20.0032  -50.4280 C.3       21 UNK         0.1400 
    116 CB        -9.5520  -18.8765  -50.4531 C.3       21 UNK        -0.1800 
    117 C         -7.1025  -19.4301  -50.1370 C.2       21 UNK         0.5000 
    118 O         -6.8781  -18.9224  -49.0381 O.2       21 UNK        -0.5000 
    119 N         -6.1941  -19.4986  -51.1209 N.am      22 UNK        -0.5000 
    120 CA        -4.8247  -18.9625  -51.0924 C.3       22 UNK         0.1400 
    121 C         -4.7309  -17.4053  -51.0822 C.2       22 UNK         0.5000 
    122 N         -5.7813  -16.6788  -51.4448 N.am      22 UNK        -0.7600 
    123 O         -3.6891  -16.8408  -50.7685 O.2       22 UNK        -0.5000 
    124 C124       -3.9473  -19.6488  -50.0096 C.3       23 UNK        -0.0398 
    125 S125       -2.2567  -20.0292  -50.5836 S.3       23 UNK        -0.2404 
    126 C126       -1.2667  -18.9073  -49.5493 C.3       23 UNK        -0.0205 
    127 H127       -1.1575  -13.7238  -50.5319 H         1 UNK         0.0600 
    128 H128       -2.2281  -14.8408  -49.6818 H         1 UNK         0.0600 
    129 H129       -0.9034  -15.4682  -50.6653 H         1 UNK         0.0600 
    130 H130        1.0367  -15.8770  -49.6057 H         1 UNK         0.3000 
    131 H131        2.2540  -14.3492  -47.6940 H         1 UNK         0.0600 
    132 H132        2.8112  -17.3362  -47.8271 H         1 UNK         0.0800 
    133 H133        3.9222  -16.0526  -47.4979 H         1 UNK         0.0800 
    134 H134        3.7282  -18.0642  -51.4275 H         1 UNK         0.0800 
    135 H135        4.6412  -18.3642  -49.9713 H         1 UNK         0.0800 
    136 H136        0.9582  -17.6004  -50.4801 H         1 UNK         0.1150 
    137 H137       -0.2719  -21.1968  -48.5295 H         1 UNK         0.1150 
    138 H138        3.8937  -20.4323  -49.1485 H         1 UNK         0.1150 
    139 H139        1.3576  -23.0312  -48.3853 H         1 UNK         0.0800 
    140 H140        3.0086  -22.7623  -48.8187 H         1 UNK         0.0800 
    141 H141        0.8588  -20.8303  -46.0621 H         1 UNK         0.0800 
    142 H142        1.6636  -21.3739  -44.6344 H         1 UNK         0.0800 
    143 H143        0.5756  -23.7731  -45.3367 H         1 UNK         0.0600 
    144 H144       -0.1683  -21.8054  -43.4151 H         1 UNK         0.3000 
    145 H145       -2.8286  -23.4997  -41.9083 H         1 UNK         0.0600 
    146 H146       -1.4517  -23.9943  -39.9007 H         1 UNK         0.0600 
    147 H147       -1.1417  -25.1848  -41.1531 H         1 UNK         0.0600 
    148 H148        0.0264  -23.9019  -40.8599 H         1 UNK         0.0600 
    149 H149       -0.9556  -21.6570  -40.7916 H         1 UNK         0.3000 
    150 H150       -2.0639  -18.6949  -42.3088 H         1 UNK         0.0600 
    151 H151       -2.6677  -19.6737  -39.4683 H         1 UNK         0.0600 
    152 H152       -3.8572  -19.0486  -40.6046 H         1 UNK         0.0600 
    153 H153       -2.5929  -17.9921  -39.9980 H         1 UNK         0.0600 
    154 H154       -0.3255  -19.0731  -40.1294 H         1 UNK         0.3000 
    155 H155        1.9495  -18.7213  -40.4974 H         1 UNK         0.0600 
    156 H156        2.2984  -21.6450  -41.3857 H         1 UNK         0.0600 
    157 H157        1.5808  -21.1158  -39.8690 H         1 UNK         0.0600 
    158 H158        3.2825  -20.8182  -40.1779 H         1 UNK         0.0600 
    159 H159        3.5598  -19.9081  -42.5770 H         1 UNK         0.3000 
    160 H160        5.0571  -18.2241  -43.6263 H         1 UNK         0.0600 
    161 H161        3.6668  -19.7007  -45.0377 H         1 UNK         0.0600 
    162 H162        4.3411  -18.4569  -46.0741 H         1 UNK         0.0600 
    163 H163        2.6573  -18.3608  -45.5541 H         1 UNK         0.0600 
    164 H164        3.3246  -15.9423  -44.3828 H         1 UNK         0.3000 
    165 H165        5.9114  -13.6868  -43.7723 H         1 UNK         0.0600 
    166 H166        5.1925  -12.5526  -45.8361 H         1 UNK         0.0600 
    167 H167        6.1732  -13.9471  -46.2622 H         1 UNK         0.0600 
    168 H168        4.4225  -14.0180  -46.4316 H         1 UNK         0.0600 
    169 H169        3.0349  -13.8028  -44.4606 H         1 UNK         0.3000 
    170 H170        1.6743  -14.4951  -41.9598 H         1 UNK         0.0600 
    171 H171        2.2804  -13.1785  -39.9978 H         1 UNK         0.0600 
    172 H172        2.2598  -11.6806  -40.9136 H         1 UNK         0.0600 
    173 H173        0.7614  -12.5680  -40.6318 H         1 UNK         0.0600 
    174 H174        0.6478  -13.6629  -43.7110 H         1 UNK         0.3000 
    175 H175       -0.1595  -10.5659  -44.8895 H         1 UNK         0.0600 
    176 H176        1.9455  -10.5935  -46.2166 H         1 UNK         0.0600 
    177 H177        1.7849  -12.3247  -46.4811 H         1 UNK         0.0600 
    178 H178        0.6128  -11.2099  -47.1816 H         1 UNK         0.0600 
    179 H179       -0.5087  -13.1568  -46.0575 H         1 UNK         0.3000 
    180 H180       -3.1750  -14.2491  -43.9597 H         1 UNK         0.0600 
    181 H181       -3.1165  -13.3059  -46.8768 H         1 UNK         0.0600 
    182 H182       -4.2544  -12.7782  -45.6440 H         1 UNK         0.0600 
    183 H183       -4.2657  -14.4497  -46.1853 H         1 UNK         0.0600 
    184 H184       -1.5895  -15.1497  -46.2763 H         1 UNK         0.3000 
    185 H185        0.3781  -17.4158  -44.3848 H         1 UNK         0.0600 
    186 H186       -1.7386  -18.7096  -44.6270 H         1 UNK         0.0600 
    187 H187       -2.0124  -18.0091  -46.2159 H         1 UNK         0.0600 
    188 H188       -0.6454  -19.0871  -45.9444 H         1 UNK         0.0600 
    189 H189        0.0457  -17.0357  -47.1878 H         1 UNK         0.3000 
    190 H190       -2.0837  -21.4661  -45.1878 H         1 UNK         0.3000 
    191 H191       -2.7589  -21.2060  -47.8699 H         1 UNK         0.0600 
    192 H192       -3.6978  -19.7908  -46.0685 H         1 UNK         0.0600 
    193 H193       -5.0027  -20.5157  -46.9905 H         1 UNK         0.0600 
    194 H194       -4.5823  -21.1643  -45.4090 H         1 UNK         0.0600 
    195 H195       -3.3420  -23.9723  -45.8150 H         1 UNK         0.3000 
    196 H196       -5.4188  -25.2594  -47.2830 H         1 UNK         0.0600 
    197 H197       -4.6601  -27.2687  -46.0011 H         1 UNK         0.0600 
    198 H198       -4.8014  -25.8662  -44.9528 H         1 UNK         0.0600 
    199 H199       -3.2119  -26.4091  -45.4898 H         1 UNK         0.0600 
    200 H200       -2.0016  -24.8660  -48.0112 H         1 UNK         0.3000 
    201 H201       -1.8018  -27.1468  -49.8112 H         1 UNK         0.0600 
    202 H202        0.4189  -26.2179  -50.2974 H         1 UNK         0.0600 
    203 H203        0.1642  -26.1799  -48.5587 H         1 UNK         0.0600 
    204 H204        0.0167  -24.7012  -49.5090 H         1 UNK         0.0600 
    205 H205       -3.0639  -23.9191  -50.0666 H         1 UNK         0.3000 
    206 H206       -3.7245  -22.5533  -51.6878 H         1 UNK         0.0600 
    207 H207       -5.2786  -24.4210  -52.1682 H         1 UNK         0.0600 
    208 H208       -4.8708  -23.5656  -53.6455 H         1 UNK         0.0600 
    209 H209       -4.1296  -25.1210  -53.3097 H         1 UNK         0.0600 
    210 H210       -0.9791  -22.6732  -51.4638 H         1 UNK         0.3000 
    211 H211        0.4744  -23.1725  -53.8182 H         1 UNK         0.0600 
    212 H212        1.4334  -23.0390  -51.4935 H         1 UNK         0.0600 
    213 H213        1.1815  -21.2919  -51.5138 H         1 UNK         0.0600 
    214 H214        2.3140  -22.0304  -52.6327 H         1 UNK         0.0600 
    215 H215       -1.3529  -20.3328  -52.9053 H         1 UNK         0.3000 
    216 H216       -0.2191  -18.5827  -54.9653 H         1 UNK         0.0600 
    217 H217       -1.8301  -16.9528  -54.0858 H         1 UNK         0.0600 
    218 H218       -1.0096  -17.7182  -52.7356 H         1 UNK         0.0600 
    219 H219       -2.6520  -18.1958  -53.1568 H         1 UNK         0.0600 
    220 H220       -1.9296  -21.2495  -55.3902 H         1 UNK         0.3000 
    221 H221       -2.9441  -22.1862  -57.0592 H         1 UNK         0.0600 
    222 H222       -3.1127  -19.5151  -58.5453 H         1 UNK         0.0600 
    223 H223       -1.7718  -20.6574  -58.6462 H         1 UNK         0.0600 
    224 H224       -3.3673  -21.1132  -59.2231 H         1 UNK         0.0600 
    225 H225       -4.4778  -19.2839  -55.8128 H         1 UNK         0.3000 
    226 H226       -7.2223  -20.0679  -56.3142 H         1 UNK         0.0600 
    227 H227       -7.6971  -18.3114  -54.5837 H         1 UNK         0.0600 
    228 H228       -5.9795  -18.1945  -54.2158 H         1 UNK         0.0600 
    229 H229       -6.5810  -17.7122  -55.8004 H         1 UNK         0.0600 
    230 H230       -8.5811  -21.3125  -55.0245 H         1 UNK         0.3000 
    231 H231       -7.4887  -23.3226  -53.3820 H         1 UNK         0.0600 
    232 H232      -10.3930  -22.3849  -53.6748 H         1 UNK         0.0600 
    233 H233       -9.8834  -23.9174  -52.9766 H         1 UNK         0.0600 
    234 H234       -9.5832  -23.5914  -54.6756 H         1 UNK         0.0600 
    235 H235       -8.8330  -20.1857  -52.5144 H         1 UNK         0.3000 
    236 H236       -8.7579  -20.6836  -49.6117 H         1 UNK         0.0600 
    237 H237      -10.5552  -19.2739  -50.6090 H         1 UNK         0.0600 
    238 H238       -9.5645  -18.3314  -49.5083 H         1 UNK         0.0600 
    239 H239       -9.3494  -18.1552  -51.2456 H         1 UNK         0.0600 
    240 H240       -6.4308  -19.9991  -51.9693 H         1 UNK         0.3000 
    241 H241       -4.4267  -19.2477  -52.0657 H         1 UNK         0.0600 
    242 H242       -5.7061  -15.6742  -51.4418 H         1 UNK         0.3800 
    243 H243       -6.6493  -17.1171  -51.7030 H         1 UNK         0.3800 
    244 H244       -3.9321  -19.0684  -49.0859 H         1 UNK         0.0800 
    245 H245       -4.3864  -20.6081  -49.7374 H         1 UNK         0.0800 
    246 H246       -1.3561  -17.8922  -49.9374 H         1 UNK         0.0800 
    247 H247       -1.6679  -18.8912  -48.5359 H         1 UNK         0.0800 
@<TRIPOS>BOND
     1    1    2 1    
     2    1  127 1    
     3    1  128 1    
     4    1  129 1    
     5    2    3 2    
     6    2    4 am   BACKBONE|DICT|INTERRES
     7    4    5 1    
     8    4  130 1    
     9    5    6 1    
    10    5   65 1    
    11    5  131 1    
    12    6    7 1    
    13    6  132 1    
    14    6  133 1    
    15    7    8 1    
    16    8    9 1    
    17    8  134 1    
    18    8  135 1    
    19    9   10 ar   
    20    9   14 ar   
    21   10   11 ar   
    22   10  136 1    
    23   11   12 ar   
    24   11  126 1    
    25   12   13 ar   
    26   12  137 1    
    27   13   14 ar   
    28   13   15 1    
    29   14  138 1    
    30   15   16 1    
    31   15  139 1    
    32   15  140 1    
    33   16   17 1    
    34   17   18 1    
    35   17  141 1    
    36   17  142 1    
    37   18   19 1    
    38   18   67 1    
    39   18  143 1    
    40   19   20 am   BACKBONE|DICT|INTERRES
    41   19  144 1    
    42   20   21 2    
    43   20   22 1    
    44   22   23 1    
    45   22   24 1    
    46   22  145 1    
    47   23  146 1    
    48   23  147 1    
    49   23  148 1    
    50   24   25 am   BACKBONE|DICT|INTERRES
    51   24  149 1    
    52   25   26 2    
    53   25   27 1    
    54   27   28 1    
    55   27   29 1    
    56   27  150 1    
    57   28  151 1    
    58   28  152 1    
    59   28  153 1    
    60   29   30 am   BACKBONE|DICT|INTERRES
    61   29  154 1    
    62   30   31 2    
    63   30   32 1    
    64   32   33 1    
    65   32   34 1    
    66   32  155 1    
    67   33  156 1    
    68   33  157 1    
    69   33  158 1    
    70   34   35 am   BACKBONE|DICT|INTERRES
    71   34  159 1    
    72   35   36 2    
    73   35   37 1    
    74   37   38 1    
    75   37   39 1    
    76   37  160 1    
    77   38  161 1    
    78   38  162 1    
    79   38  163 1    
    80   39   40 am   BACKBONE|DICT|INTERRES
    81   39  164 1    
    82   40   41 2    
    83   40   42 1    
    84   42   43 1    
    85   42   44 1    
    86   42  165 1    
    87   43  166 1    
    88   43  167 1    
    89   43  168 1    
    90   44   45 am   BACKBONE|DICT|INTERRES
    91   44  169 1    
    92   45   46 2    
    93   45   47 1    
    94   47   48 1    
    95   47   49 1    
    96   47  170 1    
    97   48  171 1    
    98   48  172 1    
    99   48  173 1    
   100   49   50 am   BACKBONE|DICT|INTERRES
   101   49  174 1    
   102   50   51 2    
   103   50   52 1    
   104   52   53 1    
   105   52   54 1    
   106   52  175 1    
   107   53  176 1    
   108   53  177 1    
   109   53  178 1    
   110   54   55 am   BACKBONE|DICT|INTERRES
   111   54  179 1    
   112   55   56 2    
   113   55   57 1    
   114   57   58 1    
   115   57   59 1    
   116   57  180 1    
   117   58  181 1    
   118   58  182 1    
   119   58  183 1    
   120   59   60 am   BACKBONE|DICT|INTERRES
   121   59  184 1    
   122   60   61 2    
   123   60   62 1    
   124   62   63 1    
   125   62   64 1    
   126   62  185 1    
   127   63  186 1    
   128   63  187 1    
   129   63  188 1    
   130   64   65 am   BACKBONE|DICT|INTERRES
   131   64  189 1    
   132   65   66 2    
   133   67   68 2    
   134   67   69 am   BACKBONE|DICT|INTERRES
   135   69   70 1    
   136   69  190 1    
   137   70   71 1    
   138   70   72 1    
   139   70  191 1    
   140   71  192 1    
   141   71  193 1    
   142   71  194 1    
   143   72   73 2    
   144   72   74 am   BACKBONE|DICT|INTERRES
   145   74   75 1    
   146   74  195 1    
   147   75   76 1    
   148   75   77 1    
   149   75  196 1    
   150   76  197 1    
   151   76  198 1    
   152   76  199 1    
   153   77   78 2    
   154   77   79 am   BACKBONE|DICT|INTERRES
   155   79   80 1    
   156   79  200 1    
   157   80   81 1    
   158   80   82 1    
   159   80  201 1    
   160   81  202 1    
   161   81  203 1    
   162   81  204 1    
   163   82   83 2    
   164   82   84 am   BACKBONE|DICT|INTERRES
   165   84   85 1    
   166   84  205 1    
   167   85   86 1    
   168   85   87 1    
   169   85  206 1    
   170   86  207 1    
   171   86  208 1    
   172   86  209 1    
   173   87   88 2    
   174   87   89 am   BACKBONE|DICT|INTERRES
   175   89   90 1    
   176   89  210 1    
   177   90   91 1    
   178   90   92 1    
   179   90  211 1    
   180   91  212 1    
   181   91  213 1    
   182   91  214 1    
   183   92   93 2    
   184   92   94 am   BACKBONE|DICT|INTERRES
   185   94   95 1    
   186   94  215 1    
   187   95   96 1    
   188   95   97 1    
   189   95  216 1    
   190   96  217 1    
   191   96  218 1    
   192   96  219 1    
   193   97   98 2    
   194   97   99 am   BACKBONE|DICT|INTERRES
   195   99  100 1    
   196   99  220 1    
   197  100  101 1    
   198  100  102 1    
   199  100  221 1    
   200  101  222 1    
   201  101  223 1    
   202  101  224 1    
   203  102  103 2    
   204  102  104 am   BACKBONE|DICT|INTERRES
   205  104  105 1    
   206  104  225 1    
   207  105  106 1    
   208  105  107 1    
   209  105  226 1    
   210  106  227 1    
   211  106  228 1    
   212  106  229 1    
   213  107  108 2    
   214  107  109 am   BACKBONE|DICT|INTERRES
   215  109  110 1    
   216  109  230 1    
   217  110  111 1    
   218  110  112 1    
   219  110  231 1    
   220  111  232 1    
   221  111  233 1    
   222  111  234 1    
   223  112  113 2    
   224  112  114 am   BACKBONE|DICT|INTERRES
   225  114  115 1    
   226  114  235 1    
   227  115  116 1    
   228  115  117 1    
   229  115  236 1    
   230  116  237 1    
   231  116  238 1    
   232  116  239 1    
   233  117  118 2    
   234  117  119 am   BACKBONE|DICT|INTERRES
   235  119  120 1    
   236  119  240 1    
   237  120  121 1    
   238  120  124 1    
   239  120  241 1    
   240  121  122 am   BACKBONE|DICT|INTERRES
   241  121  123 2    
   242  122  242 1    
   243  122  243 1    
   244  124  125 1    
   245  124  244 1    
   246  124  245 1    
   247  125  126 1    
   248  126  246 1    
   249  126  247 1    
@<TRIPOS>SUBSTRUCTURE
     1 UNK         1 GROUP             0       ****    0 ROOT    
