@<TRIPOS>MOLECULE
3R540
247   249    1
SMALL
USER_CHARGES


@<TRIPOS>ATOM
      1 CA          3.6067  -16.3425  -47.0752 C.3       0 UNK        -0.1800 
      2 C           3.2158  -14.9564  -46.5838 C.2       0 UNK         0.5000 
      3 O           3.6446  -14.5396  -45.5091 O.2       0 UNK        -0.5000 
      4 N           2.4226  -14.2311  -47.3820 N.am      1 UNK        -0.5000 
      5 CA          1.8578  -12.9051  -47.0802 C.3       1 UNK         0.1400 
      6 C6          0.8910  -12.4254  -48.1917 C.3       23 UNK        -0.0398 
      7 S7         -0.4570  -13.6161  -48.4945 S.3       23 UNK        -0.2404 
      8 C8          0.0406  -14.3640  -50.0810 C.3       23 UNK        -0.0205 
      9 C9         -0.4922  -15.7834  -50.2275 C.ar      23 UNK        -0.0193 
     10 C10        -1.8677  -16.0305  -50.1614 C.ar      23 UNK        -0.1150 
     11 C11        -2.3636  -17.3293  -50.2934 C.ar      23 UNK        -0.0193 
     12 C12        -1.4723  -18.3864  -50.4868 C.ar      23 UNK        -0.1150 
     13 C13        -0.0990  -18.1552  -50.5843 C.ar      23 UNK        -0.0193 
     14 C14         0.3868  -16.8502  -50.4503 C.ar      23 UNK        -0.1150 
     15 C15         0.8401  -19.3227  -50.8655 C.3       23 UNK        -0.0205 
     16 S16         2.1174  -19.5765  -49.5888 S.3       23 UNK        -0.2404 
     17 C17         1.1582  -19.6104  -48.0397 C.3       23 UNK        -0.0398 
     18 CA          0.7153  -21.0254  -47.5870 C.3       11 UNK         0.1400 
     19 N           0.5935  -21.0968  -46.1271 N.am      11 UNK        -0.5000 
     20 C           0.3201  -22.1941  -45.4090 C.2       10 UNK         0.5000 
     21 O           0.1913  -23.3146  -45.8974 O.2       10 UNK        -0.5000 
     22 CA          0.0978  -21.9978  -43.8964 C.3       10 UNK         0.1400 
     23 CB          1.4331  -21.9481  -43.1394 C.3       10 UNK        -0.1800 
     24 N          -0.6894  -20.7992  -43.5983 N.am      10 UNK        -0.5000 
     25 C          -1.9704  -20.6347  -43.9598 C.2       9 UNK         0.5000 
     26 O          -2.6363  -21.5058  -44.5187 O.2       9 UNK        -0.5000 
     27 CA         -2.5969  -19.2504  -43.7096 C.3       9 UNK         0.1400 
     28 CB         -3.0714  -19.1120  -42.2558 C.3       9 UNK        -0.1800 
     29 N          -1.6870  -18.1534  -44.0416 N.am      9 UNK        -0.5000 
     30 C          -1.2147  -17.9086  -45.2724 C.2       8 UNK         0.5000 
     31 O          -1.5411  -18.5522  -46.2681 O.2       8 UNK        -0.5000 
     32 CA         -0.1637  -16.7925  -45.4050 C.3       8 UNK         0.1400 
     33 CB         -0.8515  -15.4225  -45.4352 C.3       8 UNK        -0.1800 
     34 N           0.8356  -16.8269  -44.3339 N.am      8 UNK        -0.5000 
     35 C           1.6591  -17.8576  -44.0929 C.2       7 UNK         0.5000 
     36 O           1.7106  -18.8630  -44.7965 O.2       7 UNK        -0.5000 
     37 CA          2.5241  -17.7932  -42.8234 C.3       7 UNK         0.1400 
     38 CB          3.8102  -16.9884  -43.0519 C.3       7 UNK        -0.1800 
     39 N           1.7818  -17.2386  -41.6945 N.am      7 UNK        -0.5000 
     40 C           0.7776  -17.8721  -41.0727 C.2       6 UNK         0.5000 
     41 O           0.4191  -19.0180  -41.3459 O.2       6 UNK        -0.5000 
     42 CA          0.0222  -17.0674  -39.9988 C.3       6 UNK         0.1400 
     43 CB          0.7436  -17.1589  -38.6460 C.3       6 UNK        -0.1800 
     44 N          -0.1342  -15.6594  -40.3712 N.am      6 UNK        -0.5000 
     45 C          -0.9012  -15.2276  -41.3831 C.2       5 UNK         0.5000 
     46 O          -1.6114  -15.9705  -42.0593 O.2       5 UNK        -0.5000 
     47 CA         -0.8217  -13.7259  -41.7256 C.3       5 UNK         0.1400 
     48 CB         -1.8496  -12.9307  -40.9075 C.3       5 UNK        -0.1800 
     49 N           0.5153  -13.1637  -41.5076 N.am      5 UNK        -0.5000 
     50 C           1.6030  -13.5112  -42.2081 C.2       4 UNK         0.5000 
     51 O           1.5784  -14.3002  -43.1532 O.2       4 UNK        -0.5000 
     52 CA          2.9410  -12.9541  -41.7061 C.3       4 UNK         0.1400 
     53 CB          3.3649  -13.7139  -40.4294 C.3       4 UNK        -0.1800 
     54 N           3.9740  -13.0831  -42.7357 N.am      4 UNK        -0.5000 
     55 C           5.1872  -12.5171  -42.6638 C.2       3 UNK         0.5000 
     56 O           5.5295  -11.7496  -41.7628 O.2       3 UNK        -0.5000 
     57 CA          6.1936  -12.8556  -43.7731 C.3       3 UNK         0.1400 
     58 CB          6.5807  -14.3440  -43.7509 C.3       3 UNK        -0.1800 
     59 N           5.6684  -12.4988  -45.0869 N.am      3 UNK        -0.5000 
     60 C           5.8993  -11.3307  -45.7036 C.2       2 UNK         0.5000 
     61 O           6.5889  -10.4303  -45.2225 O.2       2 UNK        -0.5000 
     62 CA          5.2782  -11.1255  -47.1007 C.3       2 UNK         0.1400 
     63 CB          6.3266  -11.3775  -48.1955 C.3       2 UNK        -0.1800 
     64 N           4.1221  -11.9845  -47.3514 N.am      2 UNK        -0.5000 
     65 C           2.9159  -11.8189  -46.7930 C.2       1 UNK         0.5000 
     66 O           2.6268  -10.8685  -46.0649 O.2       1 UNK        -0.5000 
     67 C          -0.5878  -21.4663  -48.2901 C.2       11 UNK         0.5000 
     68 O          -0.5446  -22.2879  -49.2059 O.2       11 UNK        -0.5000 
     69 N          -1.7268  -20.9471  -47.8119 N.am      12 UNK        -0.5000 
     70 CA         -3.0696  -21.2880  -48.2782 C.3       12 UNK         0.1400 
     71 CB         -4.0829  -20.3465  -47.6115 C.3       12 UNK        -0.1800 
     72 C          -3.4457  -22.7579  -48.0179 C.2       12 UNK         0.5000 
     73 O          -4.0708  -23.3838  -48.8754 O.2       12 UNK        -0.5000 
     74 N          -3.0542  -23.2814  -46.8481 N.am      13 UNK        -0.5000 
     75 CA         -3.2617  -24.6726  -46.4444 C.3       13 UNK         0.1400 
     76 CB         -3.0336  -24.8020  -44.9311 C.3       13 UNK        -0.1800 
     77 C          -2.3710  -25.6667  -47.2134 C.2       13 UNK         0.5000 
     78 O          -2.7959  -26.7989  -47.4424 O.2       13 UNK        -0.5000 
     79 N          -1.1610  -25.2348  -47.5971 N.am      14 UNK        -0.5000 
     80 CA         -0.2248  -25.9970  -48.4274 C.3       14 UNK         0.1400 
     81 CB          1.1720  -25.3636  -48.3334 C.3       14 UNK        -0.1800 
     82 C          -0.6776  -26.1009  -49.8970 C.2       14 UNK         0.5000 
     83 O          -0.3210  -27.0667  -50.5742 O.2       14 UNK        -0.5000 
     84 N          -1.4621  -25.1171  -50.3547 N.am      15 UNK        -0.5000 
     85 CA         -2.1677  -25.1166  -51.6343 C.3       15 UNK         0.1400 
     86 CB         -2.3862  -23.6580  -52.0595 C.3       15 UNK        -0.1800 
     87 C          -3.4860  -25.9170  -51.5376 C.2       15 UNK         0.5000 
     88 O          -3.6476  -26.7391  -50.6330 O.2       15 UNK        -0.5000 
     89 N          -4.4330  -25.6782  -52.4548 N.am      16 UNK        -0.5000 
     90 CA         -5.7180  -26.3853  -52.5129 C.3       16 UNK         0.1400 
     91 CB         -6.2052  -26.4368  -53.9723 C.3       16 UNK        -0.1800 
     92 C          -6.7687  -25.7953  -51.5445 C.2       16 UNK         0.5000 
     93 O          -7.9284  -25.6385  -51.9263 O.2       16 UNK        -0.5000 
     94 N          -6.3431  -25.4909  -50.3088 N.am      17 UNK        -0.5000 
     95 CA         -7.1121  -24.8990  -49.2099 C.3       17 UNK         0.1400 
     96 CB         -8.2003  -25.8741  -48.7139 C.3       17 UNK        -0.1800 
     97 C          -7.6645  -23.5093  -49.5831 C.2       17 UNK         0.5000 
     98 O          -8.8778  -23.3344  -49.7121 O.2       17 UNK        -0.5000 
     99 N          -6.7397  -22.5558  -49.7657 N.am      18 UNK        -0.5000 
    100 CA        -6.9745  -21.1695  -50.1920 C.3       18 UNK         0.1400 
    101 CB        -7.8405  -20.4032  -49.1679 C.3       18 UNK        -0.1800 
    102 C         -7.5188  -21.0785  -51.6344 C.2       18 UNK         0.5000 
    103 O         -8.3995  -20.2645  -51.9191 O.2       18 UNK        -0.5000 
    104 N         -6.9804  -21.9207  -52.5215 N.am      19 UNK        -0.5000 
    105 CA        -7.3198  -22.0158  -53.9363 C.3       19 UNK         0.1400 
    106 CB        -8.6023  -22.8485  -54.1183 C.3       19 UNK        -0.1800 
    107 C         -6.1293  -22.6275  -54.6905 C.2       19 UNK         0.5000 
    108 O         -5.1662  -23.0649  -54.0552 O.2       19 UNK        -0.5000 
    109 N         -6.2307  -22.6494  -56.0283 N.am      20 UNK        -0.5000 
    110 CA        -5.1934  -23.0411  -56.9924 C.3       20 UNK         0.1400 
    111 CB        -4.7360  -24.5024  -56.7901 C.3       20 UNK        -0.1800 
    112 C         -4.0376  -22.0230  -56.9766 C.2       20 UNK         0.5000 
    113 O         -2.9216  -22.3464  -56.5675 O.2       20 UNK        -0.5000 
    114 N         -4.3705  -20.7874  -57.3853 N.am      21 UNK        -0.5000 
    115 CA        -3.5455  -19.5732  -57.3135 C.3       21 UNK         0.1400 
    116 CB        -2.2794  -19.6937  -58.1882 C.3       21 UNK        -0.1800 
    117 C         -3.2491  -19.1792  -55.8517 C.2       21 UNK         0.5000 
    118 O         -2.1109  -18.8583  -55.5044 O.2       21 UNK        -0.5000 
    119 N         -4.2940  -19.2530  -55.0151 N.am      22 UNK        -0.5000 
    120 CA        -4.2994  -19.0668  -53.5531 C.3       22 UNK         0.1400 
    121 C         -3.5427  -20.1773  -52.7720 C.2       22 UNK         0.5000 
    122 N         -2.3455  -20.5662  -53.1853 N.am      22 UNK        -0.7600 
    123 O         -4.0518  -20.6940  -51.7851 O.2       22 UNK        -0.5000 
    124 C124       -3.8333  -17.6488  -53.1196 C.3       23 UNK        -0.0398 
    125 S125       -4.7601  -16.9679  -51.6975 S.3       23 UNK        -0.2404 
    126 C126       -3.8605  -17.5961  -50.2385 C.3       23 UNK        -0.0205 
    127 H127        3.4336  -17.0829  -46.2960 H         1 UNK         0.0600 
    128 H128        4.6653  -16.3626  -47.3329 H         1 UNK         0.0600 
    129 H129        3.0328  -16.6384  -47.9540 H         1 UNK         0.0600 
    130 H130        2.1022  -14.6408  -48.2462 H         1 UNK         0.3000 
    131 H131        1.2865  -13.0087  -46.1567 H         1 UNK         0.0600 
    132 H132        0.4289  -11.4782  -47.9073 H         1 UNK         0.0800 
    133 H133        1.4289  -12.2307  -49.1213 H         1 UNK         0.0800 
    134 H134        1.1277  -14.3606  -50.1683 H         1 UNK         0.0800 
    135 H135       -0.3366  -13.7505  -50.9002 H         1 UNK         0.0800 
    136 H136       -2.5544  -15.2097  -50.0083 H         1 UNK         0.1150 
    137 H137       -1.8510  -19.3934  -50.5828 H         1 UNK         0.1150 
    138 H138        1.4502  -16.6708  -50.5237 H         1 UNK         0.1150 
    139 H139        0.2781  -20.2504  -50.9832 H         1 UNK         0.0800 
    140 H140        1.3341  -19.1492  -51.8222 H         1 UNK         0.0800 
    141 H141        0.3207  -18.9145  -48.0828 H         1 UNK         0.0800 
    142 H142        1.8346  -19.1872  -47.2985 H         1 UNK         0.0800 
    143 H143        1.4951  -21.7382  -47.8631 H         1 UNK         0.0600 
    144 H144        0.7500  -20.2274  -45.6231 H         1 UNK         0.3000 
    145 H145       -0.4617  -22.8609  -43.5300 H         1 UNK         0.0600 
    146 H146        1.2737  -21.8502  -42.0654 H         1 UNK         0.0600 
    147 H147        2.0056  -22.8620  -43.3024 H         1 UNK         0.0600 
    148 H148        2.0535  -21.1126  -43.4619 H         1 UNK         0.0600 
    149 H149       -0.2182  -20.0484  -43.1067 H         1 UNK         0.3000 
    150 H150       -3.4705  -19.1617  -44.3587 H         1 UNK         0.0600 
    151 H151       -3.7827  -19.8989  -42.0019 H         1 UNK         0.0600 
    152 H152       -3.5709  -18.1566  -42.0939 H         1 UNK         0.0600 
    153 H153       -2.2433  -19.1789  -41.5507 H         1 UNK         0.0600 
    154 H154       -1.4201  -17.5326  -43.2841 H         1 UNK         0.3000 
    155 H155        0.3617  -16.9310  -46.3522 H         1 UNK         0.0600 
    156 H156       -1.4587  -15.2491  -44.5488 H         1 UNK         0.0600 
    157 H157       -1.5133  -15.3440  -46.2982 H         1 UNK         0.0600 
    158 H158       -0.1238  -14.6173  -45.5018 H         1 UNK         0.0600 
    159 H159        0.9191  -15.9935  -43.7587 H         1 UNK         0.3000 
    160 H160        2.8137  -18.8154  -42.5704 H         1 UNK         0.0600 
    161 H161        3.5979  -15.9427  -43.2636 H         1 UNK         0.0600 
    162 H162        4.3757  -17.3848  -43.8959 H         1 UNK         0.0600 
    163 H163        4.4602  -17.0257  -42.1778 H         1 UNK         0.0600 
    164 H164        1.9833  -16.2838  -41.4430 H         1 UNK         0.3000 
    165 H165       -0.9716  -17.5068  -39.8886 H         1 UNK         0.0600 
    166 H166        0.1799  -16.6500  -37.8638 H         1 UNK         0.0600 
    167 H167        0.8609  -18.1983  -38.3366 H         1 UNK         0.0600 
    168 H168        1.7387  -16.7139  -38.6869 H         1 UNK         0.0600 
    169 H169        0.4051  -14.9844  -39.8504 H         1 UNK         0.3000 
    170 H170       -1.0673  -13.6123  -42.7832 H         1 UNK         0.0600 
    171 H171       -2.8576  -13.3153  -41.0687 H         1 UNK         0.0600 
    172 H172       -1.6445  -12.9854  -39.8376 H         1 UNK         0.0600 
    173 H173       -1.8546  -11.8794  -41.1958 H         1 UNK         0.0600 
    174 H174        0.6100  -12.5113  -40.7423 H         1 UNK         0.3000 
    175 H175        2.8027  -11.8954  -41.4775 H         1 UNK         0.0600 
    176 H176        3.5737  -14.7635  -40.6392 H         1 UNK         0.0600 
    177 H177        4.2597  -13.2829  -39.9814 H         1 UNK         0.0600 
    178 H178        2.5876  -13.6792  -39.6653 H         1 UNK         0.0600 
    179 H179        3.7230  -13.6640  -43.5319 H         1 UNK         0.3000 
    180 H180        7.1053  -12.2878  -43.5746 H         1 UNK         0.0600 
    181 H181        5.7385  -14.9923  -43.9874 H         1 UNK         0.0600 
    182 H182        6.9526  -14.6358  -42.7681 H         1 UNK         0.0600 
    183 H183        7.3706  -14.5525  -44.4724 H         1 UNK         0.0600 
    184 H184        5.0273  -13.1658  -45.5049 H         1 UNK         0.3000 
    185 H185        4.9573  -10.0839  -47.1692 H         1 UNK         0.0600 
    186 H186        7.1950  -10.7311  -48.0614 H         1 UNK         0.0600 
    187 H187        6.6806  -12.4092  -48.1837 H         1 UNK         0.0600 
    188 H188        5.9205  -11.1720  -49.1861 H         1 UNK         0.0600 
    189 H189        4.2749  -12.7972  -47.9304 H         1 UNK         0.3000 
    190 H190       -1.6685  -20.2319  -47.0904 H         1 UNK         0.3000 
    191 H191       -3.0995  -21.1233  -49.3561 H         1 UNK         0.0600 
    192 H192       -4.1053  -20.4788  -46.5300 H         1 UNK         0.0600 
    193 H193       -5.0896  -20.5303  -47.9814 H         1 UNK         0.0600 
    194 H194       -3.8445  -19.3020  -47.8094 H         1 UNK         0.0600 
    195 H195       -2.6090  -22.6735  -46.1678 H         1 UNK         0.3000 
    196 H196       -4.3015  -24.9331  -46.6530 H         1 UNK         0.0600 
    197 H197       -3.2102  -25.8244  -44.5947 H         1 UNK         0.0600 
    198 H198       -3.7106  -24.1544  -44.3736 H         1 UNK         0.0600 
    199 H199       -2.0130  -24.5364  -44.6546 H         1 UNK         0.0600 
    200 H200       -0.8470  -24.3231  -47.2804 H         1 UNK         0.3000 
    201 H201       -0.1639  -27.0118  -48.0292 H         1 UNK         0.0600 
    202 H202        1.5326  -25.3561  -47.3047 H         1 UNK         0.0600 
    203 H203        1.1734  -24.3355  -48.6960 H         1 UNK         0.0600 
    204 H204        1.8958  -25.9228  -48.9274 H         1 UNK         0.0600 
    205 H205       -1.6888  -24.3624  -49.7211 H         1 UNK         0.3000 
    206 H206       -1.5417  -25.6010  -52.3860 H         1 UNK         0.0600 
    207 H207       -3.1281  -23.1655  -51.4305 H         1 UNK         0.0600 
    208 H208       -1.4589  -23.0896  -51.9886 H         1 UNK         0.0600 
    209 H209       -2.7251  -23.5903  -53.0935 H         1 UNK         0.0600 
    210 H210       -4.3069  -24.9250  -53.1215 H         1 UNK         0.3000 
    211 H211       -5.5624  -27.4203  -52.2014 H         1 UNK         0.0600 
    212 H212       -6.4659  -25.4494  -54.3480 H         1 UNK         0.0600 
    213 H213       -7.0924  -27.0641  -54.0657 H         1 UNK         0.0600 
    214 H214       -5.4434  -26.8564  -54.6294 H         1 UNK         0.0600 
    215 H215       -5.3670  -25.6774  -50.1064 H         1 UNK         0.3000 
    216 H216       -6.4128  -24.7506  -48.3857 H         1 UNK         0.0600 
    217 H217       -8.7193  -25.4660  -47.8460 H         1 UNK         0.0600 
    218 H218       -7.7662  -26.8279  -48.4141 H         1 UNK         0.0600 
    219 H219       -8.9520  -26.0741  -49.4779 H         1 UNK         0.0600 
    220 H220       -5.7658  -22.8181  -49.6350 H         1 UNK         0.3000 
    221 H221       -5.9994  -20.6860  -50.2010 H         1 UNK         0.0600 
    222 H222       -8.8779  -20.7382  -49.1792 H         1 UNK         0.0600 
    223 H223       -7.4631  -20.5251  -48.1531 H         1 UNK         0.0600 
    224 H224       -7.8430  -19.3350  -49.3873 H         1 UNK         0.0600 
    225 H225       -6.1966  -22.4998  -52.2456 H         1 UNK         0.3000 
    226 H226       -7.4803  -21.0098  -54.3289 H         1 UNK         0.0600 
    227 H227       -9.4314  -22.4336  -53.5450 H         1 UNK         0.0600 
    228 H228       -8.9154  -22.8729  -55.1623 H         1 UNK         0.0600 
    229 H229       -8.4594  -23.8794  -53.7962 H         1 UNK         0.0600 
    230 H230       -7.0796  -22.2898  -56.4418 H         1 UNK         0.3000 
    231 H231       -5.6503  -22.9845  -57.9817 H         1 UNK         0.0600 
    232 H232       -5.5842  -25.1862  -56.8120 H         1 UNK         0.0600 
    233 H233       -4.2110  -24.6486  -55.8461 H         1 UNK         0.0600 
    234 H234       -4.0544  -24.8049  -57.5856 H         1 UNK         0.0600 
    235 H235       -5.3158  -20.6423  -57.7115 H         1 UNK         0.3000 
    236 H236       -4.1498  -18.7652  -57.7285 H         1 UNK         0.0600 
    237 H237       -1.5796  -20.4328  -57.7975 H         1 UNK         0.0600 
    238 H238       -2.5315  -19.9771  -59.2100 H         1 UNK         0.0600 
    239 H239       -1.7501  -18.7414  -58.2369 H         1 UNK         0.0600 
    240 H240       -5.1746  -19.5466  -55.4090 H         1 UNK         0.3000 
    241 H241       -5.3507  -19.1708  -53.2804 H         1 UNK         0.0600 
    242 H242       -1.9411  -20.1335  -54.0082 H         1 UNK         0.3800 
    243 H243       -1.8674  -21.3060  -52.7017 H         1 UNK         0.3800 
    244 H244       -2.7572  -17.6085  -52.9461 H         1 UNK         0.0800 
    245 H245       -4.0061  -16.9462  -53.9357 H         1 UNK         0.0800 
    246 H246       -4.0584  -18.6626  -50.1353 H         1 UNK         0.0800 
    247 H247       -4.2723  -17.1277  -49.3437 H         1 UNK         0.0800 
@<TRIPOS>BOND
     1    1    2 1    
     2    1  127 1    
     3    1  128 1    
     4    1  129 1    
     5    2    3 2    
     6    2    4 am   BACKBONE|DICT|INTERRES
     7    4    5 1    
     8    4  130 1    
     9    5    6 1    
    10    5   65 1    
    11    5  131 1    
    12    6    7 1    
    13    6  132 1    
    14    6  133 1    
    15    7    8 1    
    16    8    9 1    
    17    8  134 1    
    18    8  135 1    
    19    9   10 ar   
    20    9   14 ar   
    21   10   11 ar   
    22   10  136 1    
    23   11   12 ar   
    24   11  126 1    
    25   12   13 ar   
    26   12  137 1    
    27   13   14 ar   
    28   13   15 1    
    29   14  138 1    
    30   15   16 1    
    31   15  139 1    
    32   15  140 1    
    33   16   17 1    
    34   17   18 1    
    35   17  141 1    
    36   17  142 1    
    37   18   19 1    
    38   18   67 1    
    39   18  143 1    
    40   19   20 am   BACKBONE|DICT|INTERRES
    41   19  144 1    
    42   20   21 2    
    43   20   22 1    
    44   22   23 1    
    45   22   24 1    
    46   22  145 1    
    47   23  146 1    
    48   23  147 1    
    49   23  148 1    
    50   24   25 am   BACKBONE|DICT|INTERRES
    51   24  149 1    
    52   25   26 2    
    53   25   27 1    
    54   27   28 1    
    55   27   29 1    
    56   27  150 1    
    57   28  151 1    
    58   28  152 1    
    59   28  153 1    
    60   29   30 am   BACKBONE|DICT|INTERRES
    61   29  154 1    
    62   30   31 2    
    63   30   32 1    
    64   32   33 1    
    65   32   34 1    
    66   32  155 1    
    67   33  156 1    
    68   33  157 1    
    69   33  158 1    
    70   34   35 am   BACKBONE|DICT|INTERRES
    71   34  159 1    
    72   35   36 2    
    73   35   37 1    
    74   37   38 1    
    75   37   39 1    
    76   37  160 1    
    77   38  161 1    
    78   38  162 1    
    79   38  163 1    
    80   39   40 am   BACKBONE|DICT|INTERRES
    81   39  164 1    
    82   40   41 2    
    83   40   42 1    
    84   42   43 1    
    85   42   44 1    
    86   42  165 1    
    87   43  166 1    
    88   43  167 1    
    89   43  168 1    
    90   44   45 am   BACKBONE|DICT|INTERRES
    91   44  169 1    
    92   45   46 2    
    93   45   47 1    
    94   47   48 1    
    95   47   49 1    
    96   47  170 1    
    97   48  171 1    
    98   48  172 1    
    99   48  173 1    
   100   49   50 am   BACKBONE|DICT|INTERRES
   101   49  174 1    
   102   50   51 2    
   103   50   52 1    
   104   52   53 1    
   105   52   54 1    
   106   52  175 1    
   107   53  176 1    
   108   53  177 1    
   109   53  178 1    
   110   54   55 am   BACKBONE|DICT|INTERRES
   111   54  179 1    
   112   55   56 2    
   113   55   57 1    
   114   57   58 1    
   115   57   59 1    
   116   57  180 1    
   117   58  181 1    
   118   58  182 1    
   119   58  183 1    
   120   59   60 am   BACKBONE|DICT|INTERRES
   121   59  184 1    
   122   60   61 2    
   123   60   62 1    
   124   62   63 1    
   125   62   64 1    
   126   62  185 1    
   127   63  186 1    
   128   63  187 1    
   129   63  188 1    
   130   64   65 am   BACKBONE|DICT|INTERRES
   131   64  189 1    
   132   65   66 2    
   133   67   68 2    
   134   67   69 am   BACKBONE|DICT|INTERRES
   135   69   70 1    
   136   69  190 1    
   137   70   71 1    
   138   70   72 1    
   139   70  191 1    
   140   71  192 1    
   141   71  193 1    
   142   71  194 1    
   143   72   73 2    
   144   72   74 am   BACKBONE|DICT|INTERRES
   145   74   75 1    
   146   74  195 1    
   147   75   76 1    
   148   75   77 1    
   149   75  196 1    
   150   76  197 1    
   151   76  198 1    
   152   76  199 1    
   153   77   78 2    
   154   77   79 am   BACKBONE|DICT|INTERRES
   155   79   80 1    
   156   79  200 1    
   157   80   81 1    
   158   80   82 1    
   159   80  201 1    
   160   81  202 1    
   161   81  203 1    
   162   81  204 1    
   163   82   83 2    
   164   82   84 am   BACKBONE|DICT|INTERRES
   165   84   85 1    
   166   84  205 1    
   167   85   86 1    
   168   85   87 1    
   169   85  206 1    
   170   86  207 1    
   171   86  208 1    
   172   86  209 1    
   173   87   88 2    
   174   87   89 am   BACKBONE|DICT|INTERRES
   175   89   90 1    
   176   89  210 1    
   177   90   91 1    
   178   90   92 1    
   179   90  211 1    
   180   91  212 1    
   181   91  213 1    
   182   91  214 1    
   183   92   93 2    
   184   92   94 am   BACKBONE|DICT|INTERRES
   185   94   95 1    
   186   94  215 1    
   187   95   96 1    
   188   95   97 1    
   189   95  216 1    
   190   96  217 1    
   191   96  218 1    
   192   96  219 1    
   193   97   98 2    
   194   97   99 am   BACKBONE|DICT|INTERRES
   195   99  100 1    
   196   99  220 1    
   197  100  101 1    
   198  100  102 1    
   199  100  221 1    
   200  101  222 1    
   201  101  223 1    
   202  101  224 1    
   203  102  103 2    
   204  102  104 am   BACKBONE|DICT|INTERRES
   205  104  105 1    
   206  104  225 1    
   207  105  106 1    
   208  105  107 1    
   209  105  226 1    
   210  106  227 1    
   211  106  228 1    
   212  106  229 1    
   213  107  108 2    
   214  107  109 am   BACKBONE|DICT|INTERRES
   215  109  110 1    
   216  109  230 1    
   217  110  111 1    
   218  110  112 1    
   219  110  231 1    
   220  111  232 1    
   221  111  233 1    
   222  111  234 1    
   223  112  113 2    
   224  112  114 am   BACKBONE|DICT|INTERRES
   225  114  115 1    
   226  114  235 1    
   227  115  116 1    
   228  115  117 1    
   229  115  236 1    
   230  116  237 1    
   231  116  238 1    
   232  116  239 1    
   233  117  118 2    
   234  117  119 am   BACKBONE|DICT|INTERRES
   235  119  120 1    
   236  119  240 1    
   237  120  121 1    
   238  120  124 1    
   239  120  241 1    
   240  121  122 am   BACKBONE|DICT|INTERRES
   241  121  123 2    
   242  122  242 1    
   243  122  243 1    
   244  124  125 1    
   245  124  244 1    
   246  124  245 1    
   247  125  126 1    
   248  126  246 1    
   249  126  247 1    
@<TRIPOS>SUBSTRUCTURE
     1 UNK         1 GROUP             0       ****    0 ROOT    
