@<TRIPOS>MOLECULE
3R540
247   249    1
SMALL
USER_CHARGES


@<TRIPOS>ATOM
      1 CA          5.1991  -11.3261  -48.0879 C.3       0 UNK        -0.1800 
      2 C           3.8925  -11.8156  -47.4821 C.2       0 UNK         0.5000 
      3 O           3.7269  -11.7522  -46.2656 O.2       0 UNK        -0.5000 
      4 N           2.9616  -12.2810  -48.3266 N.am      1 UNK        -0.5000 
      5 CA          1.6453  -12.8467  -47.9831 C.3       1 UNK         0.1400 
      6 C6          0.9166  -13.2873  -49.2869 C.3       23 UNK        -0.0398 
      7 S7         -0.8487  -13.7578  -49.1660 S.3       23 UNK        -0.2404 
      8 C8         -0.7420  -15.5535  -48.8631 C.3       23 UNK        -0.0205 
      9 C9         -0.4762  -16.4528  -50.0712 C.ar      23 UNK        -0.0193 
     10 C10        -0.0900  -15.9672  -51.3278 C.ar      23 UNK        -0.1150 
     11 C11         0.1908  -16.8405  -52.3836 C.ar      23 UNK        -0.0193 
     12 C12         0.0871  -18.2205  -52.1694 C.ar      23 UNK        -0.1150 
     13 C13        -0.3168  -18.7209  -50.9305 C.ar      23 UNK        -0.0193 
     14 C14        -0.6030  -17.8330  -49.8915 C.ar      23 UNK        -0.1150 
     15 C15        -0.4584  -20.2198  -50.7269 C.3       23 UNK        -0.0205 
     16 S16         1.0812  -20.9818  -50.1119 S.3       23 UNK        -0.2404 
     17 C17         0.9369  -20.7587  -48.3009 C.3       23 UNK        -0.0398 
     18 CA          0.3577  -21.9989  -47.5743 C.3       11 UNK         0.1400 
     19 N           0.5049  -21.9097  -46.1200 N.am      11 UNK        -0.5000 
     20 C           0.1951  -22.8883  -45.2559 C.2       10 UNK         0.5000 
     21 O          -0.1898  -24.0082  -45.5938 O.2       10 UNK        -0.5000 
     22 CA          0.2709  -22.5378  -43.7596 C.3       10 UNK         0.1400 
     23 CB          1.7254  -22.5362  -43.2664 C.3       10 UNK        -0.1800 
     24 N          -0.3615  -21.2534  -43.4533 N.am      10 UNK        -0.5000 
     25 C          -1.6632  -20.9880  -43.6401 C.2       9 UNK         0.5000 
     26 O          -2.4784  -21.8124  -44.0555 O.2       9 UNK        -0.5000 
     27 CA         -2.1282  -19.5496  -43.3533 C.3       9 UNK         0.1400 
     28 CB         -2.3272  -19.3322  -41.8461 C.3       9 UNK        -0.1800 
     29 N          -1.2107  -18.5395  -43.8809 N.am      9 UNK        -0.5000 
     30 C          -0.9291  -18.3687  -45.1809 C.2       8 UNK         0.5000 
     31 O          -1.4307  -19.0301  -46.0881 O.2       8 UNK        -0.5000 
     32 CA          0.1387  -17.3198  -45.5262 C.3       8 UNK         0.1400 
     33 CB         -0.4227  -15.8982  -45.3779 C.3       8 UNK        -0.1800 
     34 N           1.3393  -17.4619  -44.7077 N.am      8 UNK        -0.5000 
     35 C           2.1144  -18.5541  -44.6580 C.2       7 UNK         0.5000 
     36 O           1.9404  -19.5541  -45.3539 O.2       7 UNK        -0.5000 
     37 CA          3.2434  -18.5435  -43.6155 C.3       7 UNK         0.1400 
     38 CB          4.4796  -17.8121  -44.1583 C.3       7 UNK        -0.1800 
     39 N           2.8137  -17.9292  -42.3585 N.am      7 UNK        -0.5000 
     40 C           1.9271  -18.4779  -41.5155 C.2       6 UNK         0.5000 
     41 O           1.4019  -19.5771  -41.6949 O.2       6 UNK        -0.5000 
     42 CA          1.5338  -17.6368  -40.2875 C.3       6 UNK         0.1400 
     43 CB          2.6061  -17.7362  -39.1922 C.3       6 UNK        -0.1800 
     44 N           1.3061  -16.2295  -40.6215 N.am      6 UNK        -0.5000 
     45 C           0.2885  -15.7914  -41.3760 C.2       5 UNK         0.5000 
     46 O          -0.5786  -16.5289  -41.8433 O.2       5 UNK        -0.5000 
     47 CA          0.2513  -14.2837  -41.6944 C.3       5 UNK         0.1400 
     48 CB         -0.4798  -13.5164  -40.5833 C.3       5 UNK        -0.1800 
     49 N           1.5677  -13.6771  -41.9120 N.am      5 UNK        -0.5000 
     50 C           2.4699  -14.0716  -42.8196 C.2       4 UNK         0.5000 
     51 O           2.3206  -15.0523  -43.5493 O.2       4 UNK        -0.5000 
     52 CA          3.7389  -13.2092  -42.9291 C.3       4 UNK         0.1400 
     53 CB          4.8334  -13.8692  -43.7862 C.3       4 UNK        -0.1800 
     54 N           3.4237  -11.9025  -43.4990 N.am      4 UNK        -0.5000 
     55 C           2.9555  -10.8508  -42.8171 C.2       3 UNK         0.5000 
     56 O           2.6863  -10.8864  -41.6150 O.2       3 UNK        -0.5000 
     57 CA          2.7567   -9.5472  -43.6041 C.3       3 UNK         0.1400 
     58 CB          4.1141   -8.9006  -43.9259 C.3       3 UNK        -0.1800 
     59 N           2.0299   -9.7742  -44.8538 N.am      3 UNK        -0.5000 
     60 C           0.7755   -9.3654  -45.0896 C.2       2 UNK         0.5000 
     61 O           0.0734   -8.8029  -44.2478 O.2       2 UNK        -0.5000 
     62 CA          0.2016   -9.5822  -46.5061 C.3       2 UNK         0.1400 
     63 CB          0.2235   -8.2645  -47.2969 C.3       2 UNK        -0.1800 
     64 N           0.9002  -10.6041  -47.2863 N.am      2 UNK        -0.5000 
     65 C           0.7954  -11.9228  -47.0746 C.2       1 UNK         0.5000 
     66 O           0.0986  -12.4119  -46.1848 O.2       1 UNK        -0.5000 
     67 C          -1.1093  -22.2485  -47.9702 C.2       11 UNK         0.5000 
     68 O          -1.3717  -23.1573  -48.7567 O.2       11 UNK        -0.5000 
     69 N          -2.0335  -21.4503  -47.4137 N.am      12 UNK        -0.5000 
     70 CA         -3.4684  -21.5365  -47.6749 C.3       12 UNK         0.1400 
     71 CB         -4.2210  -20.4218  -46.9353 C.3       12 UNK        -0.1800 
     72 C          -4.0532  -22.9154  -47.3469 C.2       12 UNK         0.5000 
     73 O          -4.7648  -23.4725  -48.1812 O.2       12 UNK        -0.5000 
     74 N          -3.6948  -23.4482  -46.1705 N.am      13 UNK        -0.5000 
     75 CA         -4.0502  -24.7888  -45.7125 C.3       13 UNK         0.1400 
     76 CB         -3.5804  -24.9746  -44.2616 C.3       13 UNK        -0.1800 
     77 C          -3.4855  -25.8989  -46.6170 C.2       13 UNK         0.5000 
     78 O          -4.2299  -26.8035  -46.9972 O.2       13 UNK        -0.5000 
     79 N          -2.1903  -25.8039  -46.9512 N.am      14 UNK        -0.5000 
     80 CA         -1.4762  -26.7723  -47.7841 C.3       14 UNK         0.1400 
     81 CB          0.0295  -26.4687  -47.7511 C.3       14 UNK        -0.1800 
     82 C          -1.9875  -26.8190  -49.2343 C.2       14 UNK         0.5000 
     83 O          -2.2082  -27.9074  -49.7689 O.2       14 UNK        -0.5000 
     84 N          -2.1823  -25.6438  -49.8441 N.am      15 UNK        -0.5000 
     85 CA         -2.6504  -25.4831  -51.2175 C.3       15 UNK         0.1400 
     86 CB         -2.1128  -24.1604  -51.7808 C.3       15 UNK        -0.1800 
     87 C          -4.1839  -25.6024  -51.3010 C.2       15 UNK         0.5000 
     88 O          -4.8830  -24.6101  -51.5309 O.2       15 UNK        -0.5000 
     89 N          -4.6628  -26.8378  -51.0995 N.am      16 UNK        -0.5000 
     90 CA         -6.0410  -27.3165  -51.2610 C.3       16 UNK         0.1400 
     91 CB         -6.4583  -27.2348  -52.7440 C.3       16 UNK        -0.1800 
     92 C          -7.0722  -26.6444  -50.3304 C.2       16 UNK         0.5000 
     93 O          -8.2615  -26.6360  -50.6518 O.2       16 UNK        -0.5000 
     94 N          -6.6034  -26.0868  -49.2035 N.am      17 UNK        -0.5000 
     95 CA         -7.3665  -25.3067  -48.2209 C.3       17 UNK         0.1400 
     96 CB         -8.4079  -26.1914  -47.5037 C.3       17 UNK        -0.1800 
     97 C          -7.9783  -24.0107  -48.8038 C.2       17 UNK         0.5000 
     98 O          -8.9637  -23.5070  -48.2608 O.2       17 UNK        -0.5000 
     99 N          -7.4015  -23.5026  -49.9026 N.am      18 UNK        -0.5000 
    100 CA        -7.9468  -22.3991  -50.6929 C.3       18 UNK         0.1400 
    101 CB        -8.7373  -22.9961  -51.8719 C.3       18 UNK        -0.1800 
    102 C         -6.8743  -21.4152  -51.1936 C.2       18 UNK         0.5000 
    103 O         -7.2314  -20.4717  -51.9003 O.2       18 UNK        -0.5000 
    104 N         -5.5936  -21.6466  -50.8577 N.am      19 UNK        -0.5000 
    105 CA        -4.4190  -20.9326  -51.3857 C.3       19 UNK         0.1400 
    106 CB        -4.3926  -19.4599  -50.9226 C.3       19 UNK        -0.1800 
    107 C         -4.2764  -21.0914  -52.9149 C.2       19 UNK         0.5000 
    108 O         -3.8992  -20.1456  -53.6098 O.2       19 UNK        -0.5000 
    109 N         -4.5847  -22.3027  -53.4047 N.am      20 UNK        -0.5000 
    110 CA        -4.7136  -22.6621  -54.8204 C.3       20 UNK         0.1400 
    111 CB        -5.1451  -24.1323  -54.9204 C.3       20 UNK        -0.1800 
    112 C         -3.4648  -22.4043  -55.6856 C.2       20 UNK         0.5000 
    113 O         -3.6041  -22.1951  -56.8912 O.2       20 UNK        -0.5000 
    114 N         -2.2808  -22.3691  -55.0575 N.am      21 UNK        -0.5000 
    115 CA        -0.9941  -22.0360  -55.6752 C.3       21 UNK         0.1400 
    116 CB         0.1172  -22.2068  -54.6277 C.3       21 UNK        -0.1800 
    117 C         -0.9403  -20.6217  -56.2923 C.2       21 UNK         0.5000 
    118 O         -0.1690  -20.4065  -57.2283 O.2       21 UNK        -0.5000 
    119 N         -1.7714  -19.7052  -55.7805 N.am      22 UNK        -0.5000 
    120 CA        -1.9804  -18.3469  -56.3052 C.3       22 UNK         0.1400 
    121 C         -3.4590  -18.1111  -56.7361 C.2       22 UNK         0.5000 
    122 N         -4.2445  -19.1481  -57.0074 N.am      22 UNK        -0.7600 
    123 O         -3.9034  -16.9725  -56.8566 O.2       22 UNK        -0.5000 
    124 C124       -1.4534  -17.2658  -55.3234 C.3       23 UNK        -0.0398 
    125 S125        0.3655  -17.3107  -55.1804 S.3       23 UNK        -0.2404 
    126 C126        0.6430  -16.2514  -53.7203 C.3       23 UNK        -0.0205 
    127 H127        5.3564  -10.2766  -47.8391 H         1 UNK         0.0600 
    128 H128        6.0342  -11.9009  -47.6876 H         1 UNK         0.0600 
    129 H129        5.2065  -11.4244  -49.1736 H         1 UNK         0.0600 
    130 H130        3.1809  -12.2839  -49.3126 H         1 UNK         0.3000 
    131 H131        1.8394  -13.7473  -47.3966 H         1 UNK         0.0600 
    132 H132        0.9556  -12.4726  -50.0119 H         1 UNK         0.0800 
    133 H133        1.4701  -14.1082  -49.7442 H         1 UNK         0.0800 
    134 H134        0.0453  -15.7282  -48.1314 H         1 UNK         0.0800 
    135 H135       -1.6792  -15.8650  -48.3996 H         1 UNK         0.0800 
    136 H136        0.0087  -14.9055  -51.4964 H         1 UNK         0.1150 
    137 H137        0.3183  -18.9156  -52.9634 H         1 UNK         0.1150 
    138 H138       -0.9208  -18.2163  -48.9321 H         1 UNK         0.1150 
    139 H139       -1.2896  -20.4221  -50.0531 H         1 UNK         0.0800 
    140 H140       -0.7267  -20.6937  -51.6714 H         1 UNK         0.0800 
    141 H141        0.3628  -19.8627  -48.0687 H         1 UNK         0.0800 
    142 H142        1.9434  -20.5629  -47.9291 H         1 UNK         0.0800 
    143 H143        0.9329  -22.8712  -47.8921 H         1 UNK         0.0600 
    144 H144        0.8492  -21.0247  -45.7547 H         1 UNK         0.3000 
    145 H145       -0.2705  -23.3115  -43.2113 H         1 UNK         0.0600 
    146 H146        1.7761  -22.3649  -42.1910 H         1 UNK         0.0600 
    147 H147        2.2060  -23.4947  -43.4663 H         1 UNK         0.0600 
    148 H148        2.3178  -21.7634  -43.7558 H         1 UNK         0.0600 
    149 H149        0.2370  -20.5311  -43.0661 H         1 UNK         0.3000 
    150 H150       -3.0927  -19.4091  -43.8450 H         1 UNK         0.0600 
    151 H151       -3.0108  -20.0735  -41.4304 H         1 UNK         0.0600 
    152 H152       -2.7519  -18.3489  -41.6436 H         1 UNK         0.0600 
    153 H153       -1.3863  -19.4079  -41.3000 H         1 UNK         0.0600 
    154 H154       -0.7796  -17.9216  -43.1993 H         1 UNK         0.3000 
    155 H155        0.4309  -17.4729  -46.5665 H         1 UNK         0.0600 
    156 H156       -1.3112  -15.7578  -45.9933 H         1 UNK         0.0600 
    157 H157        0.3099  -15.1498  -45.6799 H         1 UNK         0.0600 
    158 H158       -0.7112  -15.6835  -44.3511 H         1 UNK         0.0600 
    159 H159        1.6000  -16.6589  -44.1397 H         1 UNK         0.3000 
    160 H160        3.5241  -19.5786  -43.4102 H         1 UNK         0.0600 
    161 H161        5.2844  -17.7925  -43.4235 H         1 UNK         0.0600 
    162 H162        4.2500  -16.7836  -44.4363 H         1 UNK         0.0600 
    163 H163        4.8636  -18.3109  -45.0490 H         1 UNK         0.0600 
    164 H164        3.1464  -16.9946  -42.1732 H         1 UNK         0.3000 
    165 H165        0.6029  -18.0466  -39.8893 H         1 UNK         0.0600 
    166 H166        2.2966  -17.2097  -38.2892 H         1 UNK         0.0600 
    167 H167        2.7850  -18.7761  -38.9155 H         1 UNK         0.0600 
    168 H168        3.5580  -17.3146  -39.5175 H         1 UNK         0.0600 
    169 H169        1.9764  -15.5581  -40.2772 H         1 UNK         0.3000 
    170 H170       -0.3159  -14.1573  -42.6179 H         1 UNK         0.0600 
    171 H171       -1.4758  -13.9280  -40.4139 H         1 UNK         0.0600 
    172 H172        0.0614  -13.5644  -39.6376 H         1 UNK         0.0600 
    173 H173       -0.6042  -12.4656  -40.8459 H         1 UNK         0.0600 
    174 H174        1.7680  -12.8287  -41.3953 H         1 UNK         0.3000 
    175 H175        4.1419  -13.0775  -41.9228 H         1 UNK         0.0600 
    176 H176        5.7189  -13.2366  -43.8489 H         1 UNK         0.0600 
    177 H177        5.1455  -14.8199  -43.3533 H         1 UNK         0.0600 
    178 H178        4.4905  -14.0629  -44.8036 H         1 UNK         0.0600 
    179 H179        3.5720  -11.8135  -44.5031 H         1 UNK         0.3000 
    180 H180        2.2088   -8.8571  -42.9591 H         1 UNK         0.0600 
    181 H181        4.7164   -9.5272  -44.5853 H         1 UNK         0.0600 
    182 H182        4.6914   -8.7289  -43.0165 H         1 UNK         0.0600 
    183 H183        3.9818   -7.9348  -44.4138 H         1 UNK         0.0600 
    184 H184        2.5194  -10.2967  -45.5719 H         1 UNK         0.3000 
    185 H185       -0.8398   -9.8907  -46.3912 H         1 UNK         0.0600 
    186 H186       -0.2491   -8.3813  -48.2724 H         1 UNK         0.0600 
    187 H187       -0.3194   -7.4804  -46.7672 H         1 UNK         0.0600 
    188 H188        1.2420   -7.9080  -47.4561 H         1 UNK         0.0600 
    189 H189        1.5112  -10.2789  -48.0212 H         1 UNK         0.3000 
    190 H190       -1.7357  -20.6980  -46.7959 H         1 UNK         0.3000 
    191 H191       -3.6039  -21.3746  -48.7405 H         1 UNK         0.0600 
    192 H192       -4.0888  -20.4925  -45.8560 H         1 UNK         0.0600 
    193 H193       -5.2912  -20.4718  -47.1403 H         1 UNK         0.0600 
    194 H194       -3.8769  -19.4372  -47.2519 H         1 UNK         0.0600 
    195 H195       -3.1196  -22.8937  -45.5416 H         1 UNK         0.3000 
    196 H196       -5.1381  -24.8671  -45.7223 H         1 UNK         0.0600 
    197 H197       -2.5000  -24.8569  -44.1688 H         1 UNK         0.0600 
    198 H198       -3.8376  -25.9673  -43.8903 H         1 UNK         0.0600 
    199 H199       -4.0514  -24.2473  -43.6000 H         1 UNK         0.0600 
    200 H200       -1.6422  -25.0312  -46.5862 H         1 UNK         0.3000 
    201 H201       -1.6294  -27.7619  -47.3487 H         1 UNK         0.0600 
    202 H202        0.2467  -25.4683  -48.1276 H         1 UNK         0.0600 
    203 H203        0.5867  -27.1795  -48.3625 H         1 UNK         0.0600 
    204 H204        0.4219  -26.5354  -46.7362 H         1 UNK         0.0600 
    205 H205       -1.9801  -24.7842  -49.3356 H         1 UNK         0.3000 
    206 H206       -2.2297  -26.2818  -51.8324 H         1 UNK         0.0600 
    207 H207       -1.0230  -24.1384  -51.7621 H         1 UNK         0.0600 
    208 H208       -2.4234  -24.0294  -52.8158 H         1 UNK         0.0600 
    209 H209       -2.4686  -23.3099  -51.2051 H         1 UNK         0.0600 
    210 H210       -3.9863  -27.5452  -50.8315 H         1 UNK         0.3000 
    211 H211       -6.0274  -28.3703  -50.9798 H         1 UNK         0.0600 
    212 H212       -6.5888  -26.2019  -53.0662 H         1 UNK         0.0600 
    213 H213       -7.4032  -27.7514  -52.9160 H         1 UNK         0.0600 
    214 H214       -5.7149  -27.6985  -53.3923 H         1 UNK         0.0600 
    215 H215       -5.6089  -26.1434  -49.0271 H         1 UNK         0.3000 
    216 H216       -6.6543  -24.9902  -47.4626 H         1 UNK         0.0600 
    217 H217       -7.9484  -27.0970  -47.1074 H         1 UNK         0.0600 
    218 H218       -8.8561  -25.6629  -46.6617 H         1 UNK         0.0600 
    219 H219       -9.2185  -26.4884  -48.1695 H         1 UNK         0.0600 
    220 H220       -6.5950  -23.9821  -50.2864 H         1 UNK         0.3000 
    221 H221       -8.6313  -21.8056  -50.0837 H         1 UNK         0.0600 
    222 H222       -8.0921  -23.5844  -52.5260 H         1 UNK         0.0600 
    223 H223       -9.5376  -23.6477  -51.5203 H         1 UNK         0.0600 
    224 H224       -9.1994  -22.2157  -52.4776 H         1 UNK         0.0600 
    225 H225       -5.3964  -22.4445  -50.2664 H         1 UNK         0.3000 
    226 H226       -3.5423  -21.4145  -50.9602 H         1 UNK         0.0600 
    227 H227       -4.5099  -19.3784  -49.8427 H         1 UNK         0.0600 
    228 H228       -3.4441  -18.9877  -51.1818 H         1 UNK         0.0600 
    229 H229       -5.1830  -18.8719  -51.3892 H         1 UNK         0.0600 
    230 H230       -4.8464  -23.0273  -52.7424 H         1 UNK         0.3000 
    231 H231       -5.5150  -22.0456  -55.2323 H         1 UNK         0.0600 
    232 H232       -6.1005  -24.2923  -54.4211 H         1 UNK         0.0600 
    233 H233       -4.4118  -24.7996  -54.4660 H         1 UNK         0.0600 
    234 H234       -5.2690  -24.4372  -55.9603 H         1 UNK         0.0600 
    235 H235       -2.2739  -22.5265  -54.0620 H         1 UNK         0.3000 
    236 H236       -0.8207  -22.7518  -56.4812 H         1 UNK         0.0600 
    237 H237        1.0981  -22.0183  -55.0660 H         1 UNK         0.0600 
    238 H238       -0.0058  -21.5143  -53.7951 H         1 UNK         0.0600 
    239 H239        0.1317  -23.2198  -54.2250 H         1 UNK         0.0600 
    240 H240       -2.3964  -19.9724  -55.0265 H         1 UNK         0.3000 
    241 H241       -1.4245  -18.2303  -57.2369 H         1 UNK         0.0600 
    242 H242       -5.1961  -18.9812  -57.2936 H         1 UNK         0.3800 
    243 H243       -3.8916  -20.0957  -56.9684 H         1 UNK         0.3800 
    244 H244       -1.7231  -16.2633  -55.6589 H         1 UNK         0.0800 
    245 H245       -1.9062  -17.3959  -54.3391 H         1 UNK         0.0800 
    246 H246        0.1481  -15.2941  -53.8922 H         1 UNK         0.0800 
    247 H247        1.7103  -16.0382  -53.6515 H         1 UNK         0.0800 
@<TRIPOS>BOND
     1    1    2 1    
     2    1  127 1    
     3    1  128 1    
     4    1  129 1    
     5    2    3 2    
     6    2    4 am   BACKBONE|DICT|INTERRES
     7    4    5 1    
     8    4  130 1    
     9    5    6 1    
    10    5   65 1    
    11    5  131 1    
    12    6    7 1    
    13    6  132 1    
    14    6  133 1    
    15    7    8 1    
    16    8    9 1    
    17    8  134 1    
    18    8  135 1    
    19    9   10 ar   
    20    9   14 ar   
    21   10   11 ar   
    22   10  136 1    
    23   11   12 ar   
    24   11  126 1    
    25   12   13 ar   
    26   12  137 1    
    27   13   14 ar   
    28   13   15 1    
    29   14  138 1    
    30   15   16 1    
    31   15  139 1    
    32   15  140 1    
    33   16   17 1    
    34   17   18 1    
    35   17  141 1    
    36   17  142 1    
    37   18   19 1    
    38   18   67 1    
    39   18  143 1    
    40   19   20 am   BACKBONE|DICT|INTERRES
    41   19  144 1    
    42   20   21 2    
    43   20   22 1    
    44   22   23 1    
    45   22   24 1    
    46   22  145 1    
    47   23  146 1    
    48   23  147 1    
    49   23  148 1    
    50   24   25 am   BACKBONE|DICT|INTERRES
    51   24  149 1    
    52   25   26 2    
    53   25   27 1    
    54   27   28 1    
    55   27   29 1    
    56   27  150 1    
    57   28  151 1    
    58   28  152 1    
    59   28  153 1    
    60   29   30 am   BACKBONE|DICT|INTERRES
    61   29  154 1    
    62   30   31 2    
    63   30   32 1    
    64   32   33 1    
    65   32   34 1    
    66   32  155 1    
    67   33  156 1    
    68   33  157 1    
    69   33  158 1    
    70   34   35 am   BACKBONE|DICT|INTERRES
    71   34  159 1    
    72   35   36 2    
    73   35   37 1    
    74   37   38 1    
    75   37   39 1    
    76   37  160 1    
    77   38  161 1    
    78   38  162 1    
    79   38  163 1    
    80   39   40 am   BACKBONE|DICT|INTERRES
    81   39  164 1    
    82   40   41 2    
    83   40   42 1    
    84   42   43 1    
    85   42   44 1    
    86   42  165 1    
    87   43  166 1    
    88   43  167 1    
    89   43  168 1    
    90   44   45 am   BACKBONE|DICT|INTERRES
    91   44  169 1    
    92   45   46 2    
    93   45   47 1    
    94   47   48 1    
    95   47   49 1    
    96   47  170 1    
    97   48  171 1    
    98   48  172 1    
    99   48  173 1    
   100   49   50 am   BACKBONE|DICT|INTERRES
   101   49  174 1    
   102   50   51 2    
   103   50   52 1    
   104   52   53 1    
   105   52   54 1    
   106   52  175 1    
   107   53  176 1    
   108   53  177 1    
   109   53  178 1    
   110   54   55 am   BACKBONE|DICT|INTERRES
   111   54  179 1    
   112   55   56 2    
   113   55   57 1    
   114   57   58 1    
   115   57   59 1    
   116   57  180 1    
   117   58  181 1    
   118   58  182 1    
   119   58  183 1    
   120   59   60 am   BACKBONE|DICT|INTERRES
   121   59  184 1    
   122   60   61 2    
   123   60   62 1    
   124   62   63 1    
   125   62   64 1    
   126   62  185 1    
   127   63  186 1    
   128   63  187 1    
   129   63  188 1    
   130   64   65 am   BACKBONE|DICT|INTERRES
   131   64  189 1    
   132   65   66 2    
   133   67   68 2    
   134   67   69 am   BACKBONE|DICT|INTERRES
   135   69   70 1    
   136   69  190 1    
   137   70   71 1    
   138   70   72 1    
   139   70  191 1    
   140   71  192 1    
   141   71  193 1    
   142   71  194 1    
   143   72   73 2    
   144   72   74 am   BACKBONE|DICT|INTERRES
   145   74   75 1    
   146   74  195 1    
   147   75   76 1    
   148   75   77 1    
   149   75  196 1    
   150   76  197 1    
   151   76  198 1    
   152   76  199 1    
   153   77   78 2    
   154   77   79 am   BACKBONE|DICT|INTERRES
   155   79   80 1    
   156   79  200 1    
   157   80   81 1    
   158   80   82 1    
   159   80  201 1    
   160   81  202 1    
   161   81  203 1    
   162   81  204 1    
   163   82   83 2    
   164   82   84 am   BACKBONE|DICT|INTERRES
   165   84   85 1    
   166   84  205 1    
   167   85   86 1    
   168   85   87 1    
   169   85  206 1    
   170   86  207 1    
   171   86  208 1    
   172   86  209 1    
   173   87   88 2    
   174   87   89 am   BACKBONE|DICT|INTERRES
   175   89   90 1    
   176   89  210 1    
   177   90   91 1    
   178   90   92 1    
   179   90  211 1    
   180   91  212 1    
   181   91  213 1    
   182   91  214 1    
   183   92   93 2    
   184   92   94 am   BACKBONE|DICT|INTERRES
   185   94   95 1    
   186   94  215 1    
   187   95   96 1    
   188   95   97 1    
   189   95  216 1    
   190   96  217 1    
   191   96  218 1    
   192   96  219 1    
   193   97   98 2    
   194   97   99 am   BACKBONE|DICT|INTERRES
   195   99  100 1    
   196   99  220 1    
   197  100  101 1    
   198  100  102 1    
   199  100  221 1    
   200  101  222 1    
   201  101  223 1    
   202  101  224 1    
   203  102  103 2    
   204  102  104 am   BACKBONE|DICT|INTERRES
   205  104  105 1    
   206  104  225 1    
   207  105  106 1    
   208  105  107 1    
   209  105  226 1    
   210  106  227 1    
   211  106  228 1    
   212  106  229 1    
   213  107  108 2    
   214  107  109 am   BACKBONE|DICT|INTERRES
   215  109  110 1    
   216  109  230 1    
   217  110  111 1    
   218  110  112 1    
   219  110  231 1    
   220  111  232 1    
   221  111  233 1    
   222  111  234 1    
   223  112  113 2    
   224  112  114 am   BACKBONE|DICT|INTERRES
   225  114  115 1    
   226  114  235 1    
   227  115  116 1    
   228  115  117 1    
   229  115  236 1    
   230  116  237 1    
   231  116  238 1    
   232  116  239 1    
   233  117  118 2    
   234  117  119 am   BACKBONE|DICT|INTERRES
   235  119  120 1    
   236  119  240 1    
   237  120  121 1    
   238  120  124 1    
   239  120  241 1    
   240  121  122 am   BACKBONE|DICT|INTERRES
   241  121  123 2    
   242  122  242 1    
   243  122  243 1    
   244  124  125 1    
   245  124  244 1    
   246  124  245 1    
   247  125  126 1    
   248  126  246 1    
   249  126  247 1    
@<TRIPOS>SUBSTRUCTURE
     1 UNK         1 GROUP             0       ****    0 ROOT    
