@<TRIPOS>MOLECULE
3R540
247   249    1
SMALL
USER_CHARGES


@<TRIPOS>ATOM
      1 CA         -1.2356  -12.1810  -43.8674 C.3       0 UNK        -0.1800 
      2 C          -1.9476  -12.2955  -45.2071 C.2       0 UNK         0.5000 
      3 O          -1.8568  -11.3831  -46.0270 O.2       0 UNK        -0.5000 
      4 N          -2.6533  -13.4138  -45.4240 N.am      1 UNK        -0.5000 
      5 CA         -3.4379  -13.7173  -46.6284 C.3       1 UNK         0.1400 
      6 C6         -4.2548  -15.0210  -46.4413 C.3       23 UNK        -0.0398 
      7 S7         -5.6482  -15.1664  -47.6079 S.3       23 UNK        -0.2404 
      8 C8         -5.4636  -16.8798  -48.2039 C.3       23 UNK        -0.0205 
      9 C9         -4.2051  -17.0981  -49.0342 C.ar      23 UNK        -0.0193 
     10 C10        -4.0219  -16.3905  -50.2255 C.ar      23 UNK        -0.1150 
     11 C11        -2.8850  -16.5989  -51.0096 C.ar      23 UNK        -0.0193 
     12 C12        -1.9360  -17.5393  -50.6041 C.ar      23 UNK        -0.1150 
     13 C13        -2.1100  -18.2635  -49.4218 C.ar      23 UNK        -0.0193 
     14 C14        -3.2416  -18.0308  -48.6332 C.ar      23 UNK        -0.1150 
     15 C15        -1.0597  -19.2809  -49.0029 C.3       23 UNK        -0.0205 
     16 S16        -1.4124  -20.9274  -49.6777 S.3       23 UNK        -0.2404 
     17 C17        -2.4530  -21.6595  -48.3726 C.3       23 UNK        -0.0398 
     18 CA         -1.7278  -22.8347  -47.6776 C.3       11 UNK         0.1400 
     19 N          -0.5074  -22.4305  -46.9715 N.am      11 UNK        -0.5000 
     20 C           0.4439  -23.2881  -46.5733 C.2       10 UNK         0.5000 
     21 O           0.4124  -24.4967  -46.8051 O.2       10 UNK        -0.5000 
     22 CA          1.5947  -22.7121  -45.7272 C.3       10 UNK         0.1400 
     23 CB          2.7138  -22.1654  -46.6251 C.3       10 UNK        -0.1800 
     24 N           1.1441  -21.6713  -44.8007 N.am      10 UNK        -0.5000 
     25 C           0.3101  -21.8956  -43.7747 C.2       9 UNK         0.5000 
     26 O          -0.1284  -23.0098  -43.4935 O.2       9 UNK        -0.5000 
     27 CA         -0.1457  -20.6876  -42.9361 C.3       9 UNK         0.1400 
     28 CB          0.6947  -20.5807  -41.6554 C.3       9 UNK        -0.1800 
     29 N          -0.1088  -19.4121  -43.6506 N.am      9 UNK        -0.5000 
     30 C          -0.8306  -19.1088  -44.7388 C.2       8 UNK         0.5000 
     31 O          -1.6164  -19.8870  -45.2832 O.2       8 UNK        -0.5000 
     32 CA         -0.5813  -17.7147  -45.3460 C.3       8 UNK         0.1400 
     33 CB         -1.3248  -16.6338  -44.5500 C.3       8 UNK        -0.1800 
     34 N           0.8434  -17.3794  -45.4076 N.am      8 UNK        -0.5000 
     35 C           1.7604  -18.0597  -46.1122 C.2       7 UNK         0.5000 
     36 O           1.4881  -19.0092  -46.8440 O.2       7 UNK        -0.5000 
     37 CA          3.2308  -17.6441  -45.9309 C.3       7 UNK         0.1400 
     38 CB          3.6080  -16.4669  -46.8426 C.3       7 UNK        -0.1800 
     39 N           3.5251  -17.2976  -44.5424 N.am      7 UNK        -0.5000 
     40 C           3.6786  -18.1940  -43.5583 C.2       6 UNK         0.5000 
     41 O           3.6448  -19.4127  -43.7297 O.2       6 UNK        -0.5000 
     42 CA          3.8761  -17.6279  -42.1393 C.3       6 UNK         0.1400 
     43 CB          5.3626  -17.3493  -41.8708 C.3       6 UNK        -0.1800 
     44 N           3.1051  -16.4045  -41.9037 N.am      6 UNK        -0.5000 
     45 C           1.7668  -16.3563  -41.8505 C.2       5 UNK         0.5000 
     46 O           1.0439  -17.3427  -41.9786 O.2       5 UNK        -0.5000 
     47 CA          1.1263  -14.9674  -41.6757 C.3       5 UNK         0.1400 
     48 CB          1.0317  -14.5983  -40.1883 C.3       5 UNK        -0.1800 
     49 N           1.8275  -13.9024  -42.3986 N.am      5 UNK        -0.5000 
     50 C           1.9728  -13.8527  -43.7282 C.2       4 UNK         0.5000 
     51 O           1.5723  -14.7324  -44.4970 O.2       4 UNK        -0.5000 
     52 CA          2.7018  -12.6263  -44.2904 C.3       4 UNK         0.1400 
     53 CB          4.2247  -12.8071  -44.1851 C.3       4 UNK        -0.1800 
     54 N           2.3350  -12.4754  -45.6935 N.am      4 UNK        -0.5000 
     55 C           2.0332  -11.3285  -46.3145 C.2       3 UNK         0.5000 
     56 O           2.0666  -10.2224  -45.7750 O.2       3 UNK        -0.5000 
     57 CA          1.6108  -11.4489  -47.7873 C.3       3 UNK         0.1400 
     58 CB          2.8763  -11.4588  -48.6723 C.3       3 UNK        -0.1800 
     59 N           0.8000  -12.6586  -47.9554 N.am      3 UNK        -0.5000 
     60 C           0.3549  -13.2132  -49.0898 C.2       2 UNK         0.5000 
     61 O           0.5424  -12.7575  -50.2176 O.2       2 UNK        -0.5000 
     62 CA         -0.4457  -14.5150  -48.9164 C.3       2 UNK         0.1400 
     63 CB          0.5054  -15.6855  -48.6355 C.3       2 UNK        -0.1800 
     64 N          -1.4138  -14.4209  -47.8244 N.am      2 UNK        -0.5000 
     65 C          -2.5747  -13.7563  -47.9095 C.2       1 UNK         0.5000 
     66 O          -2.9567  -13.1688  -48.9227 O.2       1 UNK        -0.5000 
     67 C          -2.6774  -23.5902  -46.7324 C.2       11 UNK         0.5000 
     68 O          -3.2242  -24.6184  -47.1288 O.2       11 UNK        -0.5000 
     69 N          -2.8084  -23.1102  -45.4862 N.am      12 UNK        -0.5000 
     70 CA         -3.6090  -23.7502  -44.4401 C.3       12 UNK         0.1400 
     71 CB         -3.6752  -22.8408  -43.2043 C.3       12 UNK        -0.1800 
     72 C          -3.0887  -25.1526  -44.0698 C.2       12 UNK         0.5000 
     73 O          -3.8882  -26.0794  -43.9423 O.2       12 UNK        -0.5000 
     74 N          -1.7598  -25.2988  -43.9670 N.am      13 UNK        -0.5000 
     75 CA         -1.0666  -26.5704  -43.7432 C.3       13 UNK         0.1400 
     76 CB          0.4224  -26.2978  -43.4828 C.3       13 UNK        -0.1800 
     77 C          -1.2390  -27.5688  -44.9051 C.2       13 UNK         0.5000 
     78 O          -1.3236  -28.7732  -44.6632 O.2       13 UNK        -0.5000 
     79 N          -1.3246  -27.0507  -46.1377 N.am      14 UNK        -0.5000 
     80 CA         -1.6228  -27.8127  -47.3529 C.3       14 UNK         0.1400 
     81 CB         -1.0884  -27.0346  -48.5671 C.3       14 UNK        -0.1800 
     82 C          -3.1254  -28.1279  -47.5260 C.2       14 UNK         0.5000 
     83 O          -3.4781  -28.8536  -48.4567 O.2       14 UNK        -0.5000 
     84 N          -3.9768  -27.5752  -46.6477 N.am      15 UNK        -0.5000 
     85 CA         -5.4415  -27.6447  -46.6439 C.3       15 UNK         0.1400 
     86 CB         -5.9296  -29.0924  -46.4265 C.3       15 UNK        -0.1800 
     87 C          -6.0862  -26.9601  -47.8688 C.2       15 UNK         0.5000 
     88 O          -7.1518  -27.3830  -48.3220 O.2       15 UNK        -0.5000 
     89 N          -5.4366  -25.9051  -48.3737 N.am      16 UNK        -0.5000 
     90 CA         -5.9138  -25.0596  -49.4615 C.3       16 UNK         0.1400 
     91 CB         -4.7399  -24.7754  -50.4133 C.3       16 UNK        -0.1800 
     92 C          -6.4570  -23.7438  -48.8851 C.2       16 UNK         0.5000 
     93 O          -5.9298  -23.2430  -47.8891 O.2       16 UNK        -0.5000 
     94 N          -7.4770  -23.1791  -49.5431 N.am      17 UNK        -0.5000 
     95 CA         -8.0127  -21.8525  -49.2218 C.3       17 UNK         0.1400 
     96 CB         -9.3728  -21.6704  -49.9131 C.3       17 UNK        -0.1800 
     97 C          -7.0416  -20.7259  -49.6245 C.2       17 UNK         0.5000 
     98 O          -6.9362  -19.7272  -48.9146 O.2       17 UNK        -0.5000 
     99 N          -6.3421  -20.9331  -50.7443 N.am      18 UNK        -0.5000 
    100 CA        -5.3090  -20.0836  -51.3196 C.3       18 UNK         0.1400 
    101 CB        -5.9415  -18.8347  -51.9575 C.3       18 UNK        -0.1800 
    102 C         -4.5757  -20.9340  -52.3668 C.2       18 UNK         0.5000 
    103 O         -5.1962  -21.8199  -52.9632 O.2       18 UNK        -0.5000 
    104 N         -3.2833  -20.6712  -52.5700 N.am      19 UNK        -0.5000 
    105 CA        -2.3961  -21.4087  -53.4673 C.3       19 UNK         0.1400 
    106 CB        -2.1261  -22.8293  -52.9176 C.3       19 UNK        -0.1800 
    107 C         -1.0922  -20.6126  -53.6520 C.2       19 UNK         0.5000 
    108 O         -0.9795  -19.4939  -53.1488 O.2       19 UNK        -0.5000 
    109 N         -0.1278  -21.2112  -54.3653 N.am      20 UNK        -0.5000 
    110 CA         1.2271  -20.7007  -54.6137 C.3       20 UNK         0.1400 
    111 CB         2.0134  -20.5449  -53.2931 C.3       20 UNK        -0.1800 
    112 C          1.2653  -19.4354  -55.4987 C.2       20 UNK         0.5000 
    113 O          2.1510  -18.5960  -55.3283 O.2       20 UNK        -0.5000 
    114 N          0.3262  -19.3567  -56.4554 N.am      21 UNK        -0.5000 
    115 CA         0.1948  -18.3329  -57.4990 C.3       21 UNK         0.1400 
    116 CB         1.3595  -18.4380  -58.5067 C.3       21 UNK        -0.1800 
    117 C          0.0233  -16.9105  -56.9270 C.2       21 UNK         0.5000 
    118 O          0.9161  -16.0709  -57.0638 O.2       21 UNK        -0.5000 
    119 N         -1.1276  -16.6823  -56.2820 N.am      22 UNK        -0.5000 
    120 CA        -1.5546  -15.3934  -55.7107 C.3       22 UNK         0.1400 
    121 C         -1.5545  -14.2250  -56.7391 C.2       22 UNK         0.5000 
    122 N         -1.1158  -13.0381  -56.3423 N.am      22 UNK        -0.7600 
    123 O         -1.9947  -14.3753  -57.8772 O.2       22 UNK        -0.5000 
    124 C124       -2.9567  -15.4971  -55.0580 C.3       23 UNK        -0.0398 
    125 S125       -3.0677  -16.7744  -53.7622 S.3       23 UNK        -0.2404 
    126 C126       -2.6725  -15.7954  -52.2821 C.3       23 UNK        -0.0205 
    127 H127       -1.8043  -11.5385  -43.1954 H         1 UNK         0.0600 
    128 H128       -1.1134  -13.1541  -43.3914 H         1 UNK         0.0600 
    129 H129       -0.2482  -11.7405  -44.0016 H         1 UNK         0.0600 
    130 H130       -2.7048  -14.1002  -44.6858 H         1 UNK         0.3000 
    131 H131       -4.1443  -12.8921  -46.7437 H         1 UNK         0.0600 
    132 H132       -4.6878  -15.0479  -45.4404 H         1 UNK         0.0800 
    133 H133       -3.6111  -15.8987  -46.5100 H         1 UNK         0.0800 
    134 H134       -6.3294  -17.1223  -48.8209 H         1 UNK         0.0800 
    135 H135       -5.4955  -17.5633  -47.3540 H         1 UNK         0.0800 
    136 H136       -4.7650  -15.6699  -50.5368 H         1 UNK         0.1150 
    137 H137       -1.0585  -17.7074  -51.2128 H         1 UNK         0.1150 
    138 H138       -3.3789  -18.5857  -47.7161 H         1 UNK         0.1150 
    139 H139       -0.0772  -18.9659  -49.3575 H         1 UNK         0.0800 
    140 H140       -0.9820  -19.3390  -47.9193 H         1 UNK         0.0800 
    141 H141       -2.7496  -20.9016  -47.6467 H         1 UNK         0.0800 
    142 H142       -3.3755  -22.0023  -48.8454 H         1 UNK         0.0800 
    143 H143       -1.4370  -23.5418  -48.4581 H         1 UNK         0.0600 
    144 H144       -0.4258  -21.4548  -46.7199 H         1 UNK         0.3000 
    145 H145        2.0101  -23.5274  -45.1310 H         1 UNK         0.0600 
    146 H146        2.3443  -21.4097  -47.3180 H         1 UNK         0.0600 
    147 H147        3.5153  -21.7199  -46.0353 H         1 UNK         0.0600 
    148 H148        3.1532  -22.9645  -47.2232 H         1 UNK         0.0600 
    149 H149        1.4607  -20.7279  -44.9780 H         1 UNK         0.3000 
    150 H150       -1.1821  -20.8667  -42.6457 H         1 UNK         0.0600 
    151 H151        0.3080  -19.8055  -40.9937 H         1 UNK         0.0600 
    152 H152        1.7357  -20.3443  -41.8774 H         1 UNK         0.0600 
    153 H153        0.6813  -21.5178  -41.0973 H         1 UNK         0.0600 
    154 H154        0.4724  -18.6873  -43.2386 H         1 UNK         0.3000 
    155 H155       -0.9713  -17.7057  -46.3638 H         1 UNK         0.0600 
    156 H156       -2.4025  -16.7939  -44.5893 H         1 UNK         0.0600 
    157 H157       -1.1160  -15.6429  -44.9484 H         1 UNK         0.0600 
    158 H158       -1.0367  -16.6343  -43.4995 H         1 UNK         0.0600 
    159 H159        1.1465  -16.5729  -44.8699 H         1 UNK         0.3000 
    160 H160        3.8494  -18.4977  -46.2170 H         1 UNK         0.0600 
    161 H161        4.6790  -16.2686  -46.7998 H         1 UNK         0.0600 
    162 H162        3.0921  -15.5503  -46.5598 H         1 UNK         0.0600 
    163 H163        3.3606  -16.6823  -47.8829 H         1 UNK         0.0600 
    164 H164        3.5205  -16.3165  -44.3070 H         1 UNK         0.3000 
    165 H165        3.5365  -18.3858  -41.4299 H         1 UNK         0.0600 
    166 H166        5.7556  -16.5791  -42.5357 H         1 UNK         0.0600 
    167 H167        5.5229  -17.0209  -40.8438 H         1 UNK         0.0600 
    168 H168        5.9611  -18.2490  -42.0203 H         1 UNK         0.0600 
    169 H169        3.6254  -15.5474  -41.7893 H         1 UNK         0.3000 
    170 H170        0.1115  -15.0235  -42.0737 H         1 UNK         0.0600 
    171 H171        0.4961  -15.3665  -39.6286 H         1 UNK         0.0600 
    172 H172        2.0181  -14.4898  -39.7356 H         1 UNK         0.0600 
    173 H173        0.4923  -13.6614  -40.0481 H         1 UNK         0.0600 
    174 H174        2.1933  -13.1470  -41.8367 H         1 UNK         0.3000 
    175 H175        2.3938  -11.7485  -43.7185 H         1 UNK         0.0600 
    176 H176        4.7504  -11.9427  -44.5914 H         1 UNK         0.0600 
    177 H177        4.5388  -12.9178  -43.1465 H         1 UNK         0.0600 
    178 H178        4.5648  -13.6895  -44.7292 H         1 UNK         0.0600 
    179 H179        2.2639  -13.3469  -46.1994 H         1 UNK         0.3000 
    180 H180        0.9955  -10.5835  -48.0397 H         1 UNK         0.0600 
    181 H181        2.6341  -11.3436  -49.7281 H         1 UNK         0.0600 
    182 H182        3.5408  -10.6327  -48.4148 H         1 UNK         0.0600 
    183 H183        3.4427  -12.3833  -48.5548 H         1 UNK         0.0600 
    184 H184        0.4996  -13.0810  -47.0892 H         1 UNK         0.3000 
    185 H185       -0.9783  -14.7174  -49.8474 H         1 UNK         0.0600 
    186 H186       -0.0375  -16.6210  -48.5227 H         1 UNK         0.0600 
    187 H187        1.2206  -15.8171  -49.4483 H         1 UNK         0.0600 
    188 H188        1.0685  -15.5231  -47.7185 H         1 UNK         0.0600 
    189 H189       -1.1695  -14.8666  -46.9544 H         1 UNK         0.3000 
    190 H190       -2.3156  -22.2638  -45.2356 H         1 UNK         0.3000 
    191 H191       -4.6228  -23.8645  -44.8303 H         1 UNK         0.0600 
    192 H192       -4.3529  -23.2543  -42.4565 H         1 UNK         0.0600 
    193 H193       -4.0419  -21.8469  -43.4620 H         1 UNK         0.0600 
    194 H194       -2.7004  -22.7285  -42.7310 H         1 UNK         0.0600 
    195 H195       -1.1736  -24.4687  -44.0176 H         1 UNK         0.3000 
    196 H196       -1.4916  -27.0286  -42.8479 H         1 UNK         0.0600 
    197 H197        0.9631  -27.2256  -43.2914 H         1 UNK         0.0600 
    198 H198        0.5591  -25.6560  -42.6123 H         1 UNK         0.0600 
    199 H199        0.8962  -25.8100  -44.3353 H         1 UNK         0.0600 
    200 H200       -1.2076  -26.0517  -46.2531 H         1 UNK         0.3000 
    201 H201       -1.0948  -28.7672  -47.3055 H         1 UNK         0.0600 
    202 H202       -0.0218  -26.8322  -48.4681 H         1 UNK         0.0600 
    203 H203       -1.5996  -26.0801  -48.6919 H         1 UNK         0.0600 
    204 H204       -1.2265  -27.6016  -49.4884 H         1 UNK         0.0600 
    205 H205       -3.5814  -26.9818  -45.9292 H         1 UNK         0.3000 
    206 H206       -5.7629  -27.0623  -45.7796 H         1 UNK         0.0600 
    207 H207       -5.4563  -29.5403  -45.5527 H         1 UNK         0.0600 
    208 H208       -7.0070  -29.1203  -46.2599 H         1 UNK         0.0600 
    209 H209       -5.7171  -29.7273  -47.2869 H         1 UNK         0.0600 
    210 H210       -4.6080  -25.5618  -47.8904 H         1 UNK         0.3000 
    211 H211       -6.7047  -25.5619  -50.0221 H         1 UNK         0.0600 
    212 H212       -5.0562  -24.1540  -51.2518 H         1 UNK         0.0600 
    213 H213       -4.3373  -25.7000  -50.8274 H         1 UNK         0.0600 
    214 H214       -3.9249  -24.2556  -49.9081 H         1 UNK         0.0600 
    215 H215       -7.8719  -23.6478  -50.3458 H         1 UNK         0.3000 
    216 H216       -8.1686  -21.7911  -48.1425 H         1 UNK         0.0600 
    217 H217       -9.8021  -20.6961  -49.6759 H         1 UNK         0.0600 
    218 H218      -10.0859  -22.4272  -49.5861 H         1 UNK         0.0600 
    219 H219       -9.2868  -21.7353  -50.9985 H         1 UNK         0.0600 
    220 H220       -6.4859  -21.7890  -51.2654 H         1 UNK         0.3000 
    221 H221       -4.6063  -19.7919  -50.5368 H         1 UNK         0.0600 
    222 H222       -6.6665  -19.0997  -52.7278 H         1 UNK         0.0600 
    223 H223       -6.4491  -18.2201  -51.2145 H         1 UNK         0.0600 
    224 H224       -5.1807  -18.2106  -52.4226 H         1 UNK         0.0600 
    225 H225       -2.8293  -19.8988  -52.0944 H         1 UNK         0.3000 
    226 H226       -2.8771  -21.4836  -54.4443 H         1 UNK         0.0600 
    227 H227       -1.5208  -23.4172  -53.6076 H         1 UNK         0.0600 
    228 H228       -1.5973  -22.7980  -51.9652 H         1 UNK         0.0600 
    229 H229       -3.0485  -23.3882  -52.7642 H         1 UNK         0.0600 
    230 H230       -0.3181  -22.1269  -54.7477 H         1 UNK         0.3000 
    231 H231        1.7318  -21.4747  -55.1935 H         1 UNK         0.0600 
    232 H232        3.0658  -20.3348  -53.4869 H         1 UNK         0.0600 
    233 H233        1.9706  -21.4572  -52.6982 H         1 UNK         0.0600 
    234 H234        1.6265  -19.7286  -52.6825 H         1 UNK         0.0600 
    235 H235       -0.3622  -20.0951  -56.4834 H         1 UNK         0.3000 
    236 H236       -0.7223  -18.5613  -58.0443 H         1 UNK         0.0600 
    237 H237        2.3233  -18.2278  -58.0419 H         1 UNK         0.0600 
    238 H238        1.4108  -19.4339  -58.9465 H         1 UNK         0.0600 
    239 H239        1.2306  -17.7284  -59.3248 H         1 UNK         0.0600 
    240 H240       -1.7883  -17.4388  -56.1856 H         1 UNK         0.3000 
    241 H241       -0.8343  -15.1501  -54.9274 H         1 UNK         0.0600 
    242 H242       -1.1263  -12.2695  -56.9952 H         1 UNK         0.3800 
    243 H243       -0.7558  -12.8887  -55.4121 H         1 UNK         0.3800 
    244 H244       -3.7069  -15.7313  -55.8155 H         1 UNK         0.0800 
    245 H245       -3.2553  -14.5374  -54.6323 H         1 UNK         0.0800 
    246 H246       -1.6353  -15.4615  -52.3362 H         1 UNK         0.0800 
    247 H247       -3.2878  -14.8946  -52.2609 H         1 UNK         0.0800 
@<TRIPOS>BOND
     1    1    2 1    
     2    1  127 1    
     3    1  128 1    
     4    1  129 1    
     5    2    3 2    
     6    2    4 am   BACKBONE|DICT|INTERRES
     7    4    5 1    
     8    4  130 1    
     9    5    6 1    
    10    5   65 1    
    11    5  131 1    
    12    6    7 1    
    13    6  132 1    
    14    6  133 1    
    15    7    8 1    
    16    8    9 1    
    17    8  134 1    
    18    8  135 1    
    19    9   10 ar   
    20    9   14 ar   
    21   10   11 ar   
    22   10  136 1    
    23   11   12 ar   
    24   11  126 1    
    25   12   13 ar   
    26   12  137 1    
    27   13   14 ar   
    28   13   15 1    
    29   14  138 1    
    30   15   16 1    
    31   15  139 1    
    32   15  140 1    
    33   16   17 1    
    34   17   18 1    
    35   17  141 1    
    36   17  142 1    
    37   18   19 1    
    38   18   67 1    
    39   18  143 1    
    40   19   20 am   BACKBONE|DICT|INTERRES
    41   19  144 1    
    42   20   21 2    
    43   20   22 1    
    44   22   23 1    
    45   22   24 1    
    46   22  145 1    
    47   23  146 1    
    48   23  147 1    
    49   23  148 1    
    50   24   25 am   BACKBONE|DICT|INTERRES
    51   24  149 1    
    52   25   26 2    
    53   25   27 1    
    54   27   28 1    
    55   27   29 1    
    56   27  150 1    
    57   28  151 1    
    58   28  152 1    
    59   28  153 1    
    60   29   30 am   BACKBONE|DICT|INTERRES
    61   29  154 1    
    62   30   31 2    
    63   30   32 1    
    64   32   33 1    
    65   32   34 1    
    66   32  155 1    
    67   33  156 1    
    68   33  157 1    
    69   33  158 1    
    70   34   35 am   BACKBONE|DICT|INTERRES
    71   34  159 1    
    72   35   36 2    
    73   35   37 1    
    74   37   38 1    
    75   37   39 1    
    76   37  160 1    
    77   38  161 1    
    78   38  162 1    
    79   38  163 1    
    80   39   40 am   BACKBONE|DICT|INTERRES
    81   39  164 1    
    82   40   41 2    
    83   40   42 1    
    84   42   43 1    
    85   42   44 1    
    86   42  165 1    
    87   43  166 1    
    88   43  167 1    
    89   43  168 1    
    90   44   45 am   BACKBONE|DICT|INTERRES
    91   44  169 1    
    92   45   46 2    
    93   45   47 1    
    94   47   48 1    
    95   47   49 1    
    96   47  170 1    
    97   48  171 1    
    98   48  172 1    
    99   48  173 1    
   100   49   50 am   BACKBONE|DICT|INTERRES
   101   49  174 1    
   102   50   51 2    
   103   50   52 1    
   104   52   53 1    
   105   52   54 1    
   106   52  175 1    
   107   53  176 1    
   108   53  177 1    
   109   53  178 1    
   110   54   55 am   BACKBONE|DICT|INTERRES
   111   54  179 1    
   112   55   56 2    
   113   55   57 1    
   114   57   58 1    
   115   57   59 1    
   116   57  180 1    
   117   58  181 1    
   118   58  182 1    
   119   58  183 1    
   120   59   60 am   BACKBONE|DICT|INTERRES
   121   59  184 1    
   122   60   61 2    
   123   60   62 1    
   124   62   63 1    
   125   62   64 1    
   126   62  185 1    
   127   63  186 1    
   128   63  187 1    
   129   63  188 1    
   130   64   65 am   BACKBONE|DICT|INTERRES
   131   64  189 1    
   132   65   66 2    
   133   67   68 2    
   134   67   69 am   BACKBONE|DICT|INTERRES
   135   69   70 1    
   136   69  190 1    
   137   70   71 1    
   138   70   72 1    
   139   70  191 1    
   140   71  192 1    
   141   71  193 1    
   142   71  194 1    
   143   72   73 2    
   144   72   74 am   BACKBONE|DICT|INTERRES
   145   74   75 1    
   146   74  195 1    
   147   75   76 1    
   148   75   77 1    
   149   75  196 1    
   150   76  197 1    
   151   76  198 1    
   152   76  199 1    
   153   77   78 2    
   154   77   79 am   BACKBONE|DICT|INTERRES
   155   79   80 1    
   156   79  200 1    
   157   80   81 1    
   158   80   82 1    
   159   80  201 1    
   160   81  202 1    
   161   81  203 1    
   162   81  204 1    
   163   82   83 2    
   164   82   84 am   BACKBONE|DICT|INTERRES
   165   84   85 1    
   166   84  205 1    
   167   85   86 1    
   168   85   87 1    
   169   85  206 1    
   170   86  207 1    
   171   86  208 1    
   172   86  209 1    
   173   87   88 2    
   174   87   89 am   BACKBONE|DICT|INTERRES
   175   89   90 1    
   176   89  210 1    
   177   90   91 1    
   178   90   92 1    
   179   90  211 1    
   180   91  212 1    
   181   91  213 1    
   182   91  214 1    
   183   92   93 2    
   184   92   94 am   BACKBONE|DICT|INTERRES
   185   94   95 1    
   186   94  215 1    
   187   95   96 1    
   188   95   97 1    
   189   95  216 1    
   190   96  217 1    
   191   96  218 1    
   192   96  219 1    
   193   97   98 2    
   194   97   99 am   BACKBONE|DICT|INTERRES
   195   99  100 1    
   196   99  220 1    
   197  100  101 1    
   198  100  102 1    
   199  100  221 1    
   200  101  222 1    
   201  101  223 1    
   202  101  224 1    
   203  102  103 2    
   204  102  104 am   BACKBONE|DICT|INTERRES
   205  104  105 1    
   206  104  225 1    
   207  105  106 1    
   208  105  107 1    
   209  105  226 1    
   210  106  227 1    
   211  106  228 1    
   212  106  229 1    
   213  107  108 2    
   214  107  109 am   BACKBONE|DICT|INTERRES
   215  109  110 1    
   216  109  230 1    
   217  110  111 1    
   218  110  112 1    
   219  110  231 1    
   220  111  232 1    
   221  111  233 1    
   222  111  234 1    
   223  112  113 2    
   224  112  114 am   BACKBONE|DICT|INTERRES
   225  114  115 1    
   226  114  235 1    
   227  115  116 1    
   228  115  117 1    
   229  115  236 1    
   230  116  237 1    
   231  116  238 1    
   232  116  239 1    
   233  117  118 2    
   234  117  119 am   BACKBONE|DICT|INTERRES
   235  119  120 1    
   236  119  240 1    
   237  120  121 1    
   238  120  124 1    
   239  120  241 1    
   240  121  122 am   BACKBONE|DICT|INTERRES
   241  121  123 2    
   242  122  242 1    
   243  122  243 1    
   244  124  125 1    
   245  124  244 1    
   246  124  245 1    
   247  125  126 1    
   248  126  246 1    
   249  126  247 1    
@<TRIPOS>SUBSTRUCTURE
     1 UNK         1 GROUP             0       ****    0 ROOT    
