@<TRIPOS>MOLECULE
3R540
247   249    1
SMALL
USER_CHARGES


@<TRIPOS>ATOM
      1 CA         -3.9932  -17.5241  -48.8966 C.3       0 UNK        -0.1800 
      2 C          -4.1889  -16.1889  -48.2040 C.2       0 UNK         0.5000 
      3 O          -5.2878  -15.8934  -47.7368 O.2       0 UNK        -0.5000 
      4 N          -3.1233  -15.3822  -48.1409 N.am      1 UNK        -0.5000 
      5 CA         -3.1184  -14.0499  -47.5279 C.3       1 UNK         0.1400 
      6 C6         -1.9541  -13.1768  -48.0588 C.3       23 UNK        -0.0398 
      7 S7         -0.2883  -13.8661  -47.7578 S.3       23 UNK        -0.2404 
      8 C8          0.3414  -14.1726  -49.4415 C.3       23 UNK        -0.0205 
      9 C9         -0.1355  -15.4978  -50.0231 C.ar      23 UNK        -0.0193 
     10 C10        -1.2675  -15.5459  -50.8438 C.ar      23 UNK        -0.1150 
     11 C11        -1.6843  -16.7551  -51.4098 C.ar      23 UNK        -0.0193 
     12 C12        -0.9601  -17.9195  -51.1491 C.ar      23 UNK        -0.1150 
     13 C13         0.1839  -17.8854  -50.3476 C.ar      23 UNK        -0.0193 
     14 C14         0.5870  -16.6722  -49.7806 C.ar      23 UNK        -0.1150 
     15 C15         0.9944  -19.1589  -50.1298 C.3       23 UNK        -0.0205 
     16 S16         0.7767  -19.8796  -48.4720 S.3       23 UNK        -0.2404 
     17 C17        -1.0376  -19.9160  -48.3126 C.3       23 UNK        -0.0398 
     18 CA         -1.5930  -21.1350  -47.5425 C.3       11 UNK         0.1400 
     19 N          -0.9386  -21.3642  -46.2498 N.am      11 UNK        -0.5000 
     20 C          -1.0836  -22.4756  -45.5136 C.2       10 UNK         0.5000 
     21 O          -1.7514  -23.4426  -45.8733 O.2       10 UNK        -0.5000 
     22 CA         -0.4137  -22.4993  -44.1274 C.3       10 UNK         0.1400 
     23 CB          1.0189  -23.0414  -44.2325 C.3       10 UNK        -0.1800 
     24 N          -0.3983  -21.1818  -43.4909 N.am      10 UNK        -0.5000 
     25 C          -1.4950  -20.5406  -43.0565 C.2       9 UNK         0.5000 
     26 O          -2.6216  -21.0362  -43.0831 O.2       9 UNK        -0.5000 
     27 CA         -1.3210  -19.0806  -42.5821 C.3       9 UNK         0.1400 
     28 CB         -1.0293  -19.0271  -41.0765 C.3       9 UNK        -0.1800 
     29 N          -0.2587  -18.3723  -43.2997 N.am      9 UNK        -0.5000 
     30 C          -0.2078  -18.2106  -44.6275 C.2       8 UNK         0.5000 
     31 O          -1.1761  -18.4178  -45.3607 O.2       8 UNK        -0.5000 
     32 CA          1.1526  -17.8404  -45.2552 C.3       8 UNK         0.1400 
     33 CB          1.0825  -16.4958  -45.9818 C.3       8 UNK        -0.1800 
     34 N           2.3015  -17.8505  -44.3439 N.am      8 UNK        -0.5000 
     35 C           2.7896  -18.9325  -43.7187 C.2       7 UNK         0.5000 
     36 O           2.2555  -20.0409  -43.7767 O.2       7 UNK        -0.5000 
     37 CA          4.0763  -18.7352  -42.8882 C.3       7 UNK         0.1400 
     38 CB          4.7466  -20.0661  -42.4893 C.3       7 UNK        -0.1800 
     39 N           5.0398  -17.8428  -43.5394 N.am      7 UNK        -0.5000 
     40 C           5.5841  -17.9818  -44.7606 C.2       6 UNK         0.5000 
     41 O           5.4202  -18.9748  -45.4710 O.2       6 UNK        -0.5000 
     42 CA          6.4613  -16.8188  -45.2822 C.3       6 UNK         0.1400 
     43 CB          6.2473  -16.5630  -46.7893 C.3       6 UNK        -0.1800 
     44 N           6.3238  -15.5673  -44.5232 N.am      6 UNK        -0.5000 
     45 C           5.2133  -14.8335  -44.3650 C.2       5 UNK         0.5000 
     46 O           4.1217  -15.1016  -44.8716 O.2       5 UNK        -0.5000 
     47 CA          5.3355  -13.6220  -43.4251 C.3       5 UNK         0.1400 
     48 CB          5.1983  -12.3083  -44.2097 C.3       5 UNK        -0.1800 
     49 N           4.3169  -13.6633  -42.3780 N.am      5 UNK        -0.5000 
     50 C           4.1578  -14.6422  -41.4738 C.2       4 UNK         0.5000 
     51 O           4.9181  -15.6056  -41.3629 O.2       4 UNK        -0.5000 
     52 CA          2.9178  -14.5366  -40.5636 C.3       4 UNK         0.1400 
     53 CB          3.2551  -13.7729  -39.2744 C.3       4 UNK        -0.1800 
     54 N           1.7994  -13.8754  -41.2422 N.am      4 UNK        -0.5000 
     55 C           1.0919  -14.4430  -42.2271 C.2       3 UNK         0.5000 
     56 O           1.2167  -15.6230  -42.5613 O.2       3 UNK        -0.5000 
     57 CA          0.1397  -13.5106  -42.9984 C.3       3 UNK         0.1400 
     58 CB          0.9204  -12.7077  -44.0525 C.3       3 UNK        -0.1800 
     59 N          -0.9266  -14.2440  -43.6746 N.am      3 UNK        -0.5000 
     60 C          -1.9656  -14.8255  -43.0640 C.2       2 UNK         0.5000 
     61 O          -2.1464  -14.7809  -41.8458 O.2       2 UNK        -0.5000 
     62 CA         -2.9689  -15.5861  -43.9580 C.3       2 UNK         0.1400 
     63 CB         -4.4200  -15.4588  -43.4485 C.3       2 UNK        -0.1800 
     64 N          -2.8854  -15.2597  -45.3878 N.am      2 UNK        -0.5000 
     65 C          -3.1747  -14.0894  -45.9819 C.2       1 UNK         0.5000 
     66 O          -3.4895  -13.0688  -45.3690 O.2       1 UNK        -0.5000 
     67 C          -3.1138  -20.9690  -47.3651 C.2       11 UNK         0.5000 
     68 O          -3.8847  -21.4862  -48.1725 O.2       11 UNK        -0.5000 
     69 N          -3.5170  -20.2638  -46.2980 N.am      12 UNK        -0.5000 
     70 CA         -4.9138  -20.0971  -45.8991 C.3       12 UNK         0.1400 
     71 CB         -5.0134  -19.0280  -44.8025 C.3       12 UNK        -0.1800 
     72 C          -5.5534  -21.4279  -45.4639 C.2       12 UNK         0.5000 
     73 O          -6.6705  -21.7254  -45.8867 O.2       12 UNK        -0.5000 
     74 N          -4.8110  -22.2374  -44.6935 N.am      13 UNK        -0.5000 
     75 CA         -5.1937  -23.6001  -44.3081 C.3       13 UNK         0.1400 
     76 CB         -4.1921  -24.1427  -43.2782 C.3       13 UNK        -0.1800 
     77 C          -5.3151  -24.5575  -45.5125 C.2       13 UNK         0.5000 
     78 O          -6.2033  -25.4097  -45.5251 O.2       13 UNK        -0.5000 
     79 N          -4.4543  -24.3665  -46.5217 N.am      14 UNK        -0.5000 
     80 CA         -4.4760  -25.0624  -47.8112 C.3       14 UNK         0.1400 
     81 CB         -3.0686  -25.0128  -48.4275 C.3       14 UNK        -0.1800 
     82 C          -5.5359  -24.5215  -48.7979 C.2       14 UNK         0.5000 
     83 O          -5.6053  -25.0153  -49.9224 O.2       14 UNK        -0.5000 
     84 N          -6.3456  -23.5435  -48.3670 N.am      15 UNK        -0.5000 
     85 CA         -7.4663  -22.9291  -49.0801 C.3       15 UNK         0.1400 
     86 CB         -8.5751  -23.9582  -49.3870 C.3       15 UNK        -0.1800 
     87 C          -7.0443  -22.0768  -50.2939 C.2       15 UNK         0.5000 
     88 O          -7.6896  -22.1292  -51.3430 O.2       15 UNK        -0.5000 
     89 N          -6.0007  -21.2580  -50.0972 N.am      16 UNK        -0.5000 
     90 CA         -5.5795  -20.1230  -50.9237 C.3       16 UNK         0.1400 
     91 CB         -6.6134  -18.9798  -50.8231 C.3       16 UNK        -0.1800 
     92 C          -5.2448  -20.5002  -52.3763 C.2       16 UNK         0.5000 
     93 O          -4.1114  -20.8854  -52.6511 O.2       16 UNK        -0.5000 
     94 N          -6.2256  -20.3986  -53.2825 N.am      17 UNK        -0.5000 
     95 CA         -6.1051  -20.7806  -54.6916 C.3       17 UNK         0.1400 
     96 CB         -7.3779  -20.3486  -55.4352 C.3       17 UNK        -0.1800 
     97 C          -5.8397  -22.2862  -54.8987 C.2       17 UNK         0.5000 
     98 O          -5.2795  -22.6644  -55.9277 O.2       17 UNK        -0.5000 
     99 N          -6.2298  -23.1105  -53.9169 N.am      18 UNK        -0.5000 
    100 CA        -5.9646  -24.5474  -53.8801 C.3       18 UNK         0.1400 
    101 CB        -7.0898  -25.2318  -53.0906 C.3       18 UNK        -0.1800 
    102 C         -4.5763  -24.9020  -53.3022 C.2       18 UNK         0.5000 
    103 O         -4.2024  -26.0759  -53.3465 O.2       18 UNK        -0.5000 
    104 N         -3.8279  -23.9148  -52.7829 N.am      19 UNK        -0.5000 
    105 CA        -2.4546  -24.0888  -52.3033 C.3       19 UNK         0.1400 
    106 CB        -2.0682  -22.9008  -51.4035 C.3       19 UNK        -0.1800 
    107 C         -1.4569  -24.2479  -53.4700 C.2       19 UNK         0.5000 
    108 O         -1.8025  -24.0128  -54.6309 O.2       19 UNK        -0.5000 
    109 N         -0.2219  -24.6436  -53.1343 N.am      20 UNK        -0.5000 
    110 CA         0.8593  -24.9269  -54.0850 C.3       20 UNK         0.1400 
    111 CB         2.0284  -25.5726  -53.3247 C.3       20 UNK        -0.1800 
    112 C          1.3531  -23.7059  -54.8896 C.2       20 UNK         0.5000 
    113 O          1.9196  -23.8874  -55.9686 O.2       20 UNK        -0.5000 
    114 N          1.1364  -22.4962  -54.3638 N.am      21 UNK        -0.5000 
    115 CA         1.4777  -21.2219  -54.9846 C.3       21 UNK         0.1400 
    116 CB         2.9728  -20.9194  -54.7695 C.3       21 UNK        -0.1800 
    117 C          0.5996  -20.1222  -54.3722 C.2       21 UNK         0.5000 
    118 O          0.0133  -20.3308  -53.3085 O.2       21 UNK        -0.5000 
    119 N          0.5501  -18.9691  -55.0426 N.am      22 UNK        -0.5000 
    120 CA        -0.1058  -17.7339  -54.6023 C.3       22 UNK         0.1400 
    121 C          0.4417  -16.5554  -55.4510 C.2       22 UNK         0.5000 
    122 N          0.7110  -15.4091  -54.8418 N.am      22 UNK        -0.7600 
    123 O          0.6198  -16.6717  -56.6622 O.2       22 UNK        -0.5000 
    124 C124       -1.6572  -17.8454  -54.6369 C.3       23 UNK        -0.0398 
    125 S125       -2.5406  -16.3651  -54.0211 S.3       23 UNK        -0.2404 
    126 C126       -2.9184  -16.8102  -52.2979 C.3       23 UNK        -0.0205 
    127 H127       -4.4976  -18.3176  -48.3487 H         1 UNK         0.0600 
    128 H128       -2.9395  -17.7806  -48.9812 H         1 UNK         0.0600 
    129 H129       -4.4133  -17.4725  -49.8982 H         1 UNK         0.0600 
    130 H130       -2.2463  -15.6719  -48.5529 H         1 UNK         0.3000 
    131 H131       -4.0404  -13.5536  -47.8390 H         1 UNK         0.0600 
    132 H132       -1.9941  -12.1821  -47.6115 H         1 UNK         0.0800 
    133 H133       -2.0886  -13.0132  -49.1283 H         1 UNK         0.0800 
    134 H134        1.4317  -14.1727  -49.4017 H         1 UNK         0.0800 
    135 H135        0.0708  -13.3446  -50.0983 H         1 UNK         0.0800 
    136 H136       -1.8219  -14.6412  -51.0508 H         1 UNK         0.1150 
    137 H137       -1.2782  -18.8540  -51.5900 H         1 UNK         0.1150 
    138 H138        1.4718  -16.6413  -49.1603 H         1 UNK         0.1150 
    139 H139        2.0523  -18.9450  -50.2867 H         1 UNK         0.0800 
    140 H140        0.7270  -19.9142  -50.8685 H         1 UNK         0.0800 
    141 H141       -1.4789  -19.9079  -49.3100 H         1 UNK         0.0800 
    142 H142       -1.3317  -18.9793  -47.8394 H         1 UNK         0.0800 
    143 H143       -1.4247  -22.0208  -48.1583 H         1 UNK         0.0600 
    144 H144       -0.3968  -20.5969  -45.8810 H         1 UNK         0.3000 
    145 H145       -0.9853  -23.1758  -43.4891 H         1 UNK         0.0600 
    146 H146        1.0223  -24.0559  -44.6332 H         1 UNK         0.0600 
    147 H147        1.5022  -23.0746  -43.2560 H         1 UNK         0.0600 
    148 H148        1.6351  -22.4278  -44.8909 H         1 UNK         0.0600 
    149 H149        0.5017  -20.7082  -43.4641 H         1 UNK         0.3000 
    150 H150       -2.2634  -18.5641  -42.7655 H         1 UNK         0.0600 
    151 H151       -0.0836  -19.5128  -40.8324 H         1 UNK         0.0600 
    152 H152       -1.8140  -19.5288  -40.5087 H         1 UNK         0.0600 
    153 H153       -0.9797  -17.9969  -40.7225 H         1 UNK         0.0600 
    154 H154        0.5608  -18.1132  -42.7689 H         1 UNK         0.3000 
    155 H155        1.3540  -18.6044  -46.0049 H         1 UNK         0.0600 
    156 H156        0.9177  -15.6725  -45.2893 H         1 UNK         0.0600 
    157 H157        0.2670  -16.4960  -46.7051 H         1 UNK         0.0600 
    158 H158        2.0023  -16.2926  -46.5305 H         1 UNK         0.0600 
    159 H159        2.7781  -16.9643  -44.2269 H         1 UNK         0.3000 
    160 H160        3.7682  -18.2330  -41.9701 H         1 UNK         0.0600 
    161 H161        5.0345  -20.6527  -43.3622 H         1 UNK         0.0600 
    162 H162        4.0715  -20.6801  -41.8922 H         1 UNK         0.0600 
    163 H163        5.6410  -19.8931  -41.8909 H         1 UNK         0.0600 
    164 H164        5.2375  -16.9892  -43.0302 H         1 UNK         0.3000 
    165 H165        7.4945  -17.1414  -45.1469 H         1 UNK         0.0600 
    166 H166        6.5074  -17.4435  -47.3779 H         1 UNK         0.0600 
    167 H167        5.2092  -16.3167  -47.0151 H         1 UNK         0.0600 
    168 H168        6.8719  -15.7431  -47.1435 H         1 UNK         0.0600 
    169 H169        7.1593  -15.2723  -44.0366 H         1 UNK         0.3000 
    170 H170        6.3139  -13.6360  -42.9406 H         1 UNK         0.0600 
    171 H171        5.3210  -11.4433  -43.5577 H         1 UNK         0.0600 
    172 H172        5.9589  -12.2386  -44.9884 H         1 UNK         0.0600 
    173 H173        4.2243  -12.2289  -44.6947 H         1 UNK         0.0600 
    174 H174        3.6240  -12.9321  -42.4059 H         1 UNK         0.3000 
    175 H175        2.6143  -15.5501  -40.2919 H         1 UNK         0.0600 
    176 H176        4.0729  -14.2564  -38.7382 H         1 UNK         0.0600 
    177 H177        3.5594  -12.7460  -39.4802 H         1 UNK         0.0600 
    178 H178        2.3993  -13.7415  -38.5998 H         1 UNK         0.0600 
    179 H179        1.6307  -12.9087  -41.0031 H         1 UNK         0.3000 
    180 H180       -0.3170  -12.8138  -42.2926 H         1 UNK         0.0600 
    181 H181        1.4395  -13.3602  -44.7563 H         1 UNK         0.0600 
    182 H182        1.6713  -12.0700  -43.5854 H         1 UNK         0.0600 
    183 H183        0.2581  -12.0584  -44.6258 H         1 UNK         0.0600 
    184 H184       -0.8456  -14.3412  -44.6753 H         1 UNK         0.3000 
    185 H185       -2.6958  -16.6366  -43.8865 H         1 UNK         0.0600 
    186 H186       -4.5266  -15.9018  -42.4577 H         1 UNK         0.0600 
    187 H187       -4.7321  -14.4168  -43.3744 H         1 UNK         0.0600 
    188 H188       -5.1211  -15.9696  -44.1080 H         1 UNK         0.0600 
    189 H189       -2.6203  -16.0272  -45.9893 H         1 UNK         0.3000 
    190 H190       -2.8137  -19.8381  -45.7063 H         1 UNK         0.3000 
    191 H191       -5.4718  -19.7385  -46.7661 H         1 UNK         0.0600 
    192 H192       -4.5934  -18.0828  -45.1456 H         1 UNK         0.0600 
    193 H193       -6.0535  -18.8437  -44.5315 H         1 UNK         0.0600 
    194 H194       -4.4853  -19.3211  -43.8958 H         1 UNK         0.0600 
    195 H195       -3.9245  -21.8943  -44.3368 H         1 UNK         0.3000 
    196 H196       -6.1740  -23.5448  -43.8303 H         1 UNK         0.0600 
    197 H197       -4.4932  -25.1296  -42.9250 H         1 UNK         0.0600 
    198 H198       -4.1279  -23.4902  -42.4071 H         1 UNK         0.0600 
    199 H199       -3.1921  -24.2378  -43.7002 H         1 UNK         0.0600 
    200 H200       -3.7036  -23.6969  -46.3925 H         1 UNK         0.3000 
    201 H201       -4.7220  -26.1106  -47.6309 H         1 UNK         0.0600 
    202 H202       -3.0281  -25.5677  -49.3652 H         1 UNK         0.0600 
    203 H203       -2.3299  -25.4553  -47.7592 H         1 UNK         0.0600 
    204 H204       -2.7603  -23.9894  -48.6357 H         1 UNK         0.0600 
    205 H205       -6.1870  -23.1812  -47.4351 H         1 UNK         0.3000 
    206 H206       -7.8966  -22.2158  -48.3759 H         1 UNK         0.0600 
    207 H207       -8.9112  -24.4522  -48.4754 H         1 UNK         0.0600 
    208 H208       -9.4463  -23.4753  -49.8311 H         1 UNK         0.0600 
    209 H209       -8.2434  -24.7307  -50.0785 H         1 UNK         0.0600 
    210 H210       -5.4455  -21.3930  -49.2555 H         1 UNK         0.3000 
    211 H211       -4.6452  -19.7704  -50.4870 H         1 UNK         0.0600 
    212 H212       -6.7102  -18.6325  -49.7943 H         1 UNK         0.0600 
    213 H213       -6.3121  -18.1224  -51.4264 H         1 UNK         0.0600 
    214 H214       -7.6054  -19.2855  -51.1567 H         1 UNK         0.0600 
    215 H215       -7.1440  -20.1245  -52.9643 H         1 UNK         0.3000 
    216 H216       -5.2576  -20.2373  -55.1148 H         1 UNK         0.0600 
    217 H217       -8.2635  -20.8455  -55.0371 H         1 UNK         0.0600 
    218 H218       -7.3128  -20.5933  -56.4963 H         1 UNK         0.0600 
    219 H219       -7.5330  -19.2721  -55.3603 H         1 UNK         0.0600 
    220 H220       -6.6941  -22.7152  -53.1055 H         1 UNK         0.3000 
    221 H221       -5.9920  -24.9402  -54.8986 H         1 UNK         0.0600 
    222 H222       -7.1371  -24.8576  -52.0700 H         1 UNK         0.0600 
    223 H223       -8.0604  -25.0591  -53.5555 H         1 UNK         0.0600 
    224 H224       -6.9394  -26.3108  -53.0396 H         1 UNK         0.0600 
    225 H225       -4.1629  -22.9601  -52.8309 H         1 UNK         0.3000 
    226 H226       -2.4217  -24.9982  -51.7003 H         1 UNK         0.0600 
    227 H227       -2.8549  -22.6712  -50.6842 H         1 UNK         0.0600 
    228 H228       -1.1628  -23.1161  -50.8356 H         1 UNK         0.0600 
    229 H229       -1.8751  -21.9991  -51.9856 H         1 UNK         0.0600 
    230 H230       -0.0092  -24.8047  -52.1605 H         1 UNK         0.3000 
    231 H231        0.4815  -25.6542  -54.8066 H         1 UNK         0.0600 
    232 H232        2.4336  -24.9016  -52.5662 H         1 UNK         0.0600 
    233 H233        2.8427  -25.8297  -54.0035 H         1 UNK         0.0600 
    234 H234        1.7186  -26.4933  -52.8299 H         1 UNK         0.0600 
    235 H235        0.6155  -22.4092  -53.5001 H         1 UNK         0.3000 
    236 H236        1.2615  -21.2738  -56.0538 H         1 UNK         0.0600 
    237 H237        3.2204  -20.8655  -53.7086 H         1 UNK         0.0600 
    238 H238        3.6029  -21.6858  -55.2210 H         1 UNK         0.0600 
    239 H239        3.2522  -19.9670  -55.2213 H         1 UNK         0.0600 
    240 H240        1.0611  -18.8716  -55.9105 H         1 UNK         0.3000 
    241 H241        0.2081  -17.5620  -53.5724 H         1 UNK         0.0600 
    242 H242        1.0630  -14.6356  -55.3840 H         1 UNK         0.3800 
    243 H243        0.5445  -15.2883  -53.8548 H         1 UNK         0.3800 
    244 H244       -1.9879  -18.7089  -54.0588 H         1 UNK         0.0800 
    245 H245       -1.9905  -18.0328  -55.6586 H         1 UNK         0.0800 
    246 H246       -3.3750  -17.8006  -52.2651 H         1 UNK         0.0800 
    247 H247       -3.6695  -16.1168  -51.9169 H         1 UNK         0.0800 
@<TRIPOS>BOND
     1    1    2 1    
     2    1  127 1    
     3    1  128 1    
     4    1  129 1    
     5    2    3 2    
     6    2    4 am   BACKBONE|DICT|INTERRES
     7    4    5 1    
     8    4  130 1    
     9    5    6 1    
    10    5   65 1    
    11    5  131 1    
    12    6    7 1    
    13    6  132 1    
    14    6  133 1    
    15    7    8 1    
    16    8    9 1    
    17    8  134 1    
    18    8  135 1    
    19    9   10 ar   
    20    9   14 ar   
    21   10   11 ar   
    22   10  136 1    
    23   11   12 ar   
    24   11  126 1    
    25   12   13 ar   
    26   12  137 1    
    27   13   14 ar   
    28   13   15 1    
    29   14  138 1    
    30   15   16 1    
    31   15  139 1    
    32   15  140 1    
    33   16   17 1    
    34   17   18 1    
    35   17  141 1    
    36   17  142 1    
    37   18   19 1    
    38   18   67 1    
    39   18  143 1    
    40   19   20 am   BACKBONE|DICT|INTERRES
    41   19  144 1    
    42   20   21 2    
    43   20   22 1    
    44   22   23 1    
    45   22   24 1    
    46   22  145 1    
    47   23  146 1    
    48   23  147 1    
    49   23  148 1    
    50   24   25 am   BACKBONE|DICT|INTERRES
    51   24  149 1    
    52   25   26 2    
    53   25   27 1    
    54   27   28 1    
    55   27   29 1    
    56   27  150 1    
    57   28  151 1    
    58   28  152 1    
    59   28  153 1    
    60   29   30 am   BACKBONE|DICT|INTERRES
    61   29  154 1    
    62   30   31 2    
    63   30   32 1    
    64   32   33 1    
    65   32   34 1    
    66   32  155 1    
    67   33  156 1    
    68   33  157 1    
    69   33  158 1    
    70   34   35 am   BACKBONE|DICT|INTERRES
    71   34  159 1    
    72   35   36 2    
    73   35   37 1    
    74   37   38 1    
    75   37   39 1    
    76   37  160 1    
    77   38  161 1    
    78   38  162 1    
    79   38  163 1    
    80   39   40 am   BACKBONE|DICT|INTERRES
    81   39  164 1    
    82   40   41 2    
    83   40   42 1    
    84   42   43 1    
    85   42   44 1    
    86   42  165 1    
    87   43  166 1    
    88   43  167 1    
    89   43  168 1    
    90   44   45 am   BACKBONE|DICT|INTERRES
    91   44  169 1    
    92   45   46 2    
    93   45   47 1    
    94   47   48 1    
    95   47   49 1    
    96   47  170 1    
    97   48  171 1    
    98   48  172 1    
    99   48  173 1    
   100   49   50 am   BACKBONE|DICT|INTERRES
   101   49  174 1    
   102   50   51 2    
   103   50   52 1    
   104   52   53 1    
   105   52   54 1    
   106   52  175 1    
   107   53  176 1    
   108   53  177 1    
   109   53  178 1    
   110   54   55 am   BACKBONE|DICT|INTERRES
   111   54  179 1    
   112   55   56 2    
   113   55   57 1    
   114   57   58 1    
   115   57   59 1    
   116   57  180 1    
   117   58  181 1    
   118   58  182 1    
   119   58  183 1    
   120   59   60 am   BACKBONE|DICT|INTERRES
   121   59  184 1    
   122   60   61 2    
   123   60   62 1    
   124   62   63 1    
   125   62   64 1    
   126   62  185 1    
   127   63  186 1    
   128   63  187 1    
   129   63  188 1    
   130   64   65 am   BACKBONE|DICT|INTERRES
   131   64  189 1    
   132   65   66 2    
   133   67   68 2    
   134   67   69 am   BACKBONE|DICT|INTERRES
   135   69   70 1    
   136   69  190 1    
   137   70   71 1    
   138   70   72 1    
   139   70  191 1    
   140   71  192 1    
   141   71  193 1    
   142   71  194 1    
   143   72   73 2    
   144   72   74 am   BACKBONE|DICT|INTERRES
   145   74   75 1    
   146   74  195 1    
   147   75   76 1    
   148   75   77 1    
   149   75  196 1    
   150   76  197 1    
   151   76  198 1    
   152   76  199 1    
   153   77   78 2    
   154   77   79 am   BACKBONE|DICT|INTERRES
   155   79   80 1    
   156   79  200 1    
   157   80   81 1    
   158   80   82 1    
   159   80  201 1    
   160   81  202 1    
   161   81  203 1    
   162   81  204 1    
   163   82   83 2    
   164   82   84 am   BACKBONE|DICT|INTERRES
   165   84   85 1    
   166   84  205 1    
   167   85   86 1    
   168   85   87 1    
   169   85  206 1    
   170   86  207 1    
   171   86  208 1    
   172   86  209 1    
   173   87   88 2    
   174   87   89 am   BACKBONE|DICT|INTERRES
   175   89   90 1    
   176   89  210 1    
   177   90   91 1    
   178   90   92 1    
   179   90  211 1    
   180   91  212 1    
   181   91  213 1    
   182   91  214 1    
   183   92   93 2    
   184   92   94 am   BACKBONE|DICT|INTERRES
   185   94   95 1    
   186   94  215 1    
   187   95   96 1    
   188   95   97 1    
   189   95  216 1    
   190   96  217 1    
   191   96  218 1    
   192   96  219 1    
   193   97   98 2    
   194   97   99 am   BACKBONE|DICT|INTERRES
   195   99  100 1    
   196   99  220 1    
   197  100  101 1    
   198  100  102 1    
   199  100  221 1    
   200  101  222 1    
   201  101  223 1    
   202  101  224 1    
   203  102  103 2    
   204  102  104 am   BACKBONE|DICT|INTERRES
   205  104  105 1    
   206  104  225 1    
   207  105  106 1    
   208  105  107 1    
   209  105  226 1    
   210  106  227 1    
   211  106  228 1    
   212  106  229 1    
   213  107  108 2    
   214  107  109 am   BACKBONE|DICT|INTERRES
   215  109  110 1    
   216  109  230 1    
   217  110  111 1    
   218  110  112 1    
   219  110  231 1    
   220  111  232 1    
   221  111  233 1    
   222  111  234 1    
   223  112  113 2    
   224  112  114 am   BACKBONE|DICT|INTERRES
   225  114  115 1    
   226  114  235 1    
   227  115  116 1    
   228  115  117 1    
   229  115  236 1    
   230  116  237 1    
   231  116  238 1    
   232  116  239 1    
   233  117  118 2    
   234  117  119 am   BACKBONE|DICT|INTERRES
   235  119  120 1    
   236  119  240 1    
   237  120  121 1    
   238  120  124 1    
   239  120  241 1    
   240  121  122 am   BACKBONE|DICT|INTERRES
   241  121  123 2    
   242  122  242 1    
   243  122  243 1    
   244  124  125 1    
   245  124  244 1    
   246  124  245 1    
   247  125  126 1    
   248  126  246 1    
   249  126  247 1    
@<TRIPOS>SUBSTRUCTURE
     1 UNK         1 GROUP             0       ****    0 ROOT    
