@<TRIPOS>MOLECULE
3R540
247   249    1
SMALL
USER_CHARGES


@<TRIPOS>ATOM
      1 CA          2.9180  -10.9391  -49.1706 C.3       0 UNK        -0.1800 
      2 C           1.9682  -11.7007  -48.2589 C.2       0 UNK         0.5000 
      3 O           1.9731  -11.4767  -47.0489 O.2       0 UNK        -0.5000 
      4 N           1.1401  -12.5828  -48.8344 N.am      1 UNK        -0.5000 
      5 CA          0.1892  -13.4656  -48.1391 C.3       1 UNK         0.1400 
      6 C6         -0.5279  -14.4198  -49.1278 C.3       23 UNK        -0.0398 
      7 S7          0.6309  -15.5298  -49.9990 S.3       23 UNK        -0.2404 
      8 C8         -0.2350  -17.1229  -49.8568 C.3       23 UNK        -0.0205 
      9 C9          0.5684  -18.2521  -50.4798 C.ar      23 UNK        -0.0193 
     10 C10         0.3689  -18.6042  -51.8181 C.ar      23 UNK        -0.1150 
     11 C11         1.0802  -19.6642  -52.3918 C.ar      23 UNK        -0.0193 
     12 C12         1.9989  -20.3682  -51.6064 C.ar      23 UNK        -0.1150 
     13 C13         2.1933  -20.0384  -50.2622 C.ar      23 UNK        -0.0193 
     14 C14         1.4847  -18.9702  -49.7068 C.ar      23 UNK        -0.1150 
     15 C15         3.1474  -20.8600  -49.4097 C.3       23 UNK        -0.0205 
     16 S16         2.3520  -22.3794  -48.7931 S.3       23 UNK        -0.2404 
     17 C17         1.3686  -21.7315  -47.4004 C.3       23 UNK        -0.0398 
     18 CA          0.7171  -22.8595  -46.5618 C.3       11 UNK         0.1400 
     19 N           0.5106  -22.4632  -45.1686 N.am      11 UNK        -0.5000 
     20 C           0.1842  -23.3025  -44.1758 C.2       10 UNK         0.5000 
     21 O           0.0762  -24.5210  -44.3164 O.2       10 UNK        -0.5000 
     22 CA         -0.1122  -22.6671  -42.8045 C.3       10 UNK         0.1400 
     23 CB          1.1880  -22.3695  -42.0429 C.3       10 UNK        -0.1800 
     24 N          -0.9110  -21.4448  -42.9130 N.am      10 UNK        -0.5000 
     25 C          -2.1658  -21.4060  -43.3846 C.2       9 UNK         0.5000 
     26 O          -2.7966  -22.4051  -43.7319 O.2       9 UNK        -0.5000 
     27 CA         -2.8094  -20.0156  -43.5349 C.3       9 UNK         0.1400 
     28 CB         -3.3401  -19.5127  -42.1843 C.3       9 UNK        -0.1800 
     29 N          -1.8987  -19.0233  -44.1088 N.am      9 UNK        -0.5000 
     30 C          -1.3603  -19.1028  -45.3345 C.2       8 UNK         0.5000 
     31 O          -1.5906  -20.0127  -46.1267 O.2       8 UNK        -0.5000 
     32 CA         -0.3442  -18.0189  -45.7253 C.3       8 UNK         0.1400 
     33 CB         -1.0548  -16.7094  -46.0896 C.3       8 UNK        -0.1800 
     34 N           0.6414  -17.7729  -44.6757 N.am      8 UNK        -0.5000 
     35 C           1.4857  -18.6927  -44.1878 C.2       7 UNK         0.5000 
     36 O           1.5648  -19.8448  -44.6109 O.2       7 UNK        -0.5000 
     37 CA          2.3465  -18.2692  -42.9880 C.3       7 UNK         0.1400 
     38 CB          3.5816  -17.4830  -43.4503 C.3       7 UNK        -0.1800 
     39 N           1.5788  -17.4743  -42.0302 N.am      7 UNK        -0.5000 
     40 C           0.5945  -17.9647  -41.2633 C.2       6 UNK         0.5000 
     41 O           0.2576  -19.1494  -41.2549 O.2       6 UNK        -0.5000 
     42 CA         -0.1648  -16.9485  -40.3910 C.3       6 UNK         0.1400 
     43 CB          0.6179  -16.6412  -39.1057 C.3       6 UNK        -0.1800 
     44 N          -0.4444  -15.6995  -41.1028 N.am      6 UNK        -0.5000 
     45 C          -1.2910  -15.5987  -42.1369 C.2       5 UNK         0.5000 
     46 O          -1.9405  -16.5454  -42.5795 O.2       5 UNK        -0.5000 
     47 CA         -1.4067  -14.2208  -42.8137 C.3       5 UNK         0.1400 
     48 CB         -2.4523  -13.3504  -42.1018 C.3       5 UNK        -0.1800 
     49 N          -0.1439  -13.4844  -42.8953 N.am      5 UNK        -0.5000 
     50 C           0.9594  -13.8983  -43.5318 C.2       4 UNK         0.5000 
     51 O           1.0768  -15.0187  -44.0299 O.2       4 UNK        -0.5000 
     52 CA          2.1088  -12.8763  -43.6364 C.3       4 UNK         0.1400 
     53 CB          3.2985  -13.4014  -44.4593 C.3       4 UNK        -0.1800 
     54 N           1.6452  -11.6280  -44.2391 N.am      4 UNK        -0.5000 
     55 C           1.0433  -10.6224  -43.5922 C.2       3 UNK         0.5000 
     56 O           0.7953  -10.6403  -42.3859 O.2       3 UNK        -0.5000 
     57 CA          0.6069   -9.4246  -44.4476 C.3       3 UNK         0.1400 
     58 CB          1.8217   -8.6039  -44.9102 C.3       3 UNK        -0.1800 
     59 N          -0.1472   -9.8796  -45.6137 N.am      3 UNK        -0.5000 
     60 C          -1.4777  -10.0370  -45.6427 C.2       2 UNK         0.5000 
     61 O          -2.2196   -9.7660  -44.6978 O.2       2 UNK        -0.5000 
     62 CA         -2.0901  -10.5843  -46.9474 C.3       2 UNK         0.1400 
     63 CB         -2.5127   -9.4292  -47.8679 C.3       2 UNK        -0.1800 
     64 N          -1.1835  -11.4694  -47.6798 N.am      2 UNK        -0.5000 
     65 C          -0.8559  -12.7088  -47.2882 C.2       1 UNK         0.5000 
     66 O          -1.3361  -13.2547  -46.2959 O.2       1 UNK        -0.5000 
     67 C          -0.5887  -23.3804  -47.1971 C.2       11 UNK         0.5000 
     68 O          -0.5775  -24.4490  -47.8062 O.2       11 UNK        -0.5000 
     69 N          -1.6993  -22.6524  -47.0044 N.am      12 UNK        -0.5000 
     70 CA         -3.0433  -23.0015  -47.4734 C.3       12 UNK         0.1400 
     71 CB         -4.0289  -21.8863  -47.0987 C.3       12 UNK        -0.1800 
     72 C          -3.5365  -24.3575  -46.9484 C.2       12 UNK         0.5000 
     73 O          -4.0831  -25.1406  -47.7236 O.2       12 UNK        -0.5000 
     74 N          -3.2898  -24.6313  -45.6610 N.am      13 UNK        -0.5000 
     75 CA         -3.6101  -25.9021  -45.0101 C.3       13 UNK         0.1400 
     76 CB         -3.3595  -25.7683  -43.5003 C.3       13 UNK        -0.1800 
     77 C          -2.8351  -27.1072  -45.5823 C.2       13 UNK         0.5000 
     78 O          -3.3444  -28.2275  -45.5296 O.2       13 UNK        -0.5000 
     79 N          -1.6291  -26.8629  -46.1108 N.am      14 UNK        -0.5000 
     80 CA         -0.7588  -27.8811  -46.6907 C.3       14 UNK         0.1400 
     81 CB          0.7061  -27.5088  -46.4070 C.3       14 UNK        -0.1800 
     82 C          -0.9947  -28.0557  -48.2010 C.2       14 UNK         0.5000 
     83 O          -1.1827  -29.1835  -48.6591 O.2       14 UNK        -0.5000 
     84 N          -0.9403  -26.9483  -48.9515 N.am      15 UNK        -0.5000 
     85 CA         -0.8640  -26.9464  -50.4134 C.3       15 UNK         0.1400 
     86 CB          0.0686  -25.8047  -50.8500 C.3       15 UNK        -0.1800 
     87 C          -2.2243  -26.8101  -51.1174 C.2       15 UNK         0.5000 
     88 O          -2.2925  -27.0786  -52.3178 O.2       15 UNK        -0.5000 
     89 N          -3.2661  -26.3657  -50.3975 N.am      16 UNK        -0.5000 
     90 CA         -4.6358  -26.0765  -50.8543 C.3       16 UNK         0.1400 
     91 CB         -5.3213  -27.3227  -51.4470 C.3       16 UNK        -0.1800 
     92 C          -4.7370  -24.8673  -51.8065 C.2       16 UNK         0.5000 
     93 O          -5.4999  -23.9418  -51.5326 O.2       16 UNK        -0.5000 
     94 N          -3.9391  -24.8622  -52.8826 N.am      17 UNK        -0.5000 
     95 CA         -3.8492  -23.7894  -53.8809 C.3       17 UNK         0.1400 
     96 CB         -2.9926  -24.2753  -55.0589 C.3       17 UNK        -0.1800 
     97 C          -3.2849  -22.4684  -53.3216 C.2       17 UNK         0.5000 
     98 O          -3.5024  -21.4099  -53.9108 O.2       17 UNK        -0.5000 
     99 N          -2.5895  -22.5486  -52.1817 N.am      18 UNK        -0.5000 
    100 CA        -2.0514  -21.4159  -51.4334 C.3       18 UNK         0.1400 
    101 CB        -0.9349  -21.9261  -50.5166 C.3       18 UNK        -0.1800 
    102 C         -3.1082  -20.6045  -50.6581 C.2       18 UNK         0.5000 
    103 O         -2.7611  -19.5741  -50.0800 O.2       18 UNK        -0.5000 
    104 N         -4.3797  -21.0344  -50.6800 N.am      19 UNK        -0.5000 
    105 CA        -5.5385  -20.3224  -50.1311 C.3       19 UNK         0.1400 
    106 CB        -6.7082  -21.3129  -49.9932 C.3       19 UNK        -0.1800 
    107 C         -5.9158  -19.0763  -50.9667 C.2       19 UNK         0.5000 
    108 O         -7.0276  -18.9880  -51.4890 O.2       19 UNK        -0.5000 
    109 N         -4.9576  -18.1494  -51.0959 N.am      20 UNK        -0.5000 
    110 CA        -4.9986  -16.8522  -51.7814 C.3       20 UNK         0.1400 
    111 CB        -6.0768  -15.9402  -51.1615 C.3       20 UNK        -0.1800 
    112 C         -5.1155  -16.9094  -53.3210 C.2       20 UNK         0.5000 
    113 O         -5.0979  -15.8508  -53.9509 O.2       20 UNK        -0.5000 
    114 N         -5.2140  -18.1084  -53.9119 N.am      21 UNK        -0.5000 
    115 CA        -5.2776  -18.3110  -55.3584 C.3       21 UNK         0.1400 
    116 CB        -5.9978  -19.6338  -55.6739 C.3       21 UNK        -0.1800 
    117 C         -3.8721  -18.2383  -55.9784 C.2       21 UNK         0.5000 
    118 O         -3.5705  -17.2750  -56.6840 O.2       21 UNK        -0.5000 
    119 N         -3.0324  -19.2394  -55.6780 N.am      22 UNK        -0.5000 
    120 CA        -1.6251  -19.3434  -56.1045 C.3       22 UNK         0.1400 
    121 C         -1.4032  -19.4253  -57.6490 C.2       22 UNK         0.5000 
    122 N         -2.3774  -19.8923  -58.4208 N.am      22 UNK        -0.7600 
    123 O         -0.3391  -19.0882  -58.1604 O.2       22 UNK        -0.5000 
    124 C124       -0.7350  -18.2896  -55.3793 C.3       23 UNK        -0.0398 
    125 S125        0.9914  -18.8213  -55.0833 S.3       23 UNK        -0.2404 
    126 C126        0.8083  -20.1257  -53.8212 C.3       23 UNK        -0.0205 
    127 H127        3.9505  -11.1368  -48.8826 H         1 UNK         0.0600 
    128 H128        2.7388   -9.8673  -49.0863 H         1 UNK         0.0600 
    129 H129        2.7946  -11.2251  -50.2154 H         1 UNK         0.0600 
    130 H130        1.1968  -12.7225  -49.8333 H         1 UNK         0.3000 
    131 H131        0.7741  -14.0701  -47.4425 H         1 UNK         0.0600 
    132 H132       -1.2681  -15.0257  -48.6025 H         1 UNK         0.0800 
    133 H133       -1.0834  -13.8507  -49.8753 H         1 UNK         0.0800 
    134 H134       -1.2134  -17.0517  -50.3349 H         1 UNK         0.0800 
    135 H135       -0.4225  -17.3481  -48.8079 H         1 UNK         0.0800 
    136 H136       -0.3568  -18.0590  -52.3999 H         1 UNK         0.1150 
    137 H137        2.5372  -21.2059  -52.0272 H         1 UNK         0.1150 
    138 H138        1.6313  -18.7100  -48.6682 H         1 UNK         0.1150 
    139 H139        4.0181  -21.1371  -50.0058 H         1 UNK         0.0800 
    140 H140        3.5274  -20.2705  -48.5739 H         1 UNK         0.0800 
    141 H141        0.6284  -21.0141  -47.7583 H         1 UNK         0.0800 
    142 H142        2.0598  -21.1630  -46.7784 H         1 UNK         0.0800 
    143 H143        1.4144  -23.7000  -46.5320 H         1 UNK         0.0600 
    144 H144        0.6316  -21.4769  -44.9541 H         1 UNK         0.3000 
    145 H145       -0.6875  -23.3902  -42.2226 H         1 UNK         0.0600 
    146 H146        0.9799  -21.9840  -41.0446 H         1 UNK         0.0600 
    147 H147        1.7866  -23.2735  -41.9251 H         1 UNK         0.0600 
    148 H148        1.8021  -21.6341  -42.5627 H         1 UNK         0.0600 
    149 H149       -0.4712  -20.5815  -42.6131 H         1 UNK         0.3000 
    150 H150       -3.6580  -20.1158  -44.2141 H         1 UNK         0.0600 
    151 H151       -4.0238  -20.2361  -41.7383 H         1 UNK         0.0600 
    152 H152       -3.8875  -18.5773  -42.3008 H         1 UNK         0.0600 
    153 H153       -2.5322  -19.3400  -41.4726 H         1 UNK         0.0600 
    154 H154       -1.6914  -18.2125  -43.5323 H         1 UNK         0.3000 
    155 H155        0.1954  -18.3719  -46.6061 H         1 UNK         0.0600 
    156 H156       -1.5946  -16.2919  -45.2413 H         1 UNK         0.0600 
    157 H157       -0.3403  -15.9609  -46.4287 H         1 UNK         0.0600 
    158 H158       -1.7799  -16.8642  -46.8890 H         1 UNK         0.0600 
    159 H159        0.6839  -16.8273  -44.3028 H         1 UNK         0.3000 
    160 H160        2.6898  -19.1744  -42.4825 H         1 UNK         0.0600 
    161 H161        4.2059  -18.0931  -44.1041 H         1 UNK         0.0600 
    162 H162        3.3042  -16.5890  -44.0079 H         1 UNK         0.0600 
    163 H163        4.1972  -17.1770  -42.6044 H         1 UNK         0.0600 
    164 H164        1.7507  -16.4799  -42.0234 H         1 UNK         0.3000 
    165 H165       -1.1182  -17.4005  -40.1087 H         1 UNK         0.0600 
    166 H166        0.0505  -15.9837  -38.4468 H         1 UNK         0.0600 
    167 H167        0.8271  -17.5556  -38.5489 H         1 UNK         0.0600 
    168 H168        1.5735  -16.1604  -39.3185 H         1 UNK         0.0600 
    169 H169        0.0527  -14.8740  -40.8024 H         1 UNK         0.3000 
    170 H170       -1.7504  -14.3877  -43.8356 H         1 UNK         0.0600 
    171 H171       -3.4139  -13.8624  -42.0450 H         1 UNK         0.0600 
    172 H172       -2.1478  -13.1064  -41.0834 H         1 UNK         0.0600 
    173 H173       -2.6147  -12.4146  -42.6378 H         1 UNK         0.0600 
    174 H174       -0.1393  -12.5432  -42.5202 H         1 UNK         0.3000 
    175 H175        2.4650  -12.6776  -42.6237 H         1 UNK         0.0600 
    176 H176        2.9977  -13.6808  -45.4701 H         1 UNK         0.0600 
    177 H177        4.0834  -12.6494  -44.5414 H         1 UNK         0.0600 
    178 H178        3.7419  -14.2788  -43.9891 H         1 UNK         0.0600 
    179 H179        1.7730  -11.5507  -45.2466 H         1 UNK         0.3000 
    180 H180       -0.0181   -8.7759  -43.8300 H         1 UNK         0.0600 
    181 H181        2.4901   -9.1855  -45.5462 H         1 UNK         0.0600 
    182 H182        2.4030   -8.2537  -44.0564 H         1 UNK         0.0600 
    183 H183        1.5087   -7.7242  -45.4728 H         1 UNK         0.0600 
    184 H184        0.3983  -10.1967  -46.4053 H         1 UNK         0.3000 
    185 H185       -2.9844  -11.1516  -46.6805 H         1 UNK         0.0600 
    186 H186       -3.0123   -9.8003  -48.7630 H         1 UNK         0.0600 
    187 H187       -3.2107   -8.7615  -47.3610 H         1 UNK         0.0600 
    188 H188       -1.6568   -8.8312  -48.1833 H         1 UNK         0.0600 
    189 H189       -0.7458  -11.0937  -48.5084 H         1 UNK         0.3000 
    190 H190       -1.6192  -21.7574  -46.5236 H         1 UNK         0.3000 
    191 H191       -3.0173  -23.0697  -48.5607 H         1 UNK         0.0600 
    192 H192       -4.0880  -21.7460  -46.0200 H         1 UNK         0.0600 
    193 H193       -5.0337  -22.1159  -47.4528 H         1 UNK         0.0600 
    194 H194       -3.7333  -20.9360  -47.5424 H         1 UNK         0.0600 
    195 H195       -2.8746  -23.9107  -45.0779 H         1 UNK         0.3000 
    196 H196       -4.6738  -26.0951  -45.1632 H         1 UNK         0.0600 
    197 H197       -3.6106  -26.6919  -42.9774 H         1 UNK         0.0600 
    198 H198       -3.9687  -24.9740  -43.0685 H         1 UNK         0.0600 
    199 H199       -2.3145  -25.5416  -43.2859 H         1 UNK         0.0600 
    200 H200       -1.2908  -25.9096  -46.1302 H         1 UNK         0.3000 
    201 H201       -0.9502  -28.8428  -46.2097 H         1 UNK         0.0600 
    202 H202        0.8967  -27.4588  -45.3347 H         1 UNK         0.0600 
    203 H203        0.9719  -26.5415  -46.8349 H         1 UNK         0.0600 
    204 H204        1.3866  -28.2517  -46.8247 H         1 UNK         0.0600 
    205 H205       -0.7960  -26.0483  -48.4933 H         1 UNK         0.3000 
    206 H206       -0.4190  -27.8836  -50.7548 H         1 UNK         0.0600 
    207 H207        1.0610  -25.9174  -50.4131 H         1 UNK         0.0600 
    208 H208        0.1914  -25.7865  -51.9337 H         1 UNK         0.0600 
    209 H209       -0.3178  -24.8325  -50.5471 H         1 UNK         0.0600 
    210 H210       -3.1050  -26.1597  -49.4183 H         1 UNK         0.3000 
    211 H211       -5.1972  -25.8083  -49.9590 H         1 UNK         0.0600 
    212 H212       -4.8548  -27.6506  -52.3760 H         1 UNK         0.0600 
    213 H213       -6.3697  -27.1182  -51.6674 H         1 UNK         0.0600 
    214 H214       -5.2939  -28.1566  -50.7455 H         1 UNK         0.0600 
    215 H215       -3.3218  -25.6616  -53.0034 H         1 UNK         0.3000 
    216 H216       -4.8568  -23.5830  -54.2472 H         1 UNK         0.0600 
    217 H217       -2.9208  -23.5107  -55.8339 H         1 UNK         0.0600 
    218 H218       -3.4242  -25.1640  -55.5197 H         1 UNK         0.0600 
    219 H219       -1.9777  -24.5205  -54.7429 H         1 UNK         0.0600 
    220 H220       -2.4628  -23.4625  -51.7744 H         1 UNK         0.3000 
    221 H221       -1.6130  -20.7146  -52.1413 H         1 UNK         0.0600 
    222 H222       -1.2711  -22.7548  -49.9011 H         1 UNK         0.0600 
    223 H223       -0.0830  -22.2785  -51.0975 H         1 UNK         0.0600 
    224 H224       -0.5729  -21.1412  -49.8527 H         1 UNK         0.0600 
    225 H225       -4.5891  -21.8908  -51.1774 H         1 UNK         0.3000 
    226 H226       -5.2845  -19.9683  -49.1305 H         1 UNK         0.0600 
    227 H227       -6.4308  -22.1763  -49.3889 H         1 UNK         0.0600 
    228 H228       -7.5660  -20.8416  -49.5122 H         1 UNK         0.0600 
    229 H229       -7.0374  -21.6827  -50.9651 H         1 UNK         0.0600 
    230 H230       -4.0655  -18.3796  -50.6626 H         1 UNK         0.3000 
    231 H231       -4.0305  -16.3910  -51.5803 H         1 UNK         0.0600 
    232 H232       -6.0108  -14.9274  -51.5606 H         1 UNK         0.0600 
    233 H233       -5.9591  -15.8684  -50.0802 H         1 UNK         0.0600 
    234 H234       -7.0838  -16.3042  -51.3670 H         1 UNK         0.0600 
    235 H235       -5.2204  -18.9336  -53.3310 H         1 UNK         0.3000 
    236 H236       -5.8731  -17.5100  -55.8022 H         1 UNK         0.0600 
    237 H237       -7.0339  -19.6005  -55.3368 H         1 UNK         0.0600 
    238 H238       -6.0134  -19.8228  -56.7479 H         1 UNK         0.0600 
    239 H239       -5.5263  -20.4908  -55.1960 H         1 UNK         0.0600 
    240 H240       -3.3568  -19.9935  -55.0755 H         1 UNK         0.3000 
    241 H241       -1.3260  -20.3308  -55.7572 H         1 UNK         0.0600 
    242 H242       -2.2356  -19.9517  -59.4171 H         1 UNK         0.3800 
    243 H243       -3.2562  -20.1800  -58.0211 H         1 UNK         0.3800 
    244 H244       -0.7215  -17.3537  -55.9402 H         1 UNK         0.0800 
    245 H245       -1.1728  -18.0366  -54.4152 H         1 UNK         0.0800 
    246 H246       -0.1848  -20.5673  -53.8678 H         1 UNK         0.0800 
    247 H247        1.4961  -20.9294  -54.0882 H         1 UNK         0.0800 
@<TRIPOS>BOND
     1    1    2 1    
     2    1  127 1    
     3    1  128 1    
     4    1  129 1    
     5    2    3 2    
     6    2    4 am   BACKBONE|DICT|INTERRES
     7    4    5 1    
     8    4  130 1    
     9    5    6 1    
    10    5   65 1    
    11    5  131 1    
    12    6    7 1    
    13    6  132 1    
    14    6  133 1    
    15    7    8 1    
    16    8    9 1    
    17    8  134 1    
    18    8  135 1    
    19    9   10 ar   
    20    9   14 ar   
    21   10   11 ar   
    22   10  136 1    
    23   11   12 ar   
    24   11  126 1    
    25   12   13 ar   
    26   12  137 1    
    27   13   14 ar   
    28   13   15 1    
    29   14  138 1    
    30   15   16 1    
    31   15  139 1    
    32   15  140 1    
    33   16   17 1    
    34   17   18 1    
    35   17  141 1    
    36   17  142 1    
    37   18   19 1    
    38   18   67 1    
    39   18  143 1    
    40   19   20 am   BACKBONE|DICT|INTERRES
    41   19  144 1    
    42   20   21 2    
    43   20   22 1    
    44   22   23 1    
    45   22   24 1    
    46   22  145 1    
    47   23  146 1    
    48   23  147 1    
    49   23  148 1    
    50   24   25 am   BACKBONE|DICT|INTERRES
    51   24  149 1    
    52   25   26 2    
    53   25   27 1    
    54   27   28 1    
    55   27   29 1    
    56   27  150 1    
    57   28  151 1    
    58   28  152 1    
    59   28  153 1    
    60   29   30 am   BACKBONE|DICT|INTERRES
    61   29  154 1    
    62   30   31 2    
    63   30   32 1    
    64   32   33 1    
    65   32   34 1    
    66   32  155 1    
    67   33  156 1    
    68   33  157 1    
    69   33  158 1    
    70   34   35 am   BACKBONE|DICT|INTERRES
    71   34  159 1    
    72   35   36 2    
    73   35   37 1    
    74   37   38 1    
    75   37   39 1    
    76   37  160 1    
    77   38  161 1    
    78   38  162 1    
    79   38  163 1    
    80   39   40 am   BACKBONE|DICT|INTERRES
    81   39  164 1    
    82   40   41 2    
    83   40   42 1    
    84   42   43 1    
    85   42   44 1    
    86   42  165 1    
    87   43  166 1    
    88   43  167 1    
    89   43  168 1    
    90   44   45 am   BACKBONE|DICT|INTERRES
    91   44  169 1    
    92   45   46 2    
    93   45   47 1    
    94   47   48 1    
    95   47   49 1    
    96   47  170 1    
    97   48  171 1    
    98   48  172 1    
    99   48  173 1    
   100   49   50 am   BACKBONE|DICT|INTERRES
   101   49  174 1    
   102   50   51 2    
   103   50   52 1    
   104   52   53 1    
   105   52   54 1    
   106   52  175 1    
   107   53  176 1    
   108   53  177 1    
   109   53  178 1    
   110   54   55 am   BACKBONE|DICT|INTERRES
   111   54  179 1    
   112   55   56 2    
   113   55   57 1    
   114   57   58 1    
   115   57   59 1    
   116   57  180 1    
   117   58  181 1    
   118   58  182 1    
   119   58  183 1    
   120   59   60 am   BACKBONE|DICT|INTERRES
   121   59  184 1    
   122   60   61 2    
   123   60   62 1    
   124   62   63 1    
   125   62   64 1    
   126   62  185 1    
   127   63  186 1    
   128   63  187 1    
   129   63  188 1    
   130   64   65 am   BACKBONE|DICT|INTERRES
   131   64  189 1    
   132   65   66 2    
   133   67   68 2    
   134   67   69 am   BACKBONE|DICT|INTERRES
   135   69   70 1    
   136   69  190 1    
   137   70   71 1    
   138   70   72 1    
   139   70  191 1    
   140   71  192 1    
   141   71  193 1    
   142   71  194 1    
   143   72   73 2    
   144   72   74 am   BACKBONE|DICT|INTERRES
   145   74   75 1    
   146   74  195 1    
   147   75   76 1    
   148   75   77 1    
   149   75  196 1    
   150   76  197 1    
   151   76  198 1    
   152   76  199 1    
   153   77   78 2    
   154   77   79 am   BACKBONE|DICT|INTERRES
   155   79   80 1    
   156   79  200 1    
   157   80   81 1    
   158   80   82 1    
   159   80  201 1    
   160   81  202 1    
   161   81  203 1    
   162   81  204 1    
   163   82   83 2    
   164   82   84 am   BACKBONE|DICT|INTERRES
   165   84   85 1    
   166   84  205 1    
   167   85   86 1    
   168   85   87 1    
   169   85  206 1    
   170   86  207 1    
   171   86  208 1    
   172   86  209 1    
   173   87   88 2    
   174   87   89 am   BACKBONE|DICT|INTERRES
   175   89   90 1    
   176   89  210 1    
   177   90   91 1    
   178   90   92 1    
   179   90  211 1    
   180   91  212 1    
   181   91  213 1    
   182   91  214 1    
   183   92   93 2    
   184   92   94 am   BACKBONE|DICT|INTERRES
   185   94   95 1    
   186   94  215 1    
   187   95   96 1    
   188   95   97 1    
   189   95  216 1    
   190   96  217 1    
   191   96  218 1    
   192   96  219 1    
   193   97   98 2    
   194   97   99 am   BACKBONE|DICT|INTERRES
   195   99  100 1    
   196   99  220 1    
   197  100  101 1    
   198  100  102 1    
   199  100  221 1    
   200  101  222 1    
   201  101  223 1    
   202  101  224 1    
   203  102  103 2    
   204  102  104 am   BACKBONE|DICT|INTERRES
   205  104  105 1    
   206  104  225 1    
   207  105  106 1    
   208  105  107 1    
   209  105  226 1    
   210  106  227 1    
   211  106  228 1    
   212  106  229 1    
   213  107  108 2    
   214  107  109 am   BACKBONE|DICT|INTERRES
   215  109  110 1    
   216  109  230 1    
   217  110  111 1    
   218  110  112 1    
   219  110  231 1    
   220  111  232 1    
   221  111  233 1    
   222  111  234 1    
   223  112  113 2    
   224  112  114 am   BACKBONE|DICT|INTERRES
   225  114  115 1    
   226  114  235 1    
   227  115  116 1    
   228  115  117 1    
   229  115  236 1    
   230  116  237 1    
   231  116  238 1    
   232  116  239 1    
   233  117  118 2    
   234  117  119 am   BACKBONE|DICT|INTERRES
   235  119  120 1    
   236  119  240 1    
   237  120  121 1    
   238  120  124 1    
   239  120  241 1    
   240  121  122 am   BACKBONE|DICT|INTERRES
   241  121  123 2    
   242  122  242 1    
   243  122  243 1    
   244  124  125 1    
   245  124  244 1    
   246  124  245 1    
   247  125  126 1    
   248  126  246 1    
   249  126  247 1    
@<TRIPOS>SUBSTRUCTURE
     1 UNK         1 GROUP             0       ****    0 ROOT    
