@<TRIPOS>MOLECULE
3R540
247   249    1
SMALL
USER_CHARGES


@<TRIPOS>ATOM
      1 CA          0.3357  -15.3187  -48.6212 C.3       0 UNK        -0.1800 
      2 C          -0.2480  -13.9059  -48.6209 C.2       0 UNK         0.5000 
      3 O          -1.2520  -13.6741  -47.9521 O.2       0 UNK        -0.5000 
      4 N           0.3246  -12.9175  -49.3265 N.am      1 UNK        -0.5000 
      5 CA          1.5093  -12.9461  -50.2045 C.3       1 UNK         0.1400 
      6 C6          1.3664  -13.8640  -51.4530 C.3       23 UNK        -0.0398 
      7 S7         -0.1743  -13.5511  -52.3899 S.3       23 UNK        -0.2404 
      8 C8         -0.3867  -15.0895  -53.3471 C.3       23 UNK        -0.0205 
      9 C9         -0.5532  -16.3136  -52.4586 C.ar      23 UNK        -0.0193 
     10 C10         0.4625  -17.2712  -52.3924 C.ar      23 UNK        -0.1150 
     11 C11         0.3393  -18.3822  -51.5554 C.ar      23 UNK        -0.0193 
     12 C12        -0.8136  -18.5311  -50.7789 C.ar      23 UNK        -0.1150 
     13 C13        -1.8437  -17.5865  -50.8451 C.ar      23 UNK        -0.0193 
     14 C14        -1.7115  -16.4836  -51.6940 C.ar      23 UNK        -0.1150 
     15 C15        -3.0797  -17.7460  -49.9742 C.3       23 UNK        -0.0205 
     16 S16        -2.7109  -17.2553  -48.2596 S.3       23 UNK        -0.2404 
     17 C17        -3.7361  -18.4057  -47.2845 C.3       23 UNK        -0.0398 
     18 CA         -3.1734  -19.8497  -47.2681 C.3       11 UNK         0.1400 
     19 N          -1.7865  -19.9145  -46.8037 N.am      11 UNK        -0.5000 
     20 C          -0.8885  -20.8240  -47.1978 C.2       10 UNK         0.5000 
     21 O          -1.1390  -21.7240  -47.9991 O.2       10 UNK        -0.5000 
     22 CA          0.4918  -20.7781  -46.5284 C.3       10 UNK         0.1400 
     23 CB          1.3170  -19.5969  -47.0566 C.3       10 UNK        -0.1800 
     24 N           0.4050  -20.7200  -45.0716 N.am      10 UNK        -0.5000 
     25 C          -0.1577  -21.6593  -44.2968 C.2       9 UNK         0.5000 
     26 O          -0.6869  -22.6830  -44.7339 O.2       9 UNK        -0.5000 
     27 CA         -0.1231  -21.4086  -42.7810 C.3       9 UNK         0.1400 
     28 CB          1.2542  -21.7660  -42.2015 C.3       9 UNK        -0.1800 
     29 N          -0.4340  -20.0144  -42.4702 N.am      9 UNK        -0.5000 
     30 C          -1.6756  -19.5434  -42.2921 C.2       8 UNK         0.5000 
     31 O          -2.6817  -20.2532  -42.2879 O.2       8 UNK        -0.5000 
     32 CA         -1.8279  -18.0221  -42.0880 C.3       8 UNK         0.1400 
     33 CB         -1.7794  -17.6762  -40.5921 C.3       8 UNK        -0.1800 
     34 N          -0.8260  -17.2227  -42.7962 N.am      8 UNK        -0.5000 
     35 C          -0.6730  -17.1936  -44.1279 C.2       7 UNK         0.5000 
     36 O          -1.3754  -17.8291  -44.9122 O.2       7 UNK        -0.5000 
     37 CA          0.4979  -16.3594  -44.6742 C.3       7 UNK         0.1400 
     38 CB          0.0887  -14.8888  -44.8289 C.3       7 UNK        -0.1800 
     39 N           1.7094  -16.4460  -43.8594 N.am      7 UNK        -0.5000 
     40 C           2.3707  -17.5705  -43.5510 C.2       6 UNK         0.5000 
     41 O           2.0051  -18.6966  -43.8860 O.2       6 UNK        -0.5000 
     42 CA          3.6306  -17.4082  -42.6889 C.3       6 UNK         0.1400 
     43 CB          4.8104  -16.8978  -43.5311 C.3       6 UNK        -0.1800 
     44 N           3.3838  -16.4893  -41.5804 N.am      6 UNK        -0.5000 
     45 C           2.8045  -16.8408  -40.4249 C.2       5 UNK         0.5000 
     46 O           2.4851  -17.9962  -40.1432 O.2       5 UNK        -0.5000 
     47 CA          2.5215  -15.7109  -39.4158 C.3       5 UNK         0.1400 
     48 CB          3.7173  -15.5224  -38.4700 C.3       5 UNK        -0.1800 
     49 N           2.2045  -14.4285  -40.0481 N.am      5 UNK        -0.5000 
     50 C           1.1013  -14.1909  -40.7703 C.2       4 UNK         0.5000 
     51 O           0.2328  -15.0346  -40.9943 O.2       4 UNK        -0.5000 
     52 CA          0.9678  -12.7822  -41.3815 C.3       4 UNK         0.1400 
     53 CB          0.4036  -11.8003  -40.3433 C.3       4 UNK        -0.1800 
     54 N           2.2003  -12.2243  -41.9554 N.am      4 UNK        -0.5000 
     55 C           2.9952  -12.8343  -42.8449 C.2       3 UNK         0.5000 
     56 O           2.8888  -14.0204  -43.1608 O.2       3 UNK        -0.5000 
     57 CA          4.1120  -11.9880  -43.4850 C.3       3 UNK         0.1400 
     58 CB          5.4008  -12.0964  -42.6565 C.3       3 UNK        -0.1800 
     59 N           4.3876  -12.4329  -44.8544 N.am      3 UNK        -0.5000 
     60 C           3.5067  -12.3673  -45.8617 C.2       2 UNK         0.5000 
     61 O           2.4304  -11.7647  -45.7906 O.2       2 UNK        -0.5000 
     62 CA          3.8739  -13.1261  -47.1486 C.3       2 UNK         0.1400 
     63 CB          4.0298  -14.6378  -46.8731 C.3       2 UNK        -0.1800 
     64 N           2.8090  -12.9053  -48.1208 N.am      2 UNK        -0.5000 
     65 C           2.8301  -13.1791  -49.4301 C.2       1 UNK         0.5000 
     66 O           3.8243  -13.6080  -50.0173 O.2       1 UNK        -0.5000 
     67 C          -4.0534  -20.8375  -46.4761 C.2       11 UNK         0.5000 
     68 O          -5.0471  -20.4418  -45.8659 O.2       11 UNK        -0.5000 
     69 N          -3.6559  -22.1118  -46.5104 N.am      12 UNK        -0.5000 
     70 CA         -4.3223  -23.2557  -45.9090 C.3       12 UNK         0.1400 
     71 CB         -4.3149  -23.1790  -44.3685 C.3       12 UNK        -0.1800 
     72 C          -3.6379  -24.5351  -46.4022 C.2       12 UNK         0.5000 
     73 O          -4.3103  -25.3913  -46.9807 O.2       12 UNK        -0.5000 
     74 N          -2.3216  -24.6356  -46.1624 N.am      13 UNK        -0.5000 
     75 CA         -1.5275  -25.8317  -46.4371 C.3       13 UNK         0.1400 
     76 CB         -0.5045  -26.0319  -45.3070 C.3       13 UNK        -0.1800 
     77 C          -0.8189  -25.7784  -47.7996 C.2       13 UNK         0.5000 
     78 O          -0.8947  -26.7529  -48.5488 O.2       13 UNK        -0.5000 
     79 N          -0.1226  -24.6689  -48.0919 N.am      14 UNK        -0.5000 
     80 CA          0.6465  -24.4957  -49.3306 C.3       14 UNK         0.1400 
     81 CB          1.6818  -23.3701  -49.1679 C.3       14 UNK        -0.1800 
     82 C          -0.2861  -24.2316  -50.5215 C.2       14 UNK         0.5000 
     83 O          -0.2331  -24.9480  -51.5221 O.2       14 UNK        -0.5000 
     84 N          -1.1696  -23.2449  -50.3492 N.am      15 UNK        -0.5000 
     85 CA         -2.3465  -23.0330  -51.1699 C.3       15 UNK         0.1400 
     86 CB         -2.6474  -21.5314  -51.2487 C.3       15 UNK        -0.1800 
     87 C          -3.4869  -23.7848  -50.4812 C.2       15 UNK         0.5000 
     88 O          -3.9916  -23.3027  -49.4649 O.2       15 UNK        -0.5000 
     89 N          -3.8287  -24.9630  -51.0175 N.am      16 UNK        -0.5000 
     90 CA         -4.8464  -25.8797  -50.5025 C.3       16 UNK         0.1400 
     91 CB         -4.9768  -27.0712  -51.4650 C.3       16 UNK        -0.1800 
     92 C          -6.2030  -25.1837  -50.2891 C.2       16 UNK         0.5000 
     93 O          -6.8709  -24.8370  -51.2661 O.2       16 UNK        -0.5000 
     94 N          -6.5372  -24.9437  -49.0131 N.am      17 UNK        -0.5000 
     95 CA         -7.7115  -24.2066  -48.5335 C.3       17 UNK         0.1400 
     96 CB         -9.0049  -24.9956  -48.8259 C.3       17 UNK        -0.1800 
     97 C          -7.7694  -22.7474  -49.0419 C.2       17 UNK         0.5000 
     98 O          -8.8580  -22.2261  -49.2890 O.2       17 UNK        -0.5000 
     99 N          -6.5938  -22.1221  -49.2111 N.am      18 UNK        -0.5000 
    100 CA        -6.3247  -20.7537  -49.6750 C.3       18 UNK         0.1400 
    101 CB        -7.0362  -19.7035  -48.8010 C.3       18 UNK        -0.1800 
    102 C         -6.6260  -20.5000  -51.1631 C.2       18 UNK         0.5000 
    103 O         -5.8480  -19.8070  -51.8191 O.2       18 UNK        -0.5000 
    104 N         -7.7329  -21.0594  -51.6668 N.am      19 UNK        -0.5000 
    105 CA        -8.3123  -20.8316  -52.9942 C.3       19 UNK         0.1400 
    106 CB        -9.5990  -21.6623  -53.1144 C.3       19 UNK        -0.1800 
    107 C         -7.3771  -21.1193  -54.1846 C.2       19 UNK         0.5000 
    108 O         -7.5483  -20.5154  -55.2443 O.2       19 UNK        -0.5000 
    109 N         -6.4043  -22.0198  -53.9925 N.am      20 UNK        -0.5000 
    110 CA        -5.3767  -22.3541  -54.9794 C.3       20 UNK         0.1400 
    111 CB        -4.6525  -23.6292  -54.5221 C.3       20 UNK        -0.1800 
    112 C         -4.3601  -21.2191  -55.2278 C.2       20 UNK         0.5000 
    113 O         -3.7452  -21.1926  -56.2953 O.2       20 UNK        -0.5000 
    114 N         -4.1754  -20.3310  -54.2350 N.am      21 UNK        -0.5000 
    115 CA        -3.2869  -19.1570  -54.2222 C.3       21 UNK         0.1400 
    116 CB        -3.9093  -18.0275  -55.0657 C.3       21 UNK        -0.1800 
    117 C         -1.8169  -19.4446  -54.6137 C.2       21 UNK         0.5000 
    118 O         -1.1395  -18.5659  -55.1494 O.2       21 UNK        -0.5000 
    119 N         -1.3679  -20.6840  -54.3693 N.am      22 UNK        -0.5000 
    120 CA        -0.0662  -21.2426  -54.7726 C.3       22 UNK         0.1400 
    121 C          0.1530  -21.3112  -56.3177 C.2       22 UNK         0.5000 
    122 N         -0.8944  -21.2946  -57.1354 N.am      22 UNK        -0.7600 
    123 O          1.2822  -21.4185  -56.7889 O.2       22 UNK        -0.5000 
    124 C124        1.1311  -20.6150  -54.0032 C.3       23 UNK        -0.0398 
    125 S125        1.0619  -20.9924  -52.2176 S.3       23 UNK        -0.2404 
    126 C126        1.4729  -19.3926  -51.4565 C.3       23 UNK        -0.0205 
    127 H127       -0.0732  -15.8918  -47.7901 H         1 UNK         0.0600 
    128 H128        1.4176  -15.3330  -48.5151 H         1 UNK         0.0600 
    129 H129        0.0664  -15.8399  -49.5371 H         1 UNK         0.0600 
    130 H130       -0.1186  -12.0109  -49.2798 H         1 UNK         0.3000 
    131 H131        1.5945  -11.9264  -50.5827 H         1 UNK         0.0600 
    132 H132        2.2013  -13.7032  -52.1369 H         1 UNK         0.0800 
    133 H133        1.4197  -14.9120  -51.1637 H         1 UNK         0.0800 
    134 H134        0.4632  -15.2110  -54.0204 H         1 UNK         0.0800 
    135 H135       -1.2671  -14.9918  -53.9837 H         1 UNK         0.0800 
    136 H136        1.3578  -17.1436  -52.9843 H         1 UNK         0.1150 
    137 H137       -0.9023  -19.3767  -50.1113 H         1 UNK         0.1150 
    138 H138       -2.4949  -15.7402  -51.7391 H         1 UNK         0.1150 
    139 H139       -3.9021  -17.1365  -50.3515 H         1 UNK         0.0800 
    140 H140       -3.4222  -18.7781  -50.0258 H         1 UNK         0.0800 
    141 H141       -4.7500  -18.3846  -47.6827 H         1 UNK         0.0800 
    142 H142       -3.7997  -18.0143  -46.2678 H         1 UNK         0.0800 
    143 H143       -3.2004  -20.2069  -48.2949 H         1 UNK         0.0600 
    144 H144       -1.5261  -19.2211  -46.1048 H         1 UNK         0.3000 
    145 H145        1.0197  -21.6992  -46.7797 H         1 UNK         0.0600 
    146 H146        2.2986  -19.5533  -46.5846 H         1 UNK         0.0600 
    147 H147        1.4762  -19.6887  -48.1299 H         1 UNK         0.0600 
    148 H148        0.8154  -18.6460  -46.8835 H         1 UNK         0.0600 
    149 H149        0.8610  -19.9281  -44.6247 H         1 UNK         0.3000 
    150 H150       -0.8622  -22.0641  -42.3151 H         1 UNK         0.0600 
    151 H151        1.5054  -22.8070  -42.4088 H         1 UNK         0.0600 
    152 H152        1.2704  -21.6365  -41.1192 H         1 UNK         0.0600 
    153 H153        2.0466  -21.1467  -42.6232 H         1 UNK         0.0600 
    154 H154        0.3355  -19.3587  -42.5039 H         1 UNK         0.3000 
    155 H155       -2.8093  -17.7383  -42.4733 H         1 UNK         0.0600 
    156 H156       -0.7957  -17.8783  -40.1656 H         1 UNK         0.0600 
    157 H157       -2.5099  -18.2592  -40.0295 H         1 UNK         0.0600 
    158 H158       -2.0069  -16.6234  -40.4240 H         1 UNK         0.0600 
    159 H159       -0.2328  -16.6294  -42.2250 H         1 UNK         0.3000 
    160 H160        0.7476  -16.7425  -45.6632 H         1 UNK         0.0600 
    161 H161       -0.1398  -14.4351  -43.8656 H         1 UNK         0.0600 
    162 H162       -0.8008  -14.7961  -45.4530 H         1 UNK         0.0600 
    163 H163        0.8790  -14.3031  -45.2987 H         1 UNK         0.0600 
    164 H164        2.1003  -15.5596  -43.5439 H         1 UNK         0.3000 
    165 H165        3.8993  -18.3905  -42.2941 H         1 UNK         0.0600 
    166 H166        5.7212  -16.8389  -42.9351 H         1 UNK         0.0600 
    167 H167        5.0111  -17.5686  -44.3674 H         1 UNK         0.0600 
    168 H168        4.6183  -15.9076  -43.9443 H         1 UNK         0.0600 
    169 H169        3.5338  -15.5063  -41.7696 H         1 UNK         0.3000 
    170 H170        1.6585  -16.0133  -38.8186 H         1 UNK         0.0600 
    171 H171        3.9655  -16.4562  -37.9636 H         1 UNK         0.0600 
    172 H172        4.6077  -15.1935  -39.0073 H         1 UNK         0.0600 
    173 H173        3.4978  -14.7844  -37.6983 H         1 UNK         0.0600 
    174 H174        2.8736  -13.6817  -39.9315 H         1 UNK         0.3000 
    175 H175        0.2449  -12.8528  -42.1954 H         1 UNK         0.0600 
    176 H176        1.1046  -11.6328  -39.5247 H         1 UNK         0.0600 
    177 H177        0.1774  -10.8343  -40.7950 H         1 UNK         0.0600 
    178 H178       -0.5234  -12.1785  -39.9099 H         1 UNK         0.0600 
    179 H179        2.3843  -11.2558  -41.7366 H         1 UNK         0.3000 
    180 H180        3.7940  -10.9439  -43.5175 H         1 UNK         0.0600 
    181 H181        5.7574  -13.1259  -42.5995 H         1 UNK         0.0600 
    182 H182        5.2409  -11.7477  -41.6354 H         1 UNK         0.0600 
    183 H183        6.1977  -11.4881  -43.0849 H         1 UNK         0.0600 
    184 H184        5.2359  -12.9633  -44.9853 H         1 UNK         0.3000 
    185 H185        4.8073  -12.7172  -47.5399 H         1 UNK         0.0600 
    186 H186        4.8558  -14.8327  -46.1891 H         1 UNK         0.0600 
    187 H187        3.1281  -15.0591  -46.4262 H         1 UNK         0.0600 
    188 H188        4.2397  -15.1946  -47.7861 H         1 UNK         0.0600 
    189 H189        1.9752  -12.4966  -47.7141 H         1 UNK         0.3000 
    190 H190       -2.8415  -22.3307  -47.0763 H         1 UNK         0.3000 
    191 H191       -5.3567  -23.2708  -46.2576 H         1 UNK         0.0600 
    192 H192       -3.3081  -23.0407  -43.9734 H         1 UNK         0.0600 
    193 H193       -4.7184  -24.0925  -43.9300 H         1 UNK         0.0600 
    194 H194       -4.9267  -22.3535  -44.0055 H         1 UNK         0.0600 
    195 H195       -1.8459  -23.8837  -45.6682 H         1 UNK         0.3000 
    196 H196       -2.1811  -26.7070  -46.4396 H         1 UNK         0.0600 
    197 H197        0.0747  -26.9429  -45.4624 H         1 UNK         0.0600 
    198 H198       -0.9997  -26.1225  -44.3401 H         1 UNK         0.0600 
    199 H199        0.2008  -25.2027  -45.2437 H         1 UNK         0.0600 
    200 H200       -0.1558  -23.8856  -47.4558 H         1 UNK         0.3000 
    201 H201        1.1931  -25.4205  -49.5279 H         1 UNK         0.0600 
    202 H202        2.3153  -23.5352  -48.2965 H         1 UNK         0.0600 
    203 H203        1.2145  -22.3912  -49.0677 H         1 UNK         0.0600 
    204 H204        2.3345  -23.3221  -50.0403 H         1 UNK         0.0600 
    205 H205       -1.1515  -22.7286  -49.4710 H         1 UNK         0.3000 
    206 H206       -2.1931  -23.4157  -52.1807 H         1 UNK         0.0600 
    207 H207       -1.8505  -20.9957  -51.7572 H         1 UNK         0.0600 
    208 H208       -3.5748  -21.3472  -51.7872 H         1 UNK         0.0600 
    209 H209       -2.7508  -21.0922  -50.2601 H         1 UNK         0.0600 
    210 H210       -3.3280  -25.2820  -51.8336 H         1 UNK         0.3000 
    211 H211       -4.4896  -26.2616  -49.5441 H         1 UNK         0.0600 
    212 H212       -5.2673  -26.7511  -52.4666 H         1 UNK         0.0600 
    213 H213       -5.7319  -27.7754  -51.1133 H         1 UNK         0.0600 
    214 H214       -4.0370  -27.6176  -51.5463 H         1 UNK         0.0600 
    215 H215       -5.8686  -25.2131  -48.2968 H         1 UNK         0.3000 
    216 H216       -7.6052  -24.1411  -47.4499 H         1 UNK         0.0600 
    217 H217       -9.8660  -24.5276  -48.3474 H         1 UNK         0.0600 
    218 H218       -8.9394  -26.0150  -48.4458 H         1 UNK         0.0600 
    219 H219       -9.2146  -25.0486  -49.8947 H         1 UNK         0.0600 
    220 H220       -5.7529  -22.6788  -49.0733 H         1 UNK         0.3000 
    221 H221       -5.2510  -20.6142  -49.5494 H         1 UNK         0.0600 
    222 H222       -8.1185  -19.7291  -48.9296 H         1 UNK         0.0600 
    223 H223       -6.8265  -19.8546  -47.7433 H         1 UNK         0.0600 
    224 H224       -6.7088  -18.6965  -49.0619 H         1 UNK         0.0600 
    225 H225       -8.2984  -21.5984  -51.0173 H         1 UNK         0.3000 
    226 H226       -8.5814  -19.7750  -53.0485 H         1 UNK         0.0600 
    227 H227      -10.3190  -21.3889  -52.3428 H         1 UNK         0.0600 
    228 H228      -10.0820  -21.5029  -54.0795 H         1 UNK         0.0600 
    229 H229       -9.3955  -22.7299  -53.0195 H         1 UNK         0.0600 
    230 H230       -6.3606  -22.4909  -53.1001 H         1 UNK         0.3000 
    231 H231       -5.8712  -22.5643  -55.9301 H         1 UNK         0.0600 
    232 H232       -5.3468  -24.4643  -54.4246 H         1 UNK         0.0600 
    233 H233       -4.1660  -23.4864  -53.5588 H         1 UNK         0.0600 
    234 H234       -3.8861  -23.9256  -55.2395 H         1 UNK         0.0600 
    235 H235       -4.7699  -20.4112  -53.4159 H         1 UNK         0.3000 
    236 H236       -3.2567  -18.8154  -53.1868 H         1 UNK         0.0600 
    237 H237       -3.9335  -18.2856  -56.1249 H         1 UNK         0.0600 
    238 H238       -4.9307  -17.8176  -54.7477 H         1 UNK         0.0600 
    239 H239       -3.3429  -17.1010  -54.9631 H         1 UNK         0.0600 
    240 H240       -2.0089  -21.3366  -53.9480 H         1 UNK         0.3000 
    241 H241       -0.1084  -22.2923  -54.4795 H         1 UNK         0.0600 
    242 H242       -1.8414  -21.2159  -56.7761 H         1 UNK         0.3800 
    243 H243       -0.7447  -21.3508  -58.1301 H         1 UNK         0.3800 
    244 H244        1.1706  -19.5378  -54.1655 H         1 UNK         0.0800 
    245 H245        2.0799  -21.0105  -54.3680 H         1 UNK         0.0800 
    246 H246        2.3857  -19.0027  -51.9095 H         1 UNK         0.0800 
    247 H247        1.7072  -19.5601  -50.4062 H         1 UNK         0.0800 
@<TRIPOS>BOND
     1    1    2 1    
     2    1  127 1    
     3    1  128 1    
     4    1  129 1    
     5    2    3 2    
     6    2    4 am   BACKBONE|DICT|INTERRES
     7    4    5 1    
     8    4  130 1    
     9    5    6 1    
    10    5   65 1    
    11    5  131 1    
    12    6    7 1    
    13    6  132 1    
    14    6  133 1    
    15    7    8 1    
    16    8    9 1    
    17    8  134 1    
    18    8  135 1    
    19    9   10 ar   
    20    9   14 ar   
    21   10   11 ar   
    22   10  136 1    
    23   11   12 ar   
    24   11  126 1    
    25   12   13 ar   
    26   12  137 1    
    27   13   14 ar   
    28   13   15 1    
    29   14  138 1    
    30   15   16 1    
    31   15  139 1    
    32   15  140 1    
    33   16   17 1    
    34   17   18 1    
    35   17  141 1    
    36   17  142 1    
    37   18   19 1    
    38   18   67 1    
    39   18  143 1    
    40   19   20 am   BACKBONE|DICT|INTERRES
    41   19  144 1    
    42   20   21 2    
    43   20   22 1    
    44   22   23 1    
    45   22   24 1    
    46   22  145 1    
    47   23  146 1    
    48   23  147 1    
    49   23  148 1    
    50   24   25 am   BACKBONE|DICT|INTERRES
    51   24  149 1    
    52   25   26 2    
    53   25   27 1    
    54   27   28 1    
    55   27   29 1    
    56   27  150 1    
    57   28  151 1    
    58   28  152 1    
    59   28  153 1    
    60   29   30 am   BACKBONE|DICT|INTERRES
    61   29  154 1    
    62   30   31 2    
    63   30   32 1    
    64   32   33 1    
    65   32   34 1    
    66   32  155 1    
    67   33  156 1    
    68   33  157 1    
    69   33  158 1    
    70   34   35 am   BACKBONE|DICT|INTERRES
    71   34  159 1    
    72   35   36 2    
    73   35   37 1    
    74   37   38 1    
    75   37   39 1    
    76   37  160 1    
    77   38  161 1    
    78   38  162 1    
    79   38  163 1    
    80   39   40 am   BACKBONE|DICT|INTERRES
    81   39  164 1    
    82   40   41 2    
    83   40   42 1    
    84   42   43 1    
    85   42   44 1    
    86   42  165 1    
    87   43  166 1    
    88   43  167 1    
    89   43  168 1    
    90   44   45 am   BACKBONE|DICT|INTERRES
    91   44  169 1    
    92   45   46 2    
    93   45   47 1    
    94   47   48 1    
    95   47   49 1    
    96   47  170 1    
    97   48  171 1    
    98   48  172 1    
    99   48  173 1    
   100   49   50 am   BACKBONE|DICT|INTERRES
   101   49  174 1    
   102   50   51 2    
   103   50   52 1    
   104   52   53 1    
   105   52   54 1    
   106   52  175 1    
   107   53  176 1    
   108   53  177 1    
   109   53  178 1    
   110   54   55 am   BACKBONE|DICT|INTERRES
   111   54  179 1    
   112   55   56 2    
   113   55   57 1    
   114   57   58 1    
   115   57   59 1    
   116   57  180 1    
   117   58  181 1    
   118   58  182 1    
   119   58  183 1    
   120   59   60 am   BACKBONE|DICT|INTERRES
   121   59  184 1    
   122   60   61 2    
   123   60   62 1    
   124   62   63 1    
   125   62   64 1    
   126   62  185 1    
   127   63  186 1    
   128   63  187 1    
   129   63  188 1    
   130   64   65 am   BACKBONE|DICT|INTERRES
   131   64  189 1    
   132   65   66 2    
   133   67   68 2    
   134   67   69 am   BACKBONE|DICT|INTERRES
   135   69   70 1    
   136   69  190 1    
   137   70   71 1    
   138   70   72 1    
   139   70  191 1    
   140   71  192 1    
   141   71  193 1    
   142   71  194 1    
   143   72   73 2    
   144   72   74 am   BACKBONE|DICT|INTERRES
   145   74   75 1    
   146   74  195 1    
   147   75   76 1    
   148   75   77 1    
   149   75  196 1    
   150   76  197 1    
   151   76  198 1    
   152   76  199 1    
   153   77   78 2    
   154   77   79 am   BACKBONE|DICT|INTERRES
   155   79   80 1    
   156   79  200 1    
   157   80   81 1    
   158   80   82 1    
   159   80  201 1    
   160   81  202 1    
   161   81  203 1    
   162   81  204 1    
   163   82   83 2    
   164   82   84 am   BACKBONE|DICT|INTERRES
   165   84   85 1    
   166   84  205 1    
   167   85   86 1    
   168   85   87 1    
   169   85  206 1    
   170   86  207 1    
   171   86  208 1    
   172   86  209 1    
   173   87   88 2    
   174   87   89 am   BACKBONE|DICT|INTERRES
   175   89   90 1    
   176   89  210 1    
   177   90   91 1    
   178   90   92 1    
   179   90  211 1    
   180   91  212 1    
   181   91  213 1    
   182   91  214 1    
   183   92   93 2    
   184   92   94 am   BACKBONE|DICT|INTERRES
   185   94   95 1    
   186   94  215 1    
   187   95   96 1    
   188   95   97 1    
   189   95  216 1    
   190   96  217 1    
   191   96  218 1    
   192   96  219 1    
   193   97   98 2    
   194   97   99 am   BACKBONE|DICT|INTERRES
   195   99  100 1    
   196   99  220 1    
   197  100  101 1    
   198  100  102 1    
   199  100  221 1    
   200  101  222 1    
   201  101  223 1    
   202  101  224 1    
   203  102  103 2    
   204  102  104 am   BACKBONE|DICT|INTERRES
   205  104  105 1    
   206  104  225 1    
   207  105  106 1    
   208  105  107 1    
   209  105  226 1    
   210  106  227 1    
   211  106  228 1    
   212  106  229 1    
   213  107  108 2    
   214  107  109 am   BACKBONE|DICT|INTERRES
   215  109  110 1    
   216  109  230 1    
   217  110  111 1    
   218  110  112 1    
   219  110  231 1    
   220  111  232 1    
   221  111  233 1    
   222  111  234 1    
   223  112  113 2    
   224  112  114 am   BACKBONE|DICT|INTERRES
   225  114  115 1    
   226  114  235 1    
   227  115  116 1    
   228  115  117 1    
   229  115  236 1    
   230  116  237 1    
   231  116  238 1    
   232  116  239 1    
   233  117  118 2    
   234  117  119 am   BACKBONE|DICT|INTERRES
   235  119  120 1    
   236  119  240 1    
   237  120  121 1    
   238  120  124 1    
   239  120  241 1    
   240  121  122 am   BACKBONE|DICT|INTERRES
   241  121  123 2    
   242  122  242 1    
   243  122  243 1    
   244  124  125 1    
   245  124  244 1    
   246  124  245 1    
   247  125  126 1    
   248  126  246 1    
   249  126  247 1    
@<TRIPOS>SUBSTRUCTURE
     1 UNK         1 GROUP             0       ****    0 ROOT    
