@<TRIPOS>MOLECULE
3R540
247   249    1
SMALL
USER_CHARGES


@<TRIPOS>ATOM
      1 CA         -3.2501  -15.1255  -45.0464 C.3       0 UNK        -0.1800 
      2 C          -2.9328  -13.7016  -45.4788 C.2       0 UNK         0.5000 
      3 O          -3.7782  -12.8167  -45.3458 O.2       0 UNK        -0.5000 
      4 N          -1.7250  -13.4832  -46.0090 N.am      1 UNK        -0.5000 
      5 CA         -1.2594  -12.1996  -46.5436 C.3       1 UNK         0.1400 
      6 C6         -0.2090  -12.3949  -47.6668 C.3       23 UNK        -0.0398 
      7 S7         -0.9144  -13.2281  -49.1335 S.3       23 UNK        -0.2404 
      8 C8         -0.5280  -14.9788  -48.8055 C.3       23 UNK        -0.0205 
      9 C9         -1.2695  -15.8950  -49.7613 C.ar      23 UNK        -0.0193 
     10 C10        -0.6279  -16.4238  -50.8835 C.ar      23 UNK        -0.1150 
     11 C11        -1.3221  -17.2513  -51.7710 C.ar      23 UNK        -0.0193 
     12 C12        -2.6649  -17.5544  -51.5247 C.ar      23 UNK        -0.1150 
     13 C13        -3.3140  -17.0331  -50.4008 C.ar      23 UNK        -0.0193 
     14 C14        -2.6093  -16.2094  -49.5202 C.ar      23 UNK        -0.1150 
     15 C15        -4.7880  -17.3187  -50.1635 C.3       23 UNK        -0.0205 
     16 S16        -5.0802  -19.0169  -49.5899 S.3       23 UNK        -0.2404 
     17 C17        -4.5484  -18.9568  -47.8448 C.3       23 UNK        -0.0398 
     18 CA         -3.8406  -20.2771  -47.4518 C.3       11 UNK         0.1400 
     19 N          -2.4049  -20.2777  -47.7653 N.am      11 UNK        -0.5000 
     20 C          -1.6587  -21.3899  -47.8388 C.2       10 UNK         0.5000 
     21 O          -2.1093  -22.5116  -47.6038 O.2       10 UNK        -0.5000 
     22 CA         -0.1738  -21.2507  -48.2316 C.3       10 UNK         0.1400 
     23 CB          0.1073  -21.9354  -49.5769 C.3       10 UNK        -0.1800 
     24 N           0.2710  -19.8576  -48.3237 N.am      10 UNK        -0.5000 
     25 C           0.7971  -19.0997  -47.3518 C.2       9 UNK         0.5000 
     26 O           1.1604  -17.9466  -47.5794 O.2       9 UNK        -0.5000 
     27 CA          0.9935  -19.6892  -45.9323 C.3       9 UNK         0.1400 
     28 CB          2.3704  -20.3621  -45.8125 C.3       9 UNK        -0.1800 
     29 N           0.8939  -18.6629  -44.8997 N.am      9 UNK        -0.5000 
     30 C          -0.2130  -17.9629  -44.6202 C.2       8 UNK         0.5000 
     31 O          -1.3158  -18.2084  -45.1128 O.2       8 UNK        -0.5000 
     32 CA         -0.0393  -16.7773  -43.6514 C.3       8 UNK         0.1400 
     33 CB         -0.0889  -17.2352  -42.1864 C.3       8 UNK        -0.1800 
     34 N           1.2227  -16.0828  -43.8918 N.am      8 UNK        -0.5000 
     35 C           1.4886  -15.3425  -44.9735 C.2       7 UNK         0.5000 
     36 O           0.6380  -15.0539  -45.8105 O.2       7 UNK        -0.5000 
     37 CA          2.9269  -14.8301  -45.1553 C.3       7 UNK         0.1400 
     38 CB          3.0475  -13.3903  -44.6445 C.3       7 UNK        -0.1800 
     39 N           3.8953  -15.6627  -44.4437 N.am      7 UNK        -0.5000 
     40 C           4.6124  -16.6494  -44.9963 C.2       6 UNK         0.5000 
     41 O           4.5769  -16.9352  -46.1929 O.2       6 UNK        -0.5000 
     42 CA          5.5341  -17.4572  -44.0596 C.3       6 UNK         0.1400 
     43 CB          6.9745  -16.9284  -44.1386 C.3       6 UNK        -0.1800 
     44 N           5.1045  -17.4503  -42.6595 N.am      6 UNK        -0.5000 
     45 C           4.0073  -18.0640  -42.1974 C.2       5 UNK         0.5000 
     46 O           3.2340  -18.7086  -42.9065 O.2       5 UNK        -0.5000 
     47 CA          3.6928  -17.8743  -40.6996 C.3       5 UNK         0.1400 
     48 CB          4.4521  -18.9096  -39.8567 C.3       5 UNK        -0.1800 
     49 N           3.9646  -16.5275  -40.1757 N.am      5 UNK        -0.5000 
     50 C           3.4621  -15.3918  -40.6785 C.2       4 UNK         0.5000 
     51 O           2.8350  -15.3372  -41.7346 O.2       4 UNK        -0.5000 
     52 CA          3.7208  -14.0891  -39.9032 C.3       4 UNK         0.1400 
     53 CB          4.8860  -13.3154  -40.5385 C.3       4 UNK        -0.1800 
     54 N           2.5280  -13.2381  -39.9017 N.am      4 UNK        -0.5000 
     55 C           1.3844  -13.5326  -39.2667 C.2       3 UNK         0.5000 
     56 O           1.2471  -14.5141  -38.5347 O.2       3 UNK        -0.5000 
     57 CA          0.1950  -12.5693  -39.4563 C.3       3 UNK         0.1400 
     58 CB          0.0724  -11.6291  -38.2466 C.3       3 UNK        -0.1800 
     59 N           0.2571  -11.7599  -40.6772 N.am      3 UNK        -0.5000 
     60 C           0.0286  -12.2243  -41.9123 C.2       2 UNK         0.5000 
     61 O          -0.2090  -13.4079  -42.1677 O.2       2 UNK        -0.5000 
     62 CA          0.0448  -11.1847  -43.0464 C.3       2 UNK         0.1400 
     63 CB          1.4047  -10.4642  -43.1591 C.3       2 UNK        -0.1800 
     64 N          -0.3124  -11.8580  -44.2925 N.am      2 UNK        -0.5000 
     65 C          -0.7317  -11.2763  -45.4234 C.2       1 UNK         0.5000 
     66 O          -0.7484  -10.0565  -45.5941 O.2       1 UNK        -0.5000 
     67 C          -4.1560  -20.7040  -46.0028 C.2       11 UNK         0.5000 
     68 O          -5.2104  -21.2987  -45.7793 O.2       11 UNK        -0.5000 
     69 N          -3.2375  -20.4586  -45.0573 N.am      12 UNK        -0.5000 
     70 CA         -3.3348  -20.9560  -43.6798 C.3       12 UNK         0.1400 
     71 CB         -2.3749  -20.1648  -42.7818 C.3       12 UNK        -0.1800 
     72 C          -3.0762  -22.4719  -43.5413 C.2       12 UNK         0.5000 
     73 O          -3.3862  -23.0336  -42.4895 O.2       12 UNK        -0.5000 
     74 N          -2.5157  -23.1046  -44.5825 N.am      13 UNK        -0.5000 
     75 CA         -2.3331  -24.5502  -44.6838 C.3       13 UNK         0.1400 
     76 CB         -0.9814  -24.8429  -45.3677 C.3       13 UNK        -0.1800 
     77 C          -3.5556  -25.1631  -45.3987 C.2       13 UNK         0.5000 
     78 O          -4.6912  -24.8882  -45.0059 O.2       13 UNK        -0.5000 
     79 N          -3.3303  -25.9707  -46.4423 N.am      14 UNK        -0.5000 
     80 CA         -4.3583  -26.6668  -47.2231 C.3       14 UNK         0.1400 
     81 CB         -3.7154  -27.9006  -47.8831 C.3       14 UNK        -0.1800 
     82 C          -5.0649  -25.7502  -48.2482 C.2       14 UNK         0.5000 
     83 O          -5.2011  -26.1257  -49.4146 O.2       14 UNK        -0.5000 
     84 N          -5.4721  -24.5483  -47.8100 N.am      15 UNK        -0.5000 
     85 CA         -6.1785  -23.5060  -48.5715 C.3       15 UNK         0.1400 
     86 CB         -7.6347  -23.9418  -48.8323 C.3       15 UNK        -0.1800 
     87 C          -5.4535  -23.0865  -49.8702 C.2       15 UNK         0.5000 
     88 O          -6.1046  -22.7676  -50.8675 O.2       15 UNK        -0.5000 
     89 N          -4.1132  -23.1662  -49.8543 N.am      16 UNK        -0.5000 
     90 CA         -3.2036  -22.9907  -50.9905 C.3       16 UNK         0.1400 
     91 CB         -3.1329  -21.5042  -51.3961 C.3       16 UNK        -0.1800 
     92 C          -3.5171  -23.9174  -52.1856 C.2       16 UNK         0.5000 
     93 O          -3.2514  -23.5407  -53.3260 O.2       16 UNK        -0.5000 
     94 N          -4.1110  -25.0916  -51.9163 N.am      17 UNK        -0.5000 
     95 CA         -4.6444  -26.0483  -52.8924 C.3       17 UNK         0.1400 
     96 CB         -3.5003  -26.7027  -53.6960 C.3       17 UNK        -0.1800 
     97 C          -5.7363  -25.4219  -53.7893 C.2       17 UNK         0.5000 
     98 O          -5.7612  -25.6693  -54.9947 O.2       17 UNK        -0.5000 
     99 N          -6.5910  -24.5808  -53.1847 N.am      18 UNK        -0.5000 
    100 CA        -7.5808  -23.7098  -53.8310 C.3       18 UNK         0.1400 
    101 CB        -8.6736  -24.5279  -54.5510 C.3       18 UNK        -0.1800 
    102 C         -6.8982  -22.6588  -54.7322 C.2       18 UNK         0.5000 
    103 O         -7.3000  -22.4571  -55.8788 O.2       18 UNK        -0.5000 
    104 N         -5.8420  -22.0430  -54.1820 N.am      19 UNK        -0.5000 
    105 CA        -4.9273  -21.0620  -54.7802 C.3       19 UNK         0.1400 
    106 CB        -5.6821  -19.8089  -55.2661 C.3       19 UNK        -0.1800 
    107 C         -3.9774  -21.6183  -55.8626 C.2       19 UNK         0.5000 
    108 O         -3.1259  -20.8693  -56.3419 O.2       19 UNK        -0.5000 
    109 N         -4.0786  -22.9076  -56.2134 N.am      20 UNK        -0.5000 
    110 CA        -3.2451  -23.5562  -57.2291 C.3       20 UNK         0.1400 
    111 CB        -3.8283  -24.9376  -57.5593 C.3       20 UNK        -0.1800 
    112 C         -1.7568  -23.6812  -56.8437 C.2       20 UNK         0.5000 
    113 O         -0.9186  -23.8075  -57.7377 O.2       20 UNK        -0.5000 
    114 N         -1.4451  -23.6489  -55.5400 N.am      21 UNK        -0.5000 
    115 CA        -0.0830  -23.7647  -55.0176 C.3       21 UNK         0.1400 
    116 CB        -0.1349  -24.1247  -53.5241 C.3       21 UNK        -0.1800 
    117 C          0.7728  -22.5004  -55.2210 C.2       21 UNK         0.5000 
    118 O          1.9999  -22.6139  -55.2111 O.2       21 UNK        -0.5000 
    119 N          0.1415  -21.3281  -55.3747 N.am      22 UNK        -0.5000 
    120 CA         0.8443  -20.0345  -55.4226 C.3       22 UNK         0.1400 
    121 C          0.1512  -18.9070  -56.2384 C.2       22 UNK         0.5000 
    122 N         -1.0567  -19.0704  -56.7598 N.am      22 UNK        -0.7600 
    123 O          0.7423  -17.8481  -56.4315 O.2       22 UNK        -0.5000 
    124 C124        1.3169  -19.5579  -54.0192 C.3       23 UNK        -0.0398 
    125 S125        0.0036  -19.4714  -52.7488 S.3       23 UNK        -0.2404 
    126 C126       -0.6263  -17.7862  -53.0109 C.3       23 UNK        -0.0205 
    127 H127       -3.1660  -15.2201  -43.9639 H         1 UNK         0.0600 
    128 H128       -4.2670  -15.3907  -45.3355 H         1 UNK         0.0600 
    129 H129       -2.5747  -15.8415  -45.5143 H         1 UNK         0.0600 
    130 H130       -1.0364  -14.2318  -46.0409 H         1 UNK         0.3000 
    131 H131       -2.1141  -11.6833  -46.9868 H         1 UNK         0.0600 
    132 H132        0.1663  -11.4263  -48.0018 H         1 UNK         0.0800 
    133 H133        0.6622  -12.9448  -47.3098 H         1 UNK         0.0800 
    134 H134        0.5495  -15.1417  -48.8620 H         1 UNK         0.0800 
    135 H135       -0.8294  -15.2470  -47.7959 H         1 UNK         0.0800 
    136 H136        0.4085  -16.1811  -51.0719 H         1 UNK         0.1150 
    137 H137       -3.2074  -18.1893  -52.2114 H         1 UNK         0.1150 
    138 H138       -3.1068  -15.7921  -48.6558 H         1 UNK         0.1150 
    139 H139       -5.2151  -16.6140  -49.4482 H         1 UNK         0.0800 
    140 H140       -5.3317  -17.1689  -51.0973 H         1 UNK         0.0800 
    141 H141       -5.4500  -18.7890  -47.2524 H         1 UNK         0.0800 
    142 H142       -3.9027  -18.0973  -47.6606 H         1 UNK         0.0800 
    143 H143       -4.2808  -21.0710  -48.0549 H         1 UNK         0.0600 
    144 H144       -1.9778  -19.3849  -47.9663 H         1 UNK         0.3000 
    145 H145        0.4075  -21.7895  -47.4834 H         1 UNK         0.0600 
    146 H146       -0.4437  -21.4701  -50.3934 H         1 UNK         0.0600 
    147 H147        1.1674  -21.8872  -49.8268 H         1 UNK         0.0600 
    148 H148       -0.1639  -22.9911  -49.5450 H         1 UNK         0.0600 
    149 H149        0.1719  -19.4381  -49.2370 H         1 UNK         0.3000 
    150 H150        0.2159  -20.4223  -45.7166 H         1 UNK         0.0600 
    151 H151        2.4990  -21.1474  -46.5577 H         1 UNK         0.0600 
    152 H152        2.5010  -20.8198  -44.8316 H         1 UNK         0.0600 
    153 H153        3.1784  -19.6428  -45.9539 H         1 UNK         0.0600 
    154 H154        1.7545  -18.4107  -44.4284 H         1 UNK         0.3000 
    155 H155       -0.8523  -16.0697  -43.8142 H         1 UNK         0.0600 
    156 H156       -1.0760  -17.6161  -41.9289 H         1 UNK         0.0600 
    157 H157        0.1215  -16.4070  -41.5085 H         1 UNK         0.0600 
    158 H158        0.6339  -18.0258  -41.9850 H         1 UNK         0.0600 
    159 H159        1.9259  -16.1411  -43.1625 H         1 UNK         0.3000 
    160 H160        3.1443  -14.8299  -46.2255 H         1 UNK         0.0600 
    161 H161        2.8217  -13.3324  -43.5795 H         1 UNK         0.0600 
    162 H162        2.3564  -12.7306  -45.1702 H         1 UNK         0.0600 
    163 H163        4.0529  -12.9983  -44.7973 H         1 UNK         0.0600 
    164 H164        3.9356  -15.5312  -43.4399 H         1 UNK         0.3000 
    165 H165        5.5300  -18.4917  -44.4100 H         1 UNK         0.0600 
    166 H166        7.6528  -17.5393  -43.5427 H         1 UNK         0.0600 
    167 H167        7.3415  -16.9456  -45.1657 H         1 UNK         0.0600 
    168 H168        7.0454  -15.9000  -43.7820 H         1 UNK         0.0600 
    169 H169        5.6739  -16.9288  -42.0092 H         1 UNK         0.3000 
    170 H170        2.6244  -18.0563  -40.5706 H         1 UNK         0.0600 
    171 H171        5.5304  -18.7512  -39.8996 H         1 UNK         0.0600 
    172 H172        4.1473  -18.8679  -38.8109 H         1 UNK         0.0600 
    173 H173        4.2546  -19.9227  -40.2102 H         1 UNK         0.0600 
    174 H174        4.4910  -16.4847  -39.3149 H         1 UNK         0.3000 
    175 H175        3.9773  -14.3306  -38.8697 H         1 UNK         0.0600 
    176 H176        5.7984  -13.9129  -40.5386 H         1 UNK         0.0600 
    177 H177        4.6723  -13.0423  -41.5730 H         1 UNK         0.0600 
    178 H178        5.0986  -12.3994  -39.9869 H         1 UNK         0.0600 
    179 H179        2.5436  -12.4316  -40.5066 H         1 UNK         0.3000 
    180 H180       -0.7091  -13.1806  -39.5008 H         1 UNK         0.0600 
    181 H181       -0.8159  -11.0017  -38.3223 H         1 UNK         0.0600 
    182 H182        0.9405  -10.9750  -38.1558 H         1 UNK         0.0600 
    183 H183       -0.0106  -12.1949  -37.3176 H         1 UNK         0.0600 
    184 H184        0.4408  -10.7750  -40.5504 H         1 UNK         0.3000 
    185 H185       -0.7308  -10.4482  -42.8271 H         1 UNK         0.0600 
    186 H186        1.5925   -9.8468  -42.2805 H         1 UNK         0.0600 
    187 H187        2.2347  -11.1618  -43.2422 H         1 UNK         0.0600 
    188 H188        1.4410   -9.8003  -44.0224 H         1 UNK         0.0600 
    189 H189       -0.3760  -12.8655  -44.2018 H         1 UNK         0.3000 
    190 H190       -2.4352  -19.8775  -45.2790 H         1 UNK         0.3000 
    191 H191       -4.3500  -20.7720  -43.3218 H         1 UNK         0.0600 
    192 H192       -1.3368  -20.2932  -43.0895 H         1 UNK         0.0600 
    193 H193       -2.4513  -20.4863  -41.7424 H         1 UNK         0.0600 
    194 H194       -2.6143  -19.1024  -42.8083 H         1 UNK         0.0600 
    195 H195       -2.3555  -22.5839  -45.4346 H         1 UNK         0.3000 
    196 H196       -2.2961  -24.9920  -43.6862 H         1 UNK         0.0600 
    197 H197       -0.7654  -25.9120  -45.3722 H         1 UNK         0.0600 
    198 H198       -0.1642  -24.3582  -44.8332 H         1 UNK         0.0600 
    199 H199       -0.9516  -24.4915  -46.3988 H         1 UNK         0.0600 
    200 H200       -2.3751  -26.1185  -46.7337 H         1 UNK         0.3000 
    201 H201       -5.1308  -27.0259  -46.5401 H         1 UNK         0.0600 
    202 H202       -3.2618  -28.5551  -47.1386 H         1 UNK         0.0600 
    203 H203       -2.9417  -27.6173  -48.5978 H         1 UNK         0.0600 
    204 H204       -4.4586  -28.4920  -48.4196 H         1 UNK         0.0600 
    205 H205       -5.3070  -24.3435  -46.8289 H         1 UNK         0.3000 
    206 H206       -6.2079  -22.6204  -47.9370 H         1 UNK         0.0600 
    207 H207       -8.1361  -24.2150  -47.9038 H         1 UNK         0.0600 
    208 H208       -8.2122  -23.1346  -49.2845 H         1 UNK         0.0600 
    209 H209       -7.6854  -24.7985  -49.5053 H         1 UNK         0.0600 
    210 H210       -3.6665  -23.4222  -48.9821 H         1 UNK         0.3000 
    211 H211       -2.2167  -23.2923  -50.6433 H         1 UNK         0.0600 
    212 H212       -4.1031  -21.1286  -51.7177 H         1 UNK         0.0600 
    213 H213       -2.4263  -21.3433  -52.2108 H         1 UNK         0.0600 
    214 H214       -2.8061  -20.8813  -50.5654 H         1 UNK         0.0600 
    215 H215       -4.3279  -25.3133  -50.9482 H         1 UNK         0.3000 
    216 H216       -5.1359  -26.8332  -52.3159 H         1 UNK         0.0600 
    217 H217       -3.8786  -27.5031  -54.3326 H         1 UNK         0.0600 
    218 H218       -2.7546  -27.1409  -53.0330 H         1 UNK         0.0600 
    219 H219       -2.9931  -25.9859  -54.3418 H         1 UNK         0.0600 
    220 H220       -6.4452  -24.3909  -52.1999 H         1 UNK         0.3000 
    221 H221       -8.0663  -23.1531  -53.0280 H         1 UNK         0.0600 
    222 H222       -8.2831  -25.0627  -55.4170 H         1 UNK         0.0600 
    223 H223       -9.1245  -25.2588  -53.8800 H         1 UNK         0.0600 
    224 H224       -9.4730  -23.8769  -54.9063 H         1 UNK         0.0600 
    225 H225       -5.5991  -22.3218  -53.2401 H         1 UNK         0.3000 
    226 H226       -4.2731  -20.7402  -53.9711 H         1 UNK         0.0600 
    227 H227       -6.3096  -20.0204  -56.1319 H         1 UNK         0.0600 
    228 H228       -6.3171  -19.4010  -54.4797 H         1 UNK         0.0600 
    229 H229       -4.9843  -19.0228  -55.5575 H         1 UNK         0.0600 
    230 H230       -4.7639  -23.4860  -55.7473 H         1 UNK         0.3000 
    231 H231       -3.2956  -22.9457  -58.1330 H         1 UNK         0.0600 
    232 H232       -3.3019  -25.3916  -58.3997 H         1 UNK         0.0600 
    233 H233       -4.8817  -24.8704  -57.8324 H         1 UNK         0.0600 
    234 H234       -3.7420  -25.6211  -56.7147 H         1 UNK         0.0600 
    235 H235       -2.1906  -23.5548  -54.8526 H         1 UNK         0.3000 
    236 H236        0.4122  -24.5847  -55.5419 H         1 UNK         0.0600 
    237 H237        0.8656  -24.3177  -53.1351 H         1 UNK         0.0600 
    238 H238       -0.5618  -23.3145  -52.9319 H         1 UNK         0.0600 
    239 H239       -0.7286  -25.0224  -53.3516 H         1 UNK         0.0600 
    240 H240       -0.8679  -21.3027  -55.3804 H         1 UNK         0.3000 
    241 H241        1.7522  -20.2044  -56.0050 H         1 UNK         0.0600 
    242 H242       -1.4461  -18.3110  -57.2945 H         1 UNK         0.3800 
    243 H243       -1.6356  -19.8920  -56.6057 H         1 UNK         0.3800 
    244 H244        2.0681  -20.2544  -53.6455 H         1 UNK         0.0800 
    245 H245        1.8354  -18.5999  -54.0816 H         1 UNK         0.0800 
    246 H246        0.1914  -17.1199  -53.2894 H         1 UNK         0.0800 
    247 H247       -1.3199  -17.7879  -53.8529 H         1 UNK         0.0800 
@<TRIPOS>BOND
     1    1    2 1    
     2    1  127 1    
     3    1  128 1    
     4    1  129 1    
     5    2    3 2    
     6    2    4 am   BACKBONE|DICT|INTERRES
     7    4    5 1    
     8    4  130 1    
     9    5    6 1    
    10    5   65 1    
    11    5  131 1    
    12    6    7 1    
    13    6  132 1    
    14    6  133 1    
    15    7    8 1    
    16    8    9 1    
    17    8  134 1    
    18    8  135 1    
    19    9   10 ar   
    20    9   14 ar   
    21   10   11 ar   
    22   10  136 1    
    23   11   12 ar   
    24   11  126 1    
    25   12   13 ar   
    26   12  137 1    
    27   13   14 ar   
    28   13   15 1    
    29   14  138 1    
    30   15   16 1    
    31   15  139 1    
    32   15  140 1    
    33   16   17 1    
    34   17   18 1    
    35   17  141 1    
    36   17  142 1    
    37   18   19 1    
    38   18   67 1    
    39   18  143 1    
    40   19   20 am   BACKBONE|DICT|INTERRES
    41   19  144 1    
    42   20   21 2    
    43   20   22 1    
    44   22   23 1    
    45   22   24 1    
    46   22  145 1    
    47   23  146 1    
    48   23  147 1    
    49   23  148 1    
    50   24   25 am   BACKBONE|DICT|INTERRES
    51   24  149 1    
    52   25   26 2    
    53   25   27 1    
    54   27   28 1    
    55   27   29 1    
    56   27  150 1    
    57   28  151 1    
    58   28  152 1    
    59   28  153 1    
    60   29   30 am   BACKBONE|DICT|INTERRES
    61   29  154 1    
    62   30   31 2    
    63   30   32 1    
    64   32   33 1    
    65   32   34 1    
    66   32  155 1    
    67   33  156 1    
    68   33  157 1    
    69   33  158 1    
    70   34   35 am   BACKBONE|DICT|INTERRES
    71   34  159 1    
    72   35   36 2    
    73   35   37 1    
    74   37   38 1    
    75   37   39 1    
    76   37  160 1    
    77   38  161 1    
    78   38  162 1    
    79   38  163 1    
    80   39   40 am   BACKBONE|DICT|INTERRES
    81   39  164 1    
    82   40   41 2    
    83   40   42 1    
    84   42   43 1    
    85   42   44 1    
    86   42  165 1    
    87   43  166 1    
    88   43  167 1    
    89   43  168 1    
    90   44   45 am   BACKBONE|DICT|INTERRES
    91   44  169 1    
    92   45   46 2    
    93   45   47 1    
    94   47   48 1    
    95   47   49 1    
    96   47  170 1    
    97   48  171 1    
    98   48  172 1    
    99   48  173 1    
   100   49   50 am   BACKBONE|DICT|INTERRES
   101   49  174 1    
   102   50   51 2    
   103   50   52 1    
   104   52   53 1    
   105   52   54 1    
   106   52  175 1    
   107   53  176 1    
   108   53  177 1    
   109   53  178 1    
   110   54   55 am   BACKBONE|DICT|INTERRES
   111   54  179 1    
   112   55   56 2    
   113   55   57 1    
   114   57   58 1    
   115   57   59 1    
   116   57  180 1    
   117   58  181 1    
   118   58  182 1    
   119   58  183 1    
   120   59   60 am   BACKBONE|DICT|INTERRES
   121   59  184 1    
   122   60   61 2    
   123   60   62 1    
   124   62   63 1    
   125   62   64 1    
   126   62  185 1    
   127   63  186 1    
   128   63  187 1    
   129   63  188 1    
   130   64   65 am   BACKBONE|DICT|INTERRES
   131   64  189 1    
   132   65   66 2    
   133   67   68 2    
   134   67   69 am   BACKBONE|DICT|INTERRES
   135   69   70 1    
   136   69  190 1    
   137   70   71 1    
   138   70   72 1    
   139   70  191 1    
   140   71  192 1    
   141   71  193 1    
   142   71  194 1    
   143   72   73 2    
   144   72   74 am   BACKBONE|DICT|INTERRES
   145   74   75 1    
   146   74  195 1    
   147   75   76 1    
   148   75   77 1    
   149   75  196 1    
   150   76  197 1    
   151   76  198 1    
   152   76  199 1    
   153   77   78 2    
   154   77   79 am   BACKBONE|DICT|INTERRES
   155   79   80 1    
   156   79  200 1    
   157   80   81 1    
   158   80   82 1    
   159   80  201 1    
   160   81  202 1    
   161   81  203 1    
   162   81  204 1    
   163   82   83 2    
   164   82   84 am   BACKBONE|DICT|INTERRES
   165   84   85 1    
   166   84  205 1    
   167   85   86 1    
   168   85   87 1    
   169   85  206 1    
   170   86  207 1    
   171   86  208 1    
   172   86  209 1    
   173   87   88 2    
   174   87   89 am   BACKBONE|DICT|INTERRES
   175   89   90 1    
   176   89  210 1    
   177   90   91 1    
   178   90   92 1    
   179   90  211 1    
   180   91  212 1    
   181   91  213 1    
   182   91  214 1    
   183   92   93 2    
   184   92   94 am   BACKBONE|DICT|INTERRES
   185   94   95 1    
   186   94  215 1    
   187   95   96 1    
   188   95   97 1    
   189   95  216 1    
   190   96  217 1    
   191   96  218 1    
   192   96  219 1    
   193   97   98 2    
   194   97   99 am   BACKBONE|DICT|INTERRES
   195   99  100 1    
   196   99  220 1    
   197  100  101 1    
   198  100  102 1    
   199  100  221 1    
   200  101  222 1    
   201  101  223 1    
   202  101  224 1    
   203  102  103 2    
   204  102  104 am   BACKBONE|DICT|INTERRES
   205  104  105 1    
   206  104  225 1    
   207  105  106 1    
   208  105  107 1    
   209  105  226 1    
   210  106  227 1    
   211  106  228 1    
   212  106  229 1    
   213  107  108 2    
   214  107  109 am   BACKBONE|DICT|INTERRES
   215  109  110 1    
   216  109  230 1    
   217  110  111 1    
   218  110  112 1    
   219  110  231 1    
   220  111  232 1    
   221  111  233 1    
   222  111  234 1    
   223  112  113 2    
   224  112  114 am   BACKBONE|DICT|INTERRES
   225  114  115 1    
   226  114  235 1    
   227  115  116 1    
   228  115  117 1    
   229  115  236 1    
   230  116  237 1    
   231  116  238 1    
   232  116  239 1    
   233  117  118 2    
   234  117  119 am   BACKBONE|DICT|INTERRES
   235  119  120 1    
   236  119  240 1    
   237  120  121 1    
   238  120  124 1    
   239  120  241 1    
   240  121  122 am   BACKBONE|DICT|INTERRES
   241  121  123 2    
   242  122  242 1    
   243  122  243 1    
   244  124  125 1    
   245  124  244 1    
   246  124  245 1    
   247  125  126 1    
   248  126  246 1    
   249  126  247 1    
@<TRIPOS>SUBSTRUCTURE
     1 UNK         1 GROUP             0       ****    0 ROOT    
