@<TRIPOS>MOLECULE
3R540
247   249    1
SMALL
USER_CHARGES


@<TRIPOS>ATOM
      1 CA         -5.0450  -10.6463  -43.2569 C.3       0 UNK        -0.1800 
      2 C          -4.0287  -11.4972  -44.0049 C.2       0 UNK         0.5000 
      3 O          -3.5601  -12.5017  -43.4688 O.2       0 UNK        -0.5000 
      4 N          -3.6854  -11.0970  -45.2373 N.am      1 UNK        -0.5000 
      5 CA         -2.7162  -11.7260  -46.1449 C.3       1 UNK         0.1400 
      6 C6         -3.0378  -13.2119  -46.4558 C.3       23 UNK        -0.0398 
      7 S7         -2.1944  -13.8398  -47.9445 S.3       23 UNK        -0.2404 
      8 C8         -3.2685  -15.2564  -48.3253 C.3       23 UNK        -0.0205 
      9 C9         -2.6614  -16.1615  -49.3847 C.ar      23 UNK        -0.0193 
     10 C10        -3.2173  -16.2368  -50.6643 C.ar      23 UNK        -0.1150 
     11 C11        -2.6839  -17.1099  -51.6167 C.ar      23 UNK        -0.0193 
     12 C12        -1.5962  -17.9187  -51.2752 C.ar      23 UNK        -0.1150 
     13 C13        -1.0262  -17.8556  -50.0001 C.ar      23 UNK        -0.0193 
     14 C14        -1.5583  -16.9564  -49.0666 C.ar      23 UNK        -0.1150 
     15 C15         0.1524  -18.7791  -49.6784 C.3       23 UNK        -0.0205 
     16 S16         0.4832  -19.0601  -47.9016 S.3       23 UNK        -0.2404 
     17 C17        -1.1137  -19.7122  -47.3220 C.3       23 UNK        -0.0398 
     18 CA         -1.0430  -21.1633  -46.7984 C.3       11 UNK         0.1400 
     19 N          -0.1733  -21.3385  -45.6314 N.am      11 UNK        -0.5000 
     20 C           0.1990  -22.5343  -45.1467 C.2       10 UNK         0.5000 
     21 O          -0.0232  -23.6001  -45.7208 O.2       10 UNK        -0.5000 
     22 CA          0.8729  -22.5572  -43.7611 C.3       10 UNK         0.1400 
     23 CB          2.4011  -22.6346  -43.8667 C.3       10 UNK        -0.1800 
     24 N           0.4872  -21.4089  -42.9398 N.am      10 UNK        -0.5000 
     25 C          -0.7088  -21.3047  -42.3414 C.2       9 UNK         0.5000 
     26 O          -1.5747  -22.1791  -42.3956 O.2       9 UNK        -0.5000 
     27 CA         -1.0091  -19.9858  -41.6077 C.3       9 UNK         0.1400 
     28 CB         -0.4899  -20.0444  -40.1647 C.3       9 UNK        -0.1800 
     29 N          -0.4578  -18.8194  -42.3061 N.am      9 UNK        -0.5000 
     30 C          -0.9196  -18.3901  -43.4913 C.2       8 UNK         0.5000 
     31 O          -1.8577  -18.9405  -44.0682 O.2       8 UNK        -0.5000 
     32 CA         -0.2128  -17.2115  -44.1944 C.3       8 UNK         0.1400 
     33 CB         -1.2145  -16.2351  -44.8470 C.3       8 UNK        -0.1800 
     34 N           0.7713  -16.5096  -43.3681 N.am      8 UNK        -0.5000 
     35 C           0.5622  -15.7329  -42.2961 C.2       7 UNK         0.5000 
     36 O          -0.5506  -15.4060  -41.8839 O.2       7 UNK        -0.5000 
     37 CA          1.8374  -15.2740  -41.5535 C.3       7 UNK         0.1400 
     38 CB          1.5581  -14.7867  -40.1162 C.3       7 UNK        -0.1800 
     39 N           2.8944  -16.2988  -41.5712 N.am      7 UNK        -0.5000 
     40 C           2.8099  -17.5327  -41.0513 C.2       6 UNK         0.5000 
     41 O           1.8174  -17.9448  -40.4529 O.2       6 UNK        -0.5000 
     42 CA          4.0143  -18.4685  -41.2807 C.3       6 UNK         0.1400 
     43 CB          3.7614  -19.9041  -40.7711 C.3       6 UNK        -0.1800 
     44 N           4.4636  -18.5012  -42.6763 N.am      6 UNK        -0.5000 
     45 C           3.7627  -18.8700  -43.7576 C.2       5 UNK         0.5000 
     46 O           2.5638  -19.1635  -43.7341 O.2       5 UNK        -0.5000 
     47 CA          4.5530  -18.8930  -45.0864 C.3       5 UNK         0.1400 
     48 CB          3.7646  -19.5287  -46.2409 C.3       5 UNK        -0.1800 
     49 N           4.9361  -17.5482  -45.5047 N.am      5 UNK        -0.5000 
     50 C           5.8965  -16.7862  -44.9680 C.2       4 UNK         0.5000 
     51 O           6.6582  -17.1747  -44.0809 O.2       4 UNK        -0.5000 
     52 CA          5.9985  -15.3354  -45.4854 C.3       4 UNK         0.1400 
     53 CB          7.1463  -15.2079  -46.4984 C.3       4 UNK        -0.1800 
     54 N           4.7650  -14.8160  -46.0940 N.am      4 UNK        -0.5000 
     55 C           3.5880  -14.6963  -45.4648 C.2       3 UNK         0.5000 
     56 O           3.3956  -15.0743  -44.3079 O.2       3 UNK        -0.5000 
     57 CA          2.4223  -14.1128  -46.2857 C.3       3 UNK         0.1400 
     58 CB          1.7658  -15.2152  -47.1340 C.3       3 UNK        -0.1800 
     59 N           1.3997  -13.4987  -45.4367 N.am      3 UNK        -0.5000 
     60 C           1.5824  -12.4156  -44.6686 C.2       2 UNK         0.5000 
     61 O           2.6365  -11.7777  -44.6289 O.2       2 UNK        -0.5000 
     62 CA          0.3734  -11.9756  -43.8126 C.3       2 UNK         0.1400 
     63 CB          0.5410  -10.5636  -43.2149 C.3       2 UNK        -0.1800 
     64 N          -0.9132  -12.0797  -44.5108 N.am      2 UNK        -0.5000 
     65 C          -1.2626  -11.5056  -45.6725 C.2       1 UNK         0.5000 
     66 O          -0.5109  -10.8019  -46.3487 O.2       1 UNK        -0.5000 
     67 C          -2.4645  -21.6560  -46.4805 C.2       11 UNK         0.5000 
     68 O          -3.0070  -22.4505  -47.2442 O.2       11 UNK        -0.5000 
     69 N          -3.0346  -21.2001  -45.3549 N.am      12 UNK        -0.5000 
     70 CA         -4.3756  -21.5603  -44.8865 C.3       12 UNK         0.1400 
     71 CB         -4.7028  -20.7773  -43.6069 C.3       12 UNK        -0.1800 
     72 C          -4.5546  -23.0732  -44.6664 C.2       12 UNK         0.5000 
     73 O          -5.5931  -23.6198  -45.0378 O.2       12 UNK        -0.5000 
     74 N          -3.5105  -23.7334  -44.1461 N.am      13 UNK        -0.5000 
     75 CA         -3.4244  -25.1888  -43.9948 C.3       13 UNK         0.1400 
     76 CB         -2.1445  -25.5326  -43.2182 C.3       13 UNK        -0.1800 
     77 C          -3.4687  -25.9653  -45.3300 C.2       13 UNK         0.5000 
     78 O          -3.8854  -27.1240  -45.3380 O.2       13 UNK        -0.5000 
     79 N          -3.0600  -25.3160  -46.4279 N.am      14 UNK        -0.5000 
     80 CA         -3.0899  -25.8402  -47.7947 C.3       14 UNK         0.1400 
     81 CB         -1.7471  -25.5068  -48.4667 C.3       14 UNK        -0.1800 
     82 C          -4.2724  -25.2761  -48.6131 C.2       14 UNK         0.5000 
     83 O          -4.3466  -25.5361  -49.8142 O.2       14 UNK        -0.5000 
     84 N          -5.1637  -24.5109  -47.9625 N.am      15 UNK        -0.5000 
     85 CA         -6.3167  -23.8014  -48.5260 C.3       15 UNK         0.1400 
     86 CB         -7.4077  -24.7903  -48.9867 C.3       15 UNK        -0.1800 
     87 C          -5.9394  -22.7289  -49.5749 C.2       15 UNK         0.5000 
     88 O          -6.6668  -22.5250  -50.5494 O.2       15 UNK        -0.5000 
     89 N          -4.8196  -22.0355  -49.3206 N.am      16 UNK        -0.5000 
     90 CA         -4.2897  -20.8669  -50.0263 C.3       16 UNK         0.1400 
     91 CB         -5.1316  -19.6180  -49.6885 C.3       16 UNK        -0.1800 
     92 C          -4.1059  -21.1094  -51.5348 C.2       16 UNK         0.5000 
     93 O          -3.1670  -21.8049  -51.9215 O.2       16 UNK        -0.5000 
     94 N          -5.0028  -20.5517  -52.3598 N.am      17 UNK        -0.5000 
     95 CA         -4.9938  -20.6665  -53.8194 C.3       17 UNK         0.1400 
     96 CB         -6.1078  -19.7856  -54.4024 C.3       17 UNK        -0.1800 
     97 C          -5.1069  -22.1117  -54.3427 C.2       17 UNK         0.5000 
     98 O          -4.6063  -22.3990  -55.4314 O.2       17 UNK        -0.5000 
     99 N          -5.7006  -23.0084  -53.5396 N.am      18 UNK        -0.5000 
    100 CA        -5.8060  -24.4458  -53.8077 C.3       18 UNK         0.1400 
    101 CB        -6.7054  -25.0870  -52.7452 C.3       18 UNK        -0.1800 
    102 C         -4.4476  -25.1769  -53.8705 C.2       18 UNK         0.5000 
    103 O         -4.3813  -26.2701  -54.4330 O.2       18 UNK        -0.5000 
    104 N         -3.3821  -24.5519  -53.3474 N.am      19 UNK        -0.5000 
    105 CA        -1.9932  -25.0006  -53.4687 C.3       19 UNK         0.1400 
    106 CB        -1.1756  -24.3741  -52.3263 C.3       19 UNK        -0.1800 
    107 C         -1.3623  -24.6726  -54.8433 C.2       19 UNK         0.5000 
    108 O         -0.1574  -24.8699  -55.0046 O.2       19 UNK        -0.5000 
    109 N         -2.1684  -24.1683  -55.7925 N.am      20 UNK        -0.5000 
    110 CA        -1.8042  -23.6563  -57.1166 C.3       20 UNK         0.1400 
    111 CB        -1.1058  -24.7268  -57.9824 C.3       20 UNK        -0.1800 
    112 C         -1.0143  -22.3421  -56.9869 C.2       20 UNK         0.5000 
    113 O          0.1059  -22.2252  -57.4878 O.2       20 UNK        -0.5000 
    114 N         -1.6253  -21.3848  -56.2822 N.am      21 UNK        -0.5000 
    115 CA        -1.0907  -20.0567  -56.0031 C.3       21 UNK         0.1400 
    116 CB        -0.7127  -19.9856  -54.5144 C.3       21 UNK        -0.1800 
    117 C         -2.1449  -18.9958  -56.3516 C.2       21 UNK         0.5000 
    118 O         -3.3317  -19.3159  -56.4432 O.2       21 UNK        -0.5000 
    119 N         -1.6918  -17.7480  -56.5208 N.am      22 UNK        -0.5000 
    120 CA        -2.5189  -16.5580  -56.8069 C.3       22 UNK         0.1400 
    121 C         -3.2255  -16.5623  -58.1996 C.2       22 UNK         0.5000 
    122 N         -2.8125  -17.3932  -59.1489 N.am      22 UNK        -0.7600 
    123 O         -4.1391  -15.7779  -58.4422 O.2       22 UNK        -0.5000 
    124 C124       -3.4906  -16.1965  -55.6456 C.3       23 UNK        -0.0398 
    125 S125       -2.6156  -15.8734  -54.0757 S.3       23 UNK        -0.2404 
    126 C126       -3.2877  -17.1829  -53.0097 C.3       23 UNK        -0.0205 
    127 H127       -5.3763   -9.7937  -43.8501 H         1 UNK         0.0600 
    128 H128       -4.6088  -10.2686  -42.3322 H         1 UNK         0.0600 
    129 H129       -5.9199  -11.2446  -43.0030 H         1 UNK         0.0600 
    130 H130       -4.0990  -10.2466  -45.5944 H         1 UNK         0.3000 
    131 H131       -2.8227  -11.1746  -47.0808 H         1 UNK         0.0600 
    132 H132       -4.1122  -13.3159  -46.6140 H         1 UNK         0.0800 
    133 H133       -2.7977  -13.8615  -45.6138 H         1 UNK         0.0800 
    134 H134       -4.2458  -14.8906  -48.6442 H         1 UNK         0.0800 
    135 H135       -3.4373  -15.8393  -47.4185 H         1 UNK         0.0800 
    136 H136       -4.0664  -15.6189  -50.9210 H         1 UNK         0.1150 
    137 H137       -1.1889  -18.6013  -52.0062 H         1 UNK         0.1150 
    138 H138       -1.1309  -16.8735  -48.0783 H         1 UNK         0.1150 
    139 H139        1.0513  -18.3606  -50.1326 H         1 UNK         0.0800 
    140 H140       -0.0084  -19.7506  -50.1488 H         1 UNK         0.0800 
    141 H141       -1.8322  -19.6544  -48.1395 H         1 UNK         0.0800 
    142 H142       -1.4914  -19.0329  -46.5601 H         1 UNK         0.0800 
    143 H143       -0.6523  -21.7892  -47.6041 H         1 UNK         0.0600 
    144 H144        0.0514  -20.5111  -45.1006 H         1 UNK         0.3000 
    145 H145        0.5384  -23.4674  -43.2584 H         1 UNK         0.0600 
    146 H146        2.7096  -23.4784  -44.4852 H         1 UNK         0.0600 
    147 H147        2.8558  -22.7661  -42.8847 H         1 UNK         0.0600 
    148 H148        2.8194  -21.7339  -44.3061 H         1 UNK         0.0600 
    149 H149        1.1357  -20.6305  -42.9011 H         1 UNK         0.3000 
    150 H150       -2.0939  -19.8678  -41.5653 H         1 UNK         0.0600 
    151 H151        0.5816  -20.2427  -40.1285 H         1 UNK         0.0600 
    152 H152       -0.9858  -20.8397  -39.6069 H         1 UNK         0.0600 
    153 H153       -0.6786  -19.1094  -39.6370 H         1 UNK         0.0600 
    154 H154        0.3279  -18.3511  -41.8681 H         1 UNK         0.3000 
    155 H155        0.3642  -17.6672  -44.9999 H         1 UNK         0.0600 
    156 H156       -1.8854  -15.7889  -44.1128 H         1 UNK         0.0600 
    157 H157       -1.8380  -16.7456  -45.5812 H         1 UNK         0.0600 
    158 H158       -0.7049  -15.4288  -45.3705 H         1 UNK         0.0600 
    159 H159        1.7374  -16.7078  -43.5952 H         1 UNK         0.3000 
    160 H160        2.2225  -14.4185  -42.1086 H         1 UNK         0.0600 
    161 H161        1.0937  -15.5614  -39.5056 H         1 UNK         0.0600 
    162 H162        0.8849  -13.9287  -40.1199 H         1 UNK         0.0600 
    163 H163        2.4771  -14.4742  -39.6206 H         1 UNK         0.0600 
    164 H164        3.7133  -16.0599  -42.1151 H         1 UNK         0.3000 
    165 H165        4.8380  -18.0526  -40.6990 H         1 UNK         0.0600 
    166 H166        3.5235  -19.9058  -39.7068 H         1 UNK         0.0600 
    167 H167        2.9304  -20.3806  -41.2919 H         1 UNK         0.0600 
    168 H168        4.6429  -20.5308  -40.9061 H         1 UNK         0.0600 
    169 H169        5.4207  -18.2031  -42.8373 H         1 UNK         0.3000 
    170 H170        5.4567  -19.4851  -44.9281 H         1 UNK         0.0600 
    171 H171        4.3379  -19.5149  -47.1680 H         1 UNK         0.0600 
    172 H172        3.5144  -20.5679  -46.0378 H         1 UNK         0.0600 
    173 H173        2.8356  -18.9902  -46.4155 H         1 UNK         0.0600 
    174 H174        4.3533  -17.1242  -46.2103 H         1 UNK         0.3000 
    175 H175        6.2302  -14.7047  -44.6247 H         1 UNK         0.0600 
    176 H176        8.0869  -15.5581  -46.0708 H         1 UNK         0.0600 
    177 H177        6.9558  -15.7952  -47.3976 H         1 UNK         0.0600 
    178 H178        7.2953  -14.1706  -46.7987 H         1 UNK         0.0600 
    179 H179        4.8406  -14.5011  -47.0507 H         1 UNK         0.3000 
    180 H180        2.8144  -13.3408  -46.9507 H         1 UNK         0.0600 
    181 H181        1.4063  -16.0401  -46.5189 H         1 UNK         0.0600 
    182 H182        2.4730  -15.6323  -47.8518 H         1 UNK         0.0600 
    183 H183        0.9203  -14.8290  -47.7041 H         1 UNK         0.0600 
    184 H184        0.5027  -13.9570  -45.4086 H         1 UNK         0.3000 
    185 H185        0.3229  -12.6772  -42.9792 H         1 UNK         0.0600 
    186 H186        1.4309  -10.5060  -42.5870 H         1 UNK         0.0600 
    187 H187        0.6379   -9.8050  -43.9922 H         1 UNK         0.0600 
    188 H188       -0.3119  -10.2967  -42.5908 H         1 UNK         0.0600 
    189 H189       -1.6484  -12.5704  -44.0097 H         1 UNK         0.3000 
    190 H190       -2.5394  -20.5068  -44.7984 H         1 UNK         0.3000 
    191 H191       -5.0827  -21.2556  -45.6608 H         1 UNK         0.0600 
    192 H192       -4.6424  -19.7021  -43.7763 H         1 UNK         0.0600 
    193 H193       -5.7143  -20.9966  -43.2627 H         1 UNK         0.0600 
    194 H194       -4.0188  -21.0264  -42.7956 H         1 UNK         0.0600 
    195 H195       -2.7177  -23.1942  -43.8140 H         1 UNK         0.3000 
    196 H196       -4.2821  -25.5107  -43.4008 H         1 UNK         0.0600 
    197 H197       -2.0704  -26.6063  -43.0412 H         1 UNK         0.0600 
    198 H198       -2.1276  -25.0407  -42.2454 H         1 UNK         0.0600 
    199 H199       -1.2513  -25.2275  -43.7641 H         1 UNK         0.0600 
    200 H200       -2.7548  -24.3538  -46.3408 H         1 UNK         0.3000 
    201 H201       -3.1987  -26.9262  -47.7782 H         1 UNK         0.0600 
    202 H202       -1.6747  -25.9754  -49.4485 H         1 UNK         0.0600 
    203 H203       -0.9077  -25.8700  -47.8734 H         1 UNK         0.0600 
    204 H204       -1.6195  -24.4320  -48.6017 H         1 UNK         0.0600 
    205 H205       -5.0130  -24.3578  -46.9727 H         1 UNK         0.3000 
    206 H206       -6.7424  -23.2351  -47.6965 H         1 UNK         0.0600 
    207 H207       -7.7733  -25.3787  -48.1453 H         1 UNK         0.0600 
    208 H208       -8.2672  -24.2686  -49.4092 H         1 UNK         0.0600 
    209 H209       -7.0434  -25.4892  -49.7369 H         1 UNK         0.0600 
    210 H210       -4.2559  -22.3344  -48.5266 H         1 UNK         0.3000 
    211 H211       -3.2870  -20.7011  -49.6328 H         1 UNK         0.0600 
    212 H212       -5.0960  -19.4067  -48.6196 H         1 UNK         0.0600 
    213 H213       -4.7497  -18.7341  -50.1999 H         1 UNK         0.0600 
    214 H214       -6.1796  -19.7381  -49.9645 H         1 UNK         0.0600 
    215 H215       -5.7688  -20.0359  -51.9520 H         1 UNK         0.3000 
    216 H216       -4.0343  -20.2806  -54.1612 H         1 UNK         0.0600 
    217 H217       -7.0937  -20.1088  -54.0664 H         1 UNK         0.0600 
    218 H218       -6.1016  -19.8230  -55.4928 H         1 UNK         0.0600 
    219 H219       -5.9777  -18.7421  -54.1164 H         1 UNK         0.0600 
    220 H220       -6.0552  -22.6930  -52.6431 H         1 UNK         0.3000 
    221 H221       -6.2866  -24.5652  -54.7808 H         1 UNK         0.0600 
    222 H222       -6.2355  -25.0336  -51.7648 H         1 UNK         0.0600 
    223 H223       -7.6743  -24.5910  -52.6852 H         1 UNK         0.0600 
    224 H224       -6.8871  -26.1395  -52.9656 H         1 UNK         0.0600 
    225 H225       -3.5158  -23.6542  -52.8943 H         1 UNK         0.3000 
    226 H226       -1.9674  -26.0852  -53.3470 H         1 UNK         0.0600 
    227 H227       -1.6661  -24.5146  -51.3634 H         1 UNK         0.0600 
    228 H228       -0.1861  -24.8272  -52.2582 H         1 UNK         0.0600 
    229 H229       -1.0346  -23.3029  -52.4750 H         1 UNK         0.0600 
    230 H230       -3.1302  -23.9935  -55.5290 H         1 UNK         0.3000 
    231 H231       -2.7429  -23.4039  -57.6122 H         1 UNK         0.0600 
    232 H232       -0.1178  -24.9869  -57.6025 H         1 UNK         0.0600 
    233 H233       -0.9735  -24.3687  -59.0039 H         1 UNK         0.0600 
    234 H234       -1.6979  -25.6405  -58.0325 H         1 UNK         0.0600 
    235 H235       -2.5822  -21.5355  -55.9831 H         1 UNK         0.3000 
    236 H236       -0.2035  -19.8630  -56.6094 H         1 UNK         0.0600 
    237 H237       -1.5697  -20.1874  -53.8707 H         1 UNK         0.0600 
    238 H238        0.0608  -20.7145  -54.2717 H         1 UNK         0.0600 
    239 H239       -0.3242  -19.0006  -54.2530 H         1 UNK         0.0600 
    240 H240       -0.7013  -17.5722  -56.4317 H         1 UNK         0.3000 
    241 H241       -1.8074  -15.7352  -56.8840 H         1 UNK         0.0600 
    242 H242       -3.2658  -17.3826  -60.0492 H         1 UNK         0.3800 
    243 H243       -2.0581  -18.0374  -58.9749 H         1 UNK         0.3800 
    244 H244       -4.2380  -16.9792  -55.5091 H         1 UNK         0.0800 
    245 H245       -4.0493  -15.2898  -55.8829 H         1 UNK         0.0800 
    246 H246       -3.0871  -18.1554  -53.4596 H         1 UNK         0.0800 
    247 H247       -4.3726  -17.0851  -52.9485 H         1 UNK         0.0800 
@<TRIPOS>BOND
     1    1    2 1    
     2    1  127 1    
     3    1  128 1    
     4    1  129 1    
     5    2    3 2    
     6    2    4 am   BACKBONE|DICT|INTERRES
     7    4    5 1    
     8    4  130 1    
     9    5    6 1    
    10    5   65 1    
    11    5  131 1    
    12    6    7 1    
    13    6  132 1    
    14    6  133 1    
    15    7    8 1    
    16    8    9 1    
    17    8  134 1    
    18    8  135 1    
    19    9   10 ar   
    20    9   14 ar   
    21   10   11 ar   
    22   10  136 1    
    23   11   12 ar   
    24   11  126 1    
    25   12   13 ar   
    26   12  137 1    
    27   13   14 ar   
    28   13   15 1    
    29   14  138 1    
    30   15   16 1    
    31   15  139 1    
    32   15  140 1    
    33   16   17 1    
    34   17   18 1    
    35   17  141 1    
    36   17  142 1    
    37   18   19 1    
    38   18   67 1    
    39   18  143 1    
    40   19   20 am   BACKBONE|DICT|INTERRES
    41   19  144 1    
    42   20   21 2    
    43   20   22 1    
    44   22   23 1    
    45   22   24 1    
    46   22  145 1    
    47   23  146 1    
    48   23  147 1    
    49   23  148 1    
    50   24   25 am   BACKBONE|DICT|INTERRES
    51   24  149 1    
    52   25   26 2    
    53   25   27 1    
    54   27   28 1    
    55   27   29 1    
    56   27  150 1    
    57   28  151 1    
    58   28  152 1    
    59   28  153 1    
    60   29   30 am   BACKBONE|DICT|INTERRES
    61   29  154 1    
    62   30   31 2    
    63   30   32 1    
    64   32   33 1    
    65   32   34 1    
    66   32  155 1    
    67   33  156 1    
    68   33  157 1    
    69   33  158 1    
    70   34   35 am   BACKBONE|DICT|INTERRES
    71   34  159 1    
    72   35   36 2    
    73   35   37 1    
    74   37   38 1    
    75   37   39 1    
    76   37  160 1    
    77   38  161 1    
    78   38  162 1    
    79   38  163 1    
    80   39   40 am   BACKBONE|DICT|INTERRES
    81   39  164 1    
    82   40   41 2    
    83   40   42 1    
    84   42   43 1    
    85   42   44 1    
    86   42  165 1    
    87   43  166 1    
    88   43  167 1    
    89   43  168 1    
    90   44   45 am   BACKBONE|DICT|INTERRES
    91   44  169 1    
    92   45   46 2    
    93   45   47 1    
    94   47   48 1    
    95   47   49 1    
    96   47  170 1    
    97   48  171 1    
    98   48  172 1    
    99   48  173 1    
   100   49   50 am   BACKBONE|DICT|INTERRES
   101   49  174 1    
   102   50   51 2    
   103   50   52 1    
   104   52   53 1    
   105   52   54 1    
   106   52  175 1    
   107   53  176 1    
   108   53  177 1    
   109   53  178 1    
   110   54   55 am   BACKBONE|DICT|INTERRES
   111   54  179 1    
   112   55   56 2    
   113   55   57 1    
   114   57   58 1    
   115   57   59 1    
   116   57  180 1    
   117   58  181 1    
   118   58  182 1    
   119   58  183 1    
   120   59   60 am   BACKBONE|DICT|INTERRES
   121   59  184 1    
   122   60   61 2    
   123   60   62 1    
   124   62   63 1    
   125   62   64 1    
   126   62  185 1    
   127   63  186 1    
   128   63  187 1    
   129   63  188 1    
   130   64   65 am   BACKBONE|DICT|INTERRES
   131   64  189 1    
   132   65   66 2    
   133   67   68 2    
   134   67   69 am   BACKBONE|DICT|INTERRES
   135   69   70 1    
   136   69  190 1    
   137   70   71 1    
   138   70   72 1    
   139   70  191 1    
   140   71  192 1    
   141   71  193 1    
   142   71  194 1    
   143   72   73 2    
   144   72   74 am   BACKBONE|DICT|INTERRES
   145   74   75 1    
   146   74  195 1    
   147   75   76 1    
   148   75   77 1    
   149   75  196 1    
   150   76  197 1    
   151   76  198 1    
   152   76  199 1    
   153   77   78 2    
   154   77   79 am   BACKBONE|DICT|INTERRES
   155   79   80 1    
   156   79  200 1    
   157   80   81 1    
   158   80   82 1    
   159   80  201 1    
   160   81  202 1    
   161   81  203 1    
   162   81  204 1    
   163   82   83 2    
   164   82   84 am   BACKBONE|DICT|INTERRES
   165   84   85 1    
   166   84  205 1    
   167   85   86 1    
   168   85   87 1    
   169   85  206 1    
   170   86  207 1    
   171   86  208 1    
   172   86  209 1    
   173   87   88 2    
   174   87   89 am   BACKBONE|DICT|INTERRES
   175   89   90 1    
   176   89  210 1    
   177   90   91 1    
   178   90   92 1    
   179   90  211 1    
   180   91  212 1    
   181   91  213 1    
   182   91  214 1    
   183   92   93 2    
   184   92   94 am   BACKBONE|DICT|INTERRES
   185   94   95 1    
   186   94  215 1    
   187   95   96 1    
   188   95   97 1    
   189   95  216 1    
   190   96  217 1    
   191   96  218 1    
   192   96  219 1    
   193   97   98 2    
   194   97   99 am   BACKBONE|DICT|INTERRES
   195   99  100 1    
   196   99  220 1    
   197  100  101 1    
   198  100  102 1    
   199  100  221 1    
   200  101  222 1    
   201  101  223 1    
   202  101  224 1    
   203  102  103 2    
   204  102  104 am   BACKBONE|DICT|INTERRES
   205  104  105 1    
   206  104  225 1    
   207  105  106 1    
   208  105  107 1    
   209  105  226 1    
   210  106  227 1    
   211  106  228 1    
   212  106  229 1    
   213  107  108 2    
   214  107  109 am   BACKBONE|DICT|INTERRES
   215  109  110 1    
   216  109  230 1    
   217  110  111 1    
   218  110  112 1    
   219  110  231 1    
   220  111  232 1    
   221  111  233 1    
   222  111  234 1    
   223  112  113 2    
   224  112  114 am   BACKBONE|DICT|INTERRES
   225  114  115 1    
   226  114  235 1    
   227  115  116 1    
   228  115  117 1    
   229  115  236 1    
   230  116  237 1    
   231  116  238 1    
   232  116  239 1    
   233  117  118 2    
   234  117  119 am   BACKBONE|DICT|INTERRES
   235  119  120 1    
   236  119  240 1    
   237  120  121 1    
   238  120  124 1    
   239  120  241 1    
   240  121  122 am   BACKBONE|DICT|INTERRES
   241  121  123 2    
   242  122  242 1    
   243  122  243 1    
   244  124  125 1    
   245  124  244 1    
   246  124  245 1    
   247  125  126 1    
   248  126  246 1    
   249  126  247 1    
@<TRIPOS>SUBSTRUCTURE
     1 UNK         1 GROUP             0       ****    0 ROOT    
