@<TRIPOS>MOLECULE
3R540
247   249    1
SMALL
USER_CHARGES


@<TRIPOS>ATOM
      1 CA         -2.2004  -18.2453  -48.5060 C.3       0 UNK        -0.1800 
      2 C          -1.9340  -16.7931  -48.8702 C.2       0 UNK         0.5000 
      3 O          -2.6428  -16.2289  -49.7033 O.2       0 UNK        -0.5000 
      4 N          -0.9100  -16.1916  -48.2534 N.am      1 UNK        -0.5000 
      5 CA         -0.5145  -14.7954  -48.4563 C.3       1 UNK         0.1400 
      6 C6          0.8340  -14.4705  -47.7540 C.3       23 UNK        -0.0398 
      7 S7          1.8562  -13.3647  -48.7876 S.3       23 UNK        -0.2404 
      8 C8          3.2215  -14.4469  -49.3290 C.3       23 UNK        -0.0205 
      9 C9          2.7486  -15.8049  -49.8308 C.ar      23 UNK        -0.0193 
     10 C10         2.0758  -15.9230  -51.0508 C.ar      23 UNK        -0.1150 
     11 C11         1.6364  -17.1735  -51.4985 C.ar      23 UNK        -0.0193 
     12 C12         1.8869  -18.3088  -50.7240 C.ar      23 UNK        -0.1150 
     13 C13         2.5405  -18.1997  -49.4933 C.ar      23 UNK        -0.0193 
     14 C14         2.9773  -16.9470  -49.0583 C.ar      23 UNK        -0.1150 
     15 C15         2.7627  -19.4246  -48.6204 C.3       23 UNK        -0.0205 
     16 S16         1.2187  -19.9413  -47.8072 S.3       23 UNK        -0.2404 
     17 C17         0.4594  -20.9742  -49.1100 C.3       23 UNK        -0.0398 
     18 CA         -0.3306  -22.1899  -48.5726 C.3       11 UNK         0.1400 
     19 N           0.4322  -22.9725  -47.5986 N.am      11 UNK        -0.5000 
     20 C           0.0509  -24.1461  -47.0797 C.2       10 UNK         0.5000 
     21 O          -0.9766  -24.7384  -47.4119 O.2       10 UNK        -0.5000 
     22 CA          0.9316  -24.7239  -45.9563 C.3       10 UNK         0.1400 
     23 CB          1.9582  -25.7062  -46.5371 C.3       10 UNK        -0.1800 
     24 N           1.6283  -23.7104  -45.1522 N.am      10 UNK        -0.5000 
     25 C           1.0346  -22.7286  -44.4590 C.2       9 UNK         0.5000 
     26 O          -0.1804  -22.5157  -44.4802 O.2       9 UNK        -0.5000 
     27 CA          1.9535  -21.8035  -43.6479 C.3       9 UNK         0.1400 
     28 CB          2.3377  -20.5665  -44.4693 C.3       9 UNK        -0.1800 
     29 N           1.2796  -21.3669  -42.4295 N.am      9 UNK        -0.5000 
     30 C           1.2497  -22.0683  -41.2892 C.2       8 UNK         0.5000 
     31 O           1.8251  -23.1493  -41.1488 O.2       8 UNK        -0.5000 
     32 CA          0.4368  -21.4799  -40.1132 C.3       8 UNK         0.1400 
     33 CB          1.0610  -21.8075  -38.7403 C.3       8 UNK        -0.1800 
     34 N           0.1605  -20.0423  -40.2284 N.am      8 UNK        -0.5000 
     35 C           1.0454  -19.0346  -40.2592 C.2       7 UNK         0.5000 
     36 O           2.2667  -19.1730  -40.1678 O.2       7 UNK        -0.5000 
     37 CA          0.4450  -17.6292  -40.4561 C.3       7 UNK         0.1400 
     38 CB          1.0173  -16.6311  -39.4369 C.3       7 UNK        -0.1800 
     39 N           0.6350  -17.1070  -41.8128 N.am      7 UNK        -0.5000 
     40 C           0.2075  -17.6940  -42.9432 C.2       6 UNK         0.5000 
     41 O          -0.3292  -18.8018  -42.9740 O.2       6 UNK        -0.5000 
     42 CA          0.3491  -16.9087  -44.2634 C.3       6 UNK         0.1400 
     43 CB         -1.0082  -16.2991  -44.6394 C.3       6 UNK        -0.1800 
     44 N           1.3357  -15.8308  -44.2160 N.am      6 UNK        -0.5000 
     45 C           2.6645  -16.0069  -44.1891 C.2       5 UNK         0.5000 
     46 O           3.2055  -17.1084  -44.2772 O.2       5 UNK        -0.5000 
     47 CA          3.5437  -14.7470  -44.0262 C.3       5 UNK         0.1400 
     48 CB          4.1492  -14.3438  -45.3798 C.3       5 UNK        -0.1800 
     49 N           2.8444  -13.5863  -43.4657 N.am      5 UNK        -0.5000 
     50 C           2.2283  -13.5350  -42.2759 C.2       4 UNK         0.5000 
     51 O           2.2398  -14.4629  -41.4684 O.2       4 UNK        -0.5000 
     52 CA          1.4189  -12.2621  -41.9489 C.3       4 UNK         0.1400 
     53 CB          2.1757  -11.3954  -40.9310 C.3       4 UNK        -0.1800 
     54 N           1.0667  -11.4331  -43.1093 N.am      4 UNK        -0.5000 
     55 C           0.3386  -11.8226  -44.1647 C.2       3 UNK         0.5000 
     56 O          -0.0941  -12.9697  -44.3159 O.2       3 UNK        -0.5000 
     57 CA          0.1067  -10.7624  -45.2521 C.3       3 UNK         0.1400 
     58 CB          1.4308  -10.4145  -45.9630 C.3       3 UNK        -0.1800 
     59 N          -0.8514  -11.2874  -46.2166 N.am      3 UNK        -0.5000 
     60 C          -1.5053  -10.5980  -47.1582 C.2       2 UNK         0.5000 
     61 O          -1.4311   -9.3734  -47.2747 O.2       2 UNK        -0.5000 
     62 CA         -2.3437  -11.4280  -48.1567 C.3       2 UNK         0.1400 
     63 CB         -2.7711  -10.6167  -49.3934 C.3       2 UNK        -0.1800 
     64 N          -1.5861  -12.5999  -48.6024 N.am      2 UNK        -0.5000 
     65 C          -1.6019  -13.7957  -48.0033 C.2       1 UNK         0.5000 
     66 O          -2.3590  -14.0766  -47.0717 O.2       1 UNK        -0.5000 
     67 C          -1.7290  -21.7759  -48.0653 C.2       11 UNK         0.5000 
     68 O          -2.6591  -21.7017  -48.8676 O.2       11 UNK        -0.5000 
     69 N          -1.8597  -21.5394  -46.7546 N.am      12 UNK        -0.5000 
     70 CA         -3.1236  -21.2238  -46.0976 C.3       12 UNK         0.1400 
     71 CB         -2.8834  -20.1216  -45.0549 C.3       12 UNK        -0.1800 
     72 C          -3.7230  -22.4722  -45.4325 C.2       12 UNK         0.5000 
     73 O          -4.9281  -22.6956  -45.5399 O.2       12 UNK        -0.5000 
     74 N          -2.8787  -23.2560  -44.7492 N.am      13 UNK        -0.5000 
     75 CA         -3.2910  -24.3808  -43.9112 C.3       13 UNK         0.1400 
     76 CB         -2.1389  -24.7496  -42.9635 C.3       13 UNK        -0.1800 
     77 C          -3.7645  -25.6185  -44.6944 C.2       13 UNK         0.5000 
     78 O          -4.6402  -26.3297  -44.1993 O.2       13 UNK        -0.5000 
     79 N          -3.1811  -25.8683  -45.8746 N.am      14 UNK        -0.5000 
     80 CA         -3.4634  -27.0470  -46.6961 C.3       14 UNK         0.1400 
     81 CB         -2.1940  -27.9077  -46.8147 C.3       14 UNK        -0.1800 
     82 C          -3.9938  -26.6555  -48.0821 C.2       14 UNK         0.5000 
     83 O          -5.0096  -27.2017  -48.5140 O.2       14 UNK        -0.5000 
     84 N          -3.3097  -25.7217  -48.7583 N.am      15 UNK        -0.5000 
     85 CA         -3.6429  -25.2964  -50.1230 C.3       15 UNK         0.1400 
     86 CB         -2.3895  -24.7053  -50.7821 C.3       15 UNK        -0.1800 
     87 C          -4.8183  -24.2986  -50.1867 C.2       15 UNK         0.5000 
     88 O          -5.3667  -24.0844  -51.2702 O.2       15 UNK        -0.5000 
     89 N          -5.1749  -23.7094  -49.0342 N.am      16 UNK        -0.5000 
     90 CA         -6.3113  -22.8104  -48.8037 C.3       16 UNK         0.1400 
     91 CB         -7.6283  -23.6121  -48.8534 C.3       16 UNK        -0.1800 
     92 C          -6.3305  -21.5761  -49.7296 C.2       16 UNK         0.5000 
     93 O          -7.4008  -21.1679  -50.1844 O.2       16 UNK        -0.5000 
     94 N          -5.1416  -21.0292  -50.0255 N.am      17 UNK        -0.5000 
     95 CA         -4.8338  -19.9053  -50.9210 C.3       17 UNK         0.1400 
     96 CB         -5.5384  -18.6188  -50.4559 C.3       17 UNK        -0.1800 
     97 C          -5.0980  -20.1773  -52.4176 C.2       17 UNK         0.5000 
     98 O          -4.3072  -19.7485  -53.2594 O.2       17 UNK        -0.5000 
     99 N          -6.1822  -20.8980  -52.7257 N.am      18 UNK        -0.5000 
    100 CA        -6.6331  -21.2565  -54.0669 C.3       18 UNK         0.1400 
    101 CB        -8.0006  -21.9503  -53.9730 C.3       18 UNK        -0.1800 
    102 C         -5.6229  -22.1314  -54.8253 C.2       18 UNK         0.5000 
    103 O         -5.2339  -21.7759  -55.9382 O.2       18 UNK        -0.5000 
    104 N         -5.1776  -23.2333  -54.2028 N.am      19 UNK        -0.5000 
    105 CA        -4.1957  -24.1480  -54.7966 C.3       19 UNK         0.1400 
    106 CB        -4.3381  -25.5463  -54.1768 C.3       19 UNK        -0.1800 
    107 C         -2.7503  -23.6182  -54.7051 C.2       19 UNK         0.5000 
    108 O         -1.8823  -24.1075  -55.4282 O.2       19 UNK        -0.5000 
    109 N         -2.5233  -22.6029  -53.8580 N.am      20 UNK        -0.5000 
    110 CA        -1.2834  -21.8230  -53.8073 C.3       20 UNK         0.1400 
    111 CB        -1.1536  -21.1669  -52.4236 C.3       20 UNK        -0.1800 
    112 C         -1.2065  -20.7592  -54.9243 C.2       20 UNK         0.5000 
    113 O         -0.1362  -20.1860  -55.1293 O.2       20 UNK        -0.5000 
    114 N         -2.3304  -20.5247  -55.6218 N.am      21 UNK        -0.5000 
    115 CA        -2.5355  -19.5563  -56.7005 C.3       21 UNK         0.1400 
    116 CB        -1.6762  -19.9098  -57.9330 C.3       21 UNK        -0.1800 
    117 C         -2.3657  -18.0975  -56.2307 C.2       21 UNK         0.5000 
    118 O         -1.7771  -17.2810  -56.9431 O.2       21 UNK        -0.5000 
    119 N         -2.8956  -17.7925  -55.0420 N.am      22 UNK        -0.5000 
    120 CA        -2.8665  -16.4607  -54.4303 C.3       22 UNK         0.1400 
    121 C         -4.1363  -16.2144  -53.5712 C.2       22 UNK         0.5000 
    122 N         -4.0251  -15.7539  -52.3333 N.am      22 UNK        -0.7600 
    123 O         -5.2536  -16.3821  -54.0550 O.2       22 UNK        -0.5000 
    124 C124       -1.4978  -16.1105  -53.7796 C.3       23 UNK        -0.0398 
    125 S125       -0.9205  -17.3042  -52.5222 S.3       23 UNK        -0.2404 
    126 C126        0.8788  -17.3013  -52.8098 C.3       23 UNK        -0.0205 
    127 H127       -3.2178  -18.3646  -48.1348 H         1 UNK         0.0600 
    128 H128       -2.0794  -18.8745  -49.3867 H         1 UNK         0.0600 
    129 H129       -1.5159  -18.6009  -47.7364 H         1 UNK         0.0600 
    130 H130       -0.3661  -16.7139  -47.5844 H         1 UNK         0.3000 
    131 H131       -0.3938  -14.6858  -49.5369 H         1 UNK         0.0600 
    132 H132        1.3935  -15.3781  -47.5333 H         1 UNK         0.0800 
    133 H133        0.6911  -14.0023  -46.7783 H         1 UNK         0.0800 
    134 H134        3.9228  -14.5679  -48.5022 H         1 UNK         0.0800 
    135 H135        3.7758  -13.9440  -50.1224 H         1 UNK         0.0800 
    136 H136        1.8828  -15.0394  -51.6427 H         1 UNK         0.1150 
    137 H137        1.5497  -19.2731  -51.0732 H         1 UNK         0.1150 
    138 H138        3.4832  -16.8583  -48.1069 H         1 UNK         0.1150 
    139 H139        3.1838  -20.2388  -49.2114 H         1 UNK         0.0800 
    140 H140        3.4990  -19.2059  -47.8454 H         1 UNK         0.0800 
    141 H141       -0.1703  -20.3413  -49.7372 H         1 UNK         0.0800 
    142 H142        1.2456  -21.3451  -49.7681 H         1 UNK         0.0800 
    143 H143       -0.4911  -22.8528  -49.4212 H         1 UNK         0.0600 
    144 H144        1.2760  -22.5421  -47.2493 H         1 UNK         0.3000 
    145 H145        0.2737  -25.2806  -45.2874 H         1 UNK         0.0600 
    146 H146        2.5211  -26.2028  -45.7464 H         1 UNK         0.0600 
    147 H147        1.4664  -26.4856  -47.1211 H         1 UNK         0.0600 
    148 H148        2.6702  -25.2038  -47.1931 H         1 UNK         0.0600 
    149 H149        2.6322  -23.8053  -45.0945 H         1 UNK         0.3000 
    150 H150        2.8670  -22.3417  -43.3861 H         1 UNK         0.0600 
    151 H151        2.8954  -20.8461  -45.3636 H         1 UNK         0.0600 
    152 H152        2.9685  -19.8902  -43.8920 H         1 UNK         0.0600 
    153 H153        1.4576  -20.0081  -44.7890 H         1 UNK         0.0600 
    154 H154        0.7263  -20.5193  -42.4992 H         1 UNK         0.3000 
    155 H155       -0.5353  -21.9732  -40.1546 H         1 UNK         0.0600 
    156 H156        0.4638  -21.3956  -37.9268 H         1 UNK         0.0600 
    157 H157        2.0721  -21.4098  -38.6497 H         1 UNK         0.0600 
    158 H158        1.1196  -22.8850  -38.5826 H         1 UNK         0.0600 
    159 H159       -0.8128  -19.8096  -40.3705 H         1 UNK         0.3000 
    160 H160       -0.6315  -17.6875  -40.2829 H         1 UNK         0.0600 
    161 H161        2.0875  -16.4778  -39.5811 H         1 UNK         0.0600 
    162 H162        0.8713  -16.9874  -38.4165 H         1 UNK         0.0600 
    163 H163        0.5267  -15.6607  -39.5157 H         1 UNK         0.0600 
    164 H164        1.1105  -16.2145  -41.8792 H         1 UNK         0.3000 
    165 H165        0.6426  -17.6134  -45.0443 H         1 UNK         0.0600 
    166 H166       -1.3733  -15.6235  -43.8646 H         1 UNK         0.0600 
    167 H167       -0.9416  -15.7287  -45.5621 H         1 UNK         0.0600 
    168 H168       -1.7636  -17.0712  -44.7847 H         1 UNK         0.0600 
    169 H169        0.9690  -14.8887  -44.1432 H         1 UNK         0.3000 
    170 H170        4.3569  -15.0058  -43.3452 H         1 UNK         0.0600 
    171 H171        4.6806  -15.1788  -45.8387 H         1 UNK         0.0600 
    172 H172        3.3797  -14.0190  -46.0805 H         1 UNK         0.0600 
    173 H173        4.8642  -13.5290  -45.2660 H         1 UNK         0.0600 
    174 H174        2.7789  -12.7739  -44.0600 H         1 UNK         0.3000 
    175 H175        0.4850  -12.5913  -41.4889 H         1 UNK         0.0600 
    176 H176        3.1076  -11.0097  -41.3463 H         1 UNK         0.0600 
    177 H177        1.5728  -10.5459  -40.6093 H         1 UNK         0.0600 
    178 H178        2.4270  -11.9689  -40.0376 H         1 UNK         0.0600 
    179 H179        1.3943  -10.4781  -43.0790 H         1 UNK         0.3000 
    180 H180       -0.3116   -9.8702  -44.7820 H         1 UNK         0.0600 
    181 H181        1.8760  -11.2929  -46.4319 H         1 UNK         0.0600 
    182 H182        2.1633  -10.0077  -45.2653 H         1 UNK         0.0600 
    183 H183        1.2836   -9.6636  -46.7392 H         1 UNK         0.0600 
    184 H184       -1.0206  -12.2824  -46.1219 H         1 UNK         0.3000 
    185 H185       -3.2503  -11.7429  -47.6361 H         1 UNK         0.0600 
    186 H186       -1.9095  -10.2370  -49.9441 H         1 UNK         0.0600 
    187 H187       -3.3639  -11.2250  -50.0768 H         1 UNK         0.0600 
    188 H188       -3.3845   -9.7609  -49.1087 H         1 UNK         0.0600 
    189 H189       -0.8944  -12.4278  -49.3188 H         1 UNK         0.3000 
    190 H190       -1.0567  -21.6655  -46.1493 H         1 UNK         0.3000 
    191 H191       -3.8474  -20.8458  -46.8231 H         1 UNK         0.0600 
    192 H192       -3.8096  -19.8555  -44.5444 H         1 UNK         0.0600 
    193 H193       -2.4989  -19.2172  -45.5243 H         1 UNK         0.0600 
    194 H194       -2.1651  -20.4318  -44.2947 H         1 UNK         0.0600 
    195 H195       -1.8987  -22.9863  -44.6884 H         1 UNK         0.3000 
    196 H196       -4.1299  -24.0465  -43.2968 H         1 UNK         0.0600 
    197 H197       -2.4326  -25.5500  -42.2833 H         1 UNK         0.0600 
    198 H198       -1.8412  -23.8967  -42.3529 H         1 UNK         0.0600 
    199 H199       -1.2602  -25.0902  -43.5103 H         1 UNK         0.0600 
    200 H200       -2.4722  -25.2335  -46.2256 H         1 UNK         0.3000 
    201 H201       -4.2322  -27.6666  -46.2300 H         1 UNK         0.0600 
    202 H202       -1.8531  -28.2393  -45.8338 H         1 UNK         0.0600 
    203 H203       -1.3735  -27.3670  -47.2866 H         1 UNK         0.0600 
    204 H204       -2.3833  -28.8006  -47.4117 H         1 UNK         0.0600 
    205 H205       -2.4644  -25.3329  -48.3469 H         1 UNK         0.3000 
    206 H206       -3.9318  -26.1816  -50.6935 H         1 UNK         0.0600 
    207 H207       -1.4981  -25.2940  -50.5646 H         1 UNK         0.0600 
    208 H208       -2.4936  -24.6669  -51.8642 H         1 UNK         0.0600 
    209 H209       -2.2176  -23.6872  -50.4489 H         1 UNK         0.0600 
    210 H210       -4.6287  -23.9371  -48.2165 H         1 UNK         0.3000 
    211 H211       -6.2021  -22.4201  -47.7927 H         1 UNK         0.0600 
    212 H212       -7.8288  -23.9951  -49.8547 H         1 UNK         0.0600 
    213 H213       -8.4776  -22.9933  -48.5615 H         1 UNK         0.0600 
    214 H214       -7.5978  -24.4608  -48.1700 H         1 UNK         0.0600 
    215 H215       -4.3165  -21.4538  -49.6039 H         1 UNK         0.3000 
    216 H216       -3.7606  -19.7417  -50.8230 H         1 UNK         0.0600 
    217 H217       -6.6204  -18.6757  -50.5754 H         1 UNK         0.0600 
    218 H218       -5.1957  -17.7641  -51.0351 H         1 UNK         0.0600 
    219 H219       -5.3256  -18.4058  -49.4088 H         1 UNK         0.0600 
    220 H220       -6.7758  -21.1813  -51.9511 H         1 UNK         0.3000 
    221 H221       -6.7589  -20.3299  -54.6308 H         1 UNK         0.0600 
    222 H222       -7.9531  -22.8567  -53.3677 H         1 UNK         0.0600 
    223 H223       -8.7456  -21.2909  -53.5271 H         1 UNK         0.0600 
    224 H224       -8.3659  -22.2319  -54.9615 H         1 UNK         0.0600 
    225 H225       -5.4979  -23.4498  -53.2635 H         1 UNK         0.3000 
    226 H226       -4.4206  -24.2495  -55.8607 H         1 UNK         0.0600 
    227 H227       -5.3332  -25.9532  -54.3570 H         1 UNK         0.0600 
    228 H228       -3.6201  -26.2426  -54.6119 H         1 UNK         0.0600 
    229 H229       -4.1755  -25.5390  -53.1023 H         1 UNK         0.0600 
    230 H230       -3.2987  -22.2560  -53.3127 H         1 UNK         0.3000 
    231 H231       -0.4362  -22.4992  -53.9392 H         1 UNK         0.0600 
    232 H232       -1.9356  -20.4293  -52.2487 H         1 UNK         0.0600 
    233 H233       -1.2032  -21.9073  -51.6274 H         1 UNK         0.0600 
    234 H234       -0.1981  -20.6498  -52.3293 H         1 UNK         0.0600 
    235 H235       -3.1610  -21.0366  -55.3551 H         1 UNK         0.3000 
    236 H236       -3.5811  -19.6548  -56.9955 H         1 UNK         0.0600 
    237 H237       -1.8339  -20.9441  -58.2391 H         1 UNK         0.0600 
    238 H238       -1.9356  -19.2777  -58.7829 H         1 UNK         0.0600 
    239 H239       -0.6117  -19.7749  -57.7398 H         1 UNK         0.0600 
    240 H240       -3.3776  -18.5078  -54.5030 H         1 UNK         0.3000 
    241 H241       -2.9941  -15.7407  -55.2411 H         1 UNK         0.0600 
    242 H242       -3.1367  -15.7246  -51.8500 H         1 UNK         0.3800 
    243 H243       -4.8648  -15.5689  -51.8099 H         1 UNK         0.3800 
    244 H244       -1.5224  -15.1144  -53.3352 H         1 UNK         0.0800 
    245 H245       -0.7535  -16.0519  -54.5742 H         1 UNK         0.0800 
    246 H246        1.1673  -16.4868  -53.4750 H         1 UNK         0.0800 
    247 H247        1.1579  -18.2247  -53.3199 H         1 UNK         0.0800 
@<TRIPOS>BOND
     1    1    2 1    
     2    1  127 1    
     3    1  128 1    
     4    1  129 1    
     5    2    3 2    
     6    2    4 am   BACKBONE|DICT|INTERRES
     7    4    5 1    
     8    4  130 1    
     9    5    6 1    
    10    5   65 1    
    11    5  131 1    
    12    6    7 1    
    13    6  132 1    
    14    6  133 1    
    15    7    8 1    
    16    8    9 1    
    17    8  134 1    
    18    8  135 1    
    19    9   10 ar   
    20    9   14 ar   
    21   10   11 ar   
    22   10  136 1    
    23   11   12 ar   
    24   11  126 1    
    25   12   13 ar   
    26   12  137 1    
    27   13   14 ar   
    28   13   15 1    
    29   14  138 1    
    30   15   16 1    
    31   15  139 1    
    32   15  140 1    
    33   16   17 1    
    34   17   18 1    
    35   17  141 1    
    36   17  142 1    
    37   18   19 1    
    38   18   67 1    
    39   18  143 1    
    40   19   20 am   BACKBONE|DICT|INTERRES
    41   19  144 1    
    42   20   21 2    
    43   20   22 1    
    44   22   23 1    
    45   22   24 1    
    46   22  145 1    
    47   23  146 1    
    48   23  147 1    
    49   23  148 1    
    50   24   25 am   BACKBONE|DICT|INTERRES
    51   24  149 1    
    52   25   26 2    
    53   25   27 1    
    54   27   28 1    
    55   27   29 1    
    56   27  150 1    
    57   28  151 1    
    58   28  152 1    
    59   28  153 1    
    60   29   30 am   BACKBONE|DICT|INTERRES
    61   29  154 1    
    62   30   31 2    
    63   30   32 1    
    64   32   33 1    
    65   32   34 1    
    66   32  155 1    
    67   33  156 1    
    68   33  157 1    
    69   33  158 1    
    70   34   35 am   BACKBONE|DICT|INTERRES
    71   34  159 1    
    72   35   36 2    
    73   35   37 1    
    74   37   38 1    
    75   37   39 1    
    76   37  160 1    
    77   38  161 1    
    78   38  162 1    
    79   38  163 1    
    80   39   40 am   BACKBONE|DICT|INTERRES
    81   39  164 1    
    82   40   41 2    
    83   40   42 1    
    84   42   43 1    
    85   42   44 1    
    86   42  165 1    
    87   43  166 1    
    88   43  167 1    
    89   43  168 1    
    90   44   45 am   BACKBONE|DICT|INTERRES
    91   44  169 1    
    92   45   46 2    
    93   45   47 1    
    94   47   48 1    
    95   47   49 1    
    96   47  170 1    
    97   48  171 1    
    98   48  172 1    
    99   48  173 1    
   100   49   50 am   BACKBONE|DICT|INTERRES
   101   49  174 1    
   102   50   51 2    
   103   50   52 1    
   104   52   53 1    
   105   52   54 1    
   106   52  175 1    
   107   53  176 1    
   108   53  177 1    
   109   53  178 1    
   110   54   55 am   BACKBONE|DICT|INTERRES
   111   54  179 1    
   112   55   56 2    
   113   55   57 1    
   114   57   58 1    
   115   57   59 1    
   116   57  180 1    
   117   58  181 1    
   118   58  182 1    
   119   58  183 1    
   120   59   60 am   BACKBONE|DICT|INTERRES
   121   59  184 1    
   122   60   61 2    
   123   60   62 1    
   124   62   63 1    
   125   62   64 1    
   126   62  185 1    
   127   63  186 1    
   128   63  187 1    
   129   63  188 1    
   130   64   65 am   BACKBONE|DICT|INTERRES
   131   64  189 1    
   132   65   66 2    
   133   67   68 2    
   134   67   69 am   BACKBONE|DICT|INTERRES
   135   69   70 1    
   136   69  190 1    
   137   70   71 1    
   138   70   72 1    
   139   70  191 1    
   140   71  192 1    
   141   71  193 1    
   142   71  194 1    
   143   72   73 2    
   144   72   74 am   BACKBONE|DICT|INTERRES
   145   74   75 1    
   146   74  195 1    
   147   75   76 1    
   148   75   77 1    
   149   75  196 1    
   150   76  197 1    
   151   76  198 1    
   152   76  199 1    
   153   77   78 2    
   154   77   79 am   BACKBONE|DICT|INTERRES
   155   79   80 1    
   156   79  200 1    
   157   80   81 1    
   158   80   82 1    
   159   80  201 1    
   160   81  202 1    
   161   81  203 1    
   162   81  204 1    
   163   82   83 2    
   164   82   84 am   BACKBONE|DICT|INTERRES
   165   84   85 1    
   166   84  205 1    
   167   85   86 1    
   168   85   87 1    
   169   85  206 1    
   170   86  207 1    
   171   86  208 1    
   172   86  209 1    
   173   87   88 2    
   174   87   89 am   BACKBONE|DICT|INTERRES
   175   89   90 1    
   176   89  210 1    
   177   90   91 1    
   178   90   92 1    
   179   90  211 1    
   180   91  212 1    
   181   91  213 1    
   182   91  214 1    
   183   92   93 2    
   184   92   94 am   BACKBONE|DICT|INTERRES
   185   94   95 1    
   186   94  215 1    
   187   95   96 1    
   188   95   97 1    
   189   95  216 1    
   190   96  217 1    
   191   96  218 1    
   192   96  219 1    
   193   97   98 2    
   194   97   99 am   BACKBONE|DICT|INTERRES
   195   99  100 1    
   196   99  220 1    
   197  100  101 1    
   198  100  102 1    
   199  100  221 1    
   200  101  222 1    
   201  101  223 1    
   202  101  224 1    
   203  102  103 2    
   204  102  104 am   BACKBONE|DICT|INTERRES
   205  104  105 1    
   206  104  225 1    
   207  105  106 1    
   208  105  107 1    
   209  105  226 1    
   210  106  227 1    
   211  106  228 1    
   212  106  229 1    
   213  107  108 2    
   214  107  109 am   BACKBONE|DICT|INTERRES
   215  109  110 1    
   216  109  230 1    
   217  110  111 1    
   218  110  112 1    
   219  110  231 1    
   220  111  232 1    
   221  111  233 1    
   222  111  234 1    
   223  112  113 2    
   224  112  114 am   BACKBONE|DICT|INTERRES
   225  114  115 1    
   226  114  235 1    
   227  115  116 1    
   228  115  117 1    
   229  115  236 1    
   230  116  237 1    
   231  116  238 1    
   232  116  239 1    
   233  117  118 2    
   234  117  119 am   BACKBONE|DICT|INTERRES
   235  119  120 1    
   236  119  240 1    
   237  120  121 1    
   238  120  124 1    
   239  120  241 1    
   240  121  122 am   BACKBONE|DICT|INTERRES
   241  121  123 2    
   242  122  242 1    
   243  122  243 1    
   244  124  125 1    
   245  124  244 1    
   246  124  245 1    
   247  125  126 1    
   248  126  246 1    
   249  126  247 1    
@<TRIPOS>SUBSTRUCTURE
     1 UNK         1 GROUP             0       ****    0 ROOT    
