@<TRIPOS>MOLECULE
3R540
247   249    1
SMALL
USER_CHARGES


@<TRIPOS>ATOM
      1 CA          1.3325  -10.7179  -44.0294 C.3       0 UNK        -0.1800 
      2 C           1.9693  -11.8984  -44.7480 C.2       0 UNK         0.5000 
      3 O           3.1699  -11.8827  -45.0171 O.2       0 UNK        -0.5000 
      4 N           1.1749  -12.9343  -45.0384 N.am      1 UNK        -0.5000 
      5 CA          1.5764  -14.1522  -45.7601 C.3       1 UNK         0.1400 
      6 C6          0.3945  -14.7848  -46.5420 C.3       23 UNK        -0.0398 
      7 S7         -0.4893  -13.5576  -47.5680 S.3       23 UNK        -0.2404 
      8 C8          0.2566  -13.8051  -49.2067 C.3       23 UNK        -0.0205 
      9 C9         -0.4180  -14.9370  -49.9630 C.ar      23 UNK        -0.0193 
     10 C10        -1.7326  -14.7889  -50.4109 C.ar      23 UNK        -0.1150 
     11 C11        -2.3677  -15.8174  -51.1108 C.ar      23 UNK        -0.0193 
     12 C12        -1.6739  -17.0049  -51.3690 C.ar      23 UNK        -0.1150 
     13 C13        -0.3475  -17.1518  -50.9501 C.ar      23 UNK        -0.0193 
     14 C14         0.2715  -16.1182  -50.2404 C.ar      23 UNK        -0.1150 
     15 C15         0.4448  -18.3995  -51.3036 C.3       23 UNK        -0.0205 
     16 S16         0.9663  -19.3171  -49.8233 S.3       23 UNK        -0.2404 
     17 C17        -0.4860  -20.3559  -49.4822 C.3       23 UNK        -0.0398 
     18 CA         -1.1563  -20.0267  -48.1276 C.3       11 UNK         0.1400 
     19 N          -1.8479  -18.7311  -48.1595 N.am      11 UNK        -0.5000 
     20 C          -2.2763  -18.0455  -47.0921 C.2       10 UNK         0.5000 
     21 O          -2.1627  -18.4440  -45.9314 O.2       10 UNK        -0.5000 
     22 CA         -3.0135  -16.7306  -47.3841 C.3       10 UNK         0.1400 
     23 CB         -4.3322  -17.0212  -48.1375 C.3       10 UNK        -0.1800 
     24 N          -3.2784  -16.0387  -46.1237 N.am      10 UNK        -0.5000 
     25 C          -3.8081  -14.8157  -45.9931 C.2       9 UNK         0.5000 
     26 O          -4.0879  -14.0823  -46.9417 O.2       9 UNK        -0.5000 
     27 CA         -4.1073  -14.3315  -44.5630 C.3       9 UNK         0.1400 
     28 CB         -5.4785  -14.8496  -44.1010 C.3       9 UNK        -0.1800 
     29 N          -3.0955  -14.7276  -43.5839 N.am      9 UNK        -0.5000 
     30 C          -1.9090  -14.1235  -43.4347 C.2       8 UNK         0.5000 
     31 O          -1.5183  -13.1998  -44.1478 O.2       8 UNK        -0.5000 
     32 CA         -1.0085  -14.6006  -42.2791 C.3       8 UNK         0.1400 
     33 CB         -0.9953  -13.5645  -41.1450 C.3       8 UNK        -0.1800 
     34 N          -1.4081  -15.8988  -41.7342 N.am      8 UNK        -0.5000 
     35 C          -1.0713  -17.0724  -42.2803 C.2       7 UNK         0.5000 
     36 O          -0.3799  -17.1832  -43.2935 O.2       7 UNK        -0.5000 
     37 CA         -1.6425  -18.3256  -41.6010 C.3       7 UNK         0.1400 
     38 CB         -2.8755  -18.8338  -42.3647 C.3       7 UNK        -0.1800 
     39 N          -0.6308  -19.3767  -41.5603 N.am      7 UNK        -0.5000 
     40 C           0.2487  -19.5489  -40.5649 C.2       6 UNK         0.5000 
     41 O           0.2325  -18.8983  -39.5191 O.2       6 UNK        -0.5000 
     42 CA          1.3343  -20.6277  -40.7658 C.3       6 UNK         0.1400 
     43 CB          0.9344  -21.9340  -40.0629 C.3       6 UNK        -0.1800 
     44 N           1.6314  -20.9125  -42.1738 N.am      6 UNK        -0.5000 
     45 C           2.2385  -20.0498  -42.9991 C.2       5 UNK         0.5000 
     46 O           2.6281  -18.9373  -42.6485 O.2       5 UNK        -0.5000 
     47 CA          2.4272  -20.5021  -44.4522 C.3       5 UNK         0.1400 
     48 CB          1.0715  -20.6817  -45.1564 C.3       5 UNK        -0.1800 
     49 N           3.2245  -19.5121  -45.1719 N.am      5 UNK        -0.5000 
     50 C           3.9794  -19.7595  -46.2479 C.2       4 UNK         0.5000 
     51 O           4.0936  -20.8761  -46.7549 O.2       4 UNK        -0.5000 
     52 CA          4.7423  -18.5756  -46.8676 C.3       4 UNK         0.1400 
     53 CB          3.9171  -17.9440  -48.0001 C.3       4 UNK        -0.1800 
     54 N           5.0680  -17.5381  -45.8874 N.am      4 UNK        -0.5000 
     55 C           6.2628  -17.3991  -45.2939 C.2       3 UNK         0.5000 
     56 O           7.2005  -18.1799  -45.4623 O.2       3 UNK        -0.5000 
     57 CA          6.4694  -16.1726  -44.3805 C.3       3 UNK         0.1400 
     58 CB          7.1895  -15.0526  -45.1475 C.3       3 UNK        -0.1800 
     59 N           5.2140  -15.6442  -43.8510 N.am      3 UNK        -0.5000 
     60 C           4.5525  -16.1624  -42.8088 C.2       2 UNK         0.5000 
     61 O           5.0193  -17.0443  -42.0875 O.2       2 UNK        -0.5000 
     62 CA          3.1428  -15.6016  -42.5151 C.3       2 UNK         0.1400 
     63 CB          3.1496  -14.7657  -41.2257 C.3       2 UNK        -0.1800 
     64 N           2.5609  -14.7902  -43.5885 N.am      2 UNK        -0.5000 
     65 C           2.2615  -15.1865  -44.8351 C.2       1 UNK         0.5000 
     66 O           2.5314  -16.3066  -45.2687 O.2       1 UNK        -0.5000 
     67 C          -2.0282  -21.2232  -47.6749 C.2       11 UNK         0.5000 
     68 O          -1.5027  -22.3338  -47.6013 O.2       11 UNK        -0.5000 
     69 N          -3.3189  -21.0076  -47.3799 N.am      12 UNK        -0.5000 
     70 CA         -4.3253  -22.0323  -47.0694 C.3       12 UNK         0.1400 
     71 CB         -5.6501  -21.3353  -46.7220 C.3       12 UNK        -0.1800 
     72 C          -3.9433  -23.0269  -45.9549 C.2       12 UNK         0.5000 
     73 O          -4.3556  -24.1856  -46.0137 O.2       12 UNK        -0.5000 
     74 N          -3.1522  -22.5673  -44.9758 N.am      13 UNK        -0.5000 
     75 CA         -2.6266  -23.3930  -43.8875 C.3       13 UNK         0.1400 
     76 CB         -2.1463  -22.4808  -42.7506 C.3       13 UNK        -0.1800 
     77 C          -1.4991  -24.3494  -44.3262 C.2       13 UNK         0.5000 
     78 O          -1.2952  -25.3699  -43.6676 O.2       13 UNK        -0.5000 
     79 N          -0.7874  -24.0124  -45.4109 N.am      14 UNK        -0.5000 
     80 CA          0.2473  -24.8532  -46.0102 C.3       14 UNK         0.1400 
     81 CB          1.3573  -23.9782  -46.6148 C.3       14 UNK        -0.1800 
     82 C          -0.3572  -25.7840  -47.0715 C.2       14 UNK         0.5000 
     83 O          -0.0686  -26.9816  -47.0553 O.2       14 UNK        -0.5000 
     84 N          -1.1969  -25.2323  -47.9575 N.am      15 UNK        -0.5000 
     85 CA         -1.8901  -25.9736  -49.0040 C.3       15 UNK         0.1400 
     86 CB         -0.9353  -26.2732  -50.1755 C.3       15 UNK        -0.1800 
     87 C          -3.0982  -25.1723  -49.4968 C.2       15 UNK         0.5000 
     88 O          -2.9601  -23.9921  -49.8250 O.2       15 UNK        -0.5000 
     89 N          -4.2479  -25.8465  -49.6214 N.am      16 UNK        -0.5000 
     90 CA         -5.4666  -25.2902  -50.2143 C.3       16 UNK         0.1400 
     91 CB         -6.6397  -26.2483  -49.9641 C.3       16 UNK        -0.1800 
     92 C          -5.3131  -25.0002  -51.7198 C.2       16 UNK         0.5000 
     93 O          -5.9238  -24.0581  -52.2204 O.2       16 UNK        -0.5000 
     94 N          -4.4624  -25.7779  -52.4056 N.am      17 UNK        -0.5000 
     95 CA         -4.1020  -25.5829  -53.8112 C.3       17 UNK         0.1400 
     96 CB         -3.2615  -26.7757  -54.2898 C.3       17 UNK        -0.1800 
     97 C          -3.3523  -24.2603  -54.0575 C.2       17 UNK         0.5000 
     98 O          -3.5867  -23.6101  -55.0750 O.2       17 UNK        -0.5000 
     99 N          -2.4975  -23.8620  -53.1050 N.am      18 UNK        -0.5000 
    100 CA        -1.7657  -22.5954  -53.1391 C.3       18 UNK         0.1400 
    101 CB        -0.6027  -22.6549  -52.1402 C.3       18 UNK        -0.1800 
    102 C         -2.6792  -21.3861  -52.8654 C.2       18 UNK         0.5000 
    103 O         -2.4560  -20.3159  -53.4309 O.2       18 UNK        -0.5000 
    104 N         -3.7130  -21.5830  -52.0351 N.am      19 UNK        -0.5000 
    105 CA        -4.7765  -20.6042  -51.8121 C.3       19 UNK         0.1400 
    106 CB        -5.5463  -20.9545  -50.5342 C.3       19 UNK        -0.1800 
    107 C         -5.7236  -20.4847  -53.0205 C.2       19 UNK         0.5000 
    108 O         -6.1516  -19.3774  -53.3366 O.2       19 UNK        -0.5000 
    109 N         -6.0064  -21.6030  -53.7035 N.am      20 UNK        -0.5000 
    110 CA        -6.7790  -21.6367  -54.9486 C.3       20 UNK         0.1400 
    111 CB        -7.1269  -23.0887  -55.3086 C.3       20 UNK        -0.1800 
    112 C         -6.0448  -20.9381  -56.1092 C.2       20 UNK         0.5000 
    113 O         -6.6612  -20.1640  -56.8436 O.2       20 UNK        -0.5000 
    114 N         -4.7265  -21.1675  -56.2109 N.am      21 UNK        -0.5000 
    115 CA        -3.8191  -20.5262  -57.1707 C.3       21 UNK         0.1400 
    116 CB        -2.4357  -21.1870  -57.0729 C.3       21 UNK        -0.1800 
    117 C         -3.6989  -18.9956  -57.0040 C.2       21 UNK         0.5000 
    118 O         -3.2795  -18.3160  -57.9417 O.2       21 UNK        -0.5000 
    119 N         -4.0909  -18.4817  -55.8320 N.am      22 UNK        -0.5000 
    120 CA        -4.2624  -17.0529  -55.5335 C.3       22 UNK         0.1400 
    121 C         -5.4169  -16.3693  -56.3311 C.2       22 UNK         0.5000 
    122 N         -6.3715  -17.1070  -56.8902 N.am      22 UNK        -0.7600 
    123 O         -5.4410  -15.1487  -56.4597 O.2       22 UNK        -0.5000 
    124 C124       -4.4380  -16.8509  -54.0067 C.3       23 UNK        -0.0398 
    125 S125       -3.8583  -15.2475  -53.3709 S.3       23 UNK        -0.2404 
    126 C126       -3.7975  -15.6257  -51.5900 C.3       23 UNK        -0.0205 
    127 H127        1.4363   -9.8136  -44.6288 H         1 UNK         0.0600 
    128 H128        1.8233  -10.5522  -43.0704 H         1 UNK         0.0600 
    129 H129        0.2706  -10.8833  -43.8441 H         1 UNK         0.0600 
    130 H130        0.1866  -12.8893  -44.7953 H         1 UNK         0.3000 
    131 H131        2.3286  -13.8697  -46.4996 H         1 UNK         0.0600 
    132 H132        0.7405  -15.6029  -47.1763 H         1 UNK         0.0800 
    133 H133       -0.3270  -15.2252  -45.8518 H         1 UNK         0.0800 
    134 H134        0.1487  -12.8847  -49.7821 H         1 UNK         0.0800 
    135 H135        1.3292  -13.9772  -49.1045 H         1 UNK         0.0800 
    136 H136       -2.2626  -13.8690  -50.2060 H         1 UNK         0.1150 
    137 H137       -2.1527  -17.7996  -51.9236 H         1 UNK         0.1150 
    138 H138        1.2965  -16.2332  -49.9158 H         1 UNK         0.1150 
    139 H139       -0.1150  -19.0514  -51.9764 H         1 UNK         0.0800 
    140 H140        1.3373  -18.0966  -51.8528 H         1 UNK         0.0800 
    141 H141       -0.1071  -21.3790  -49.4938 H         1 UNK         0.0800 
    142 H142       -1.2107  -20.2905  -50.2949 H         1 UNK         0.0800 
    143 H143       -0.3680  -19.9375  -47.3831 H         1 UNK         0.0600 
    144 H144       -1.9607  -18.3203  -49.0748 H         1 UNK         0.3000 
    145 H145       -2.3628  -16.1045  -47.9950 H         1 UNK         0.0600 
    146 H146       -4.8322  -16.1032  -48.4447 H         1 UNK         0.0600 
    147 H147       -4.1594  -17.5967  -49.0472 H         1 UNK         0.0600 
    148 H148       -5.0288  -17.5885  -47.5191 H         1 UNK         0.0600 
    149 H149       -3.0339  -16.5782  -45.3024 H         1 UNK         0.3000 
    150 H150       -4.1538  -13.2404  -44.5883 H         1 UNK         0.0600 
    151 H151       -5.4962  -15.9378  -44.0295 H         1 UNK         0.0600 
    152 H152       -6.2627  -14.5541  -44.7994 H         1 UNK         0.0600 
    153 H153       -5.7452  -14.4439  -43.1249 H         1 UNK         0.0600 
    154 H154       -3.3393  -15.4725  -42.9494 H         1 UNK         0.3000 
    155 H155        0.0061  -14.6793  -42.6699 H         1 UNK         0.0600 
    156 H156       -1.9878  -13.4254  -40.7145 H         1 UNK         0.0600 
    157 H157       -0.6548  -12.5931  -41.5064 H         1 UNK         0.0600 
    158 H158       -0.3204  -13.8651  -40.3434 H         1 UNK         0.0600 
    159 H159       -1.9750  -15.8832  -40.8981 H         1 UNK         0.3000 
    160 H160       -1.9537  -18.0713  -40.5853 H         1 UNK         0.0600 
    161 H161       -3.3613  -19.6452  -41.8239 H         1 UNK         0.0600 
    162 H162       -2.6145  -19.1979  -43.3589 H         1 UNK         0.0600 
    163 H163       -3.6170  -18.0437  -42.4886 H         1 UNK         0.0600 
    164 H164       -0.4891  -19.8909  -42.4154 H         1 UNK         0.3000 
    165 H165        2.2487  -20.2585  -40.2962 H         1 UNK         0.0600 
    166 H166        0.7445  -21.7639  -39.0023 H         1 UNK         0.0600 
    167 H167        0.0292  -22.3627  -40.4921 H         1 UNK         0.0600 
    168 H168        1.7266  -22.6796  -40.1335 H         1 UNK         0.0600 
    169 H169        1.3587  -21.8213  -42.5179 H         1 UNK         0.3000 
    170 H170        2.9612  -21.4544  -44.4354 H         1 UNK         0.0600 
    171 H171        0.4640  -21.4439  -44.6698 H         1 UNK         0.0600 
    172 H172        0.4989  -19.7525  -45.1610 H         1 UNK         0.0600 
    173 H173        1.2145  -21.0002  -46.1881 H         1 UNK         0.0600 
    174 H174        3.1923  -18.5778  -44.7798 H         1 UNK         0.3000 
    175 H175        5.6597  -18.9701  -47.3095 H         1 UNK         0.0600 
    176 H176        4.4394  -17.0985  -48.4476 H         1 UNK         0.0600 
    177 H177        3.7354  -18.6688  -48.7942 H         1 UNK         0.0600 
    178 H178        2.9461  -17.5921  -47.6490 H         1 UNK         0.0600 
    179 H179        4.3145  -16.8989  -45.6533 H         1 UNK         0.3000 
    180 H180        7.1083  -16.4796  -43.5496 H         1 UNK         0.0600 
    181 H181        6.5988  -14.6992  -45.9937 H         1 UNK         0.0600 
    182 H182        8.1473  -15.3995  -45.5378 H         1 UNK         0.0600 
    183 H183        7.3936  -14.1995  -44.5002 H         1 UNK         0.0600 
    184 H184        4.7755  -14.8984  -44.3708 H         1 UNK         0.3000 
    185 H185        2.4749  -16.4484  -42.3595 H         1 UNK         0.0600 
    186 H186        3.5355  -15.3448  -40.3858 H         1 UNK         0.0600 
    187 H187        3.7736  -13.8769  -41.3269 H         1 UNK         0.0600 
    188 H188        2.1434  -14.4434  -40.9581 H         1 UNK         0.0600 
    189 H189        2.3440  -13.8337  -43.3514 H         1 UNK         0.3000 
    190 H190       -3.6515  -20.0568  -47.4212 H         1 UNK         0.3000 
    191 H191       -4.4756  -22.6194  -47.9770 H         1 UNK         0.0600 
    192 H192       -5.9982  -20.7038  -47.5389 H         1 UNK         0.0600 
    193 H193       -6.4357  -22.0653  -46.5224 H         1 UNK         0.0600 
    194 H194       -5.5513  -20.7085  -45.8347 H         1 UNK         0.0600 
    195 H195       -2.8623  -21.6008  -45.0061 H         1 UNK         0.3000 
    196 H196       -3.4410  -24.0094  -43.5002 H         1 UNK         0.0600 
    197 H197       -1.7452  -23.0683  -41.9243 H         1 UNK         0.0600 
    198 H198       -2.9700  -21.8904  -42.3519 H         1 UNK         0.0600 
    199 H199       -1.3658  -21.7973  -43.0825 H         1 UNK         0.0600 
    200 H200       -1.0746  -23.2072  -45.9578 H         1 UNK         0.3000 
    201 H201        0.7070  -25.4775  -45.2409 H         1 UNK         0.0600 
    202 H202        2.1151  -24.5929  -47.1021 H         1 UNK         0.0600 
    203 H203        0.9731  -23.2830  -47.3614 H         1 UNK         0.0600 
    204 H204        1.8635  -23.3996  -45.8430 H         1 UNK         0.0600 
    205 H205       -1.3963  -24.2345  -47.9180 H         1 UNK         0.3000 
    206 H206       -2.2476  -26.9177  -48.5872 H         1 UNK         0.0600 
    207 H207       -0.1135  -26.9181  -49.8646 H         1 UNK         0.0600 
    208 H208       -1.4549  -26.7843  -50.9870 H         1 UNK         0.0600 
    209 H209       -0.5034  -25.3588  -50.5837 H         1 UNK         0.0600 
    210 H210       -4.2890  -26.8129  -49.3306 H         1 UNK         0.3000 
    211 H211       -5.6857  -24.3436  -49.7155 H         1 UNK         0.0600 
    212 H212       -6.4708  -27.2228  -50.4240 H         1 UNK         0.0600 
    213 H213       -7.5661  -25.8463  -50.3770 H         1 UNK         0.0600 
    214 H214       -6.8014  -26.4029  -48.8971 H         1 UNK         0.0600 
    215 H215       -4.0125  -26.5402  -51.9216 H         1 UNK         0.3000 
    216 H216       -5.0240  -25.5574  -54.3954 H         1 UNK         0.0600 
    217 H217       -2.9937  -26.6667  -55.3417 H         1 UNK         0.0600 
    218 H218       -3.8126  -27.7112  -54.1917 H         1 UNK         0.0600 
    219 H219       -2.3343  -26.8704  -53.7230 H         1 UNK         0.0600 
    220 H220       -2.3902  -24.4267  -52.2756 H         1 UNK         0.3000 
    221 H221       -1.3426  -22.4687  -54.1377 H         1 UNK         0.0600 
    222 H222       -0.9555  -22.8286  -51.1242 H         1 UNK         0.0600 
    223 H223        0.0911  -23.4567  -52.3930 H         1 UNK         0.0600 
    224 H224       -0.0350  -21.7236  -52.1439 H         1 UNK         0.0600 
    225 H225       -3.8132  -22.4845  -51.5885 H         1 UNK         0.3000 
    226 H226       -4.3136  -19.6264  -51.6601 H         1 UNK         0.0600 
    227 H227       -6.3267  -20.2196  -50.3331 H         1 UNK         0.0600 
    228 H228       -6.0225  -21.9325  -50.5966 H         1 UNK         0.0600 
    229 H229       -4.8754  -20.9587  -49.6788 H         1 UNK         0.0600 
    230 H230       -5.7041  -22.4961  -53.3264 H         1 UNK         0.3000 
    231 H231       -7.7144  -21.1002  -54.7761 H         1 UNK         0.0600 
    232 H232       -6.2354  -23.6815  -55.5103 H         1 UNK         0.0600 
    233 H233       -7.7541  -23.1282  -56.2000 H         1 UNK         0.0600 
    234 H234       -7.6763  -23.5743  -54.5019 H         1 UNK         0.0600 
    235 H235       -4.3120  -21.8697  -55.6048 H         1 UNK         0.3000 
    236 H236       -4.2153  -20.7108  -58.1710 H         1 UNK         0.0600 
    237 H237       -2.4942  -22.2581  -57.2669 H         1 UNK         0.0600 
    238 H238       -1.7460  -20.7628  -57.8036 H         1 UNK         0.0600 
    239 H239       -1.9947  -21.0471  -56.0860 H         1 UNK         0.0600 
    240 H240       -4.4155  -19.1233  -55.1228 H         1 UNK         0.3000 
    241 H241       -3.3364  -16.5621  -55.8386 H         1 UNK         0.0600 
    242 H242       -7.1058  -16.6511  -57.4083 H         1 UNK         0.3800 
    243 H243       -6.3740  -18.1174  -56.8074 H         1 UNK         0.3800 
    244 H244       -3.8859  -17.6243  -53.4715 H         1 UNK         0.0800 
    245 H245       -5.4819  -16.9716  -53.7142 H         1 UNK         0.0800 
    246 H246       -4.3889  -16.5133  -51.3608 H         1 UNK         0.0800 
    247 H247       -4.2706  -14.8065  -51.0463 H         1 UNK         0.0800 
@<TRIPOS>BOND
     1    1    2 1    
     2    1  127 1    
     3    1  128 1    
     4    1  129 1    
     5    2    3 2    
     6    2    4 am   BACKBONE|DICT|INTERRES
     7    4    5 1    
     8    4  130 1    
     9    5    6 1    
    10    5   65 1    
    11    5  131 1    
    12    6    7 1    
    13    6  132 1    
    14    6  133 1    
    15    7    8 1    
    16    8    9 1    
    17    8  134 1    
    18    8  135 1    
    19    9   10 ar   
    20    9   14 ar   
    21   10   11 ar   
    22   10  136 1    
    23   11   12 ar   
    24   11  126 1    
    25   12   13 ar   
    26   12  137 1    
    27   13   14 ar   
    28   13   15 1    
    29   14  138 1    
    30   15   16 1    
    31   15  139 1    
    32   15  140 1    
    33   16   17 1    
    34   17   18 1    
    35   17  141 1    
    36   17  142 1    
    37   18   19 1    
    38   18   67 1    
    39   18  143 1    
    40   19   20 am   BACKBONE|DICT|INTERRES
    41   19  144 1    
    42   20   21 2    
    43   20   22 1    
    44   22   23 1    
    45   22   24 1    
    46   22  145 1    
    47   23  146 1    
    48   23  147 1    
    49   23  148 1    
    50   24   25 am   BACKBONE|DICT|INTERRES
    51   24  149 1    
    52   25   26 2    
    53   25   27 1    
    54   27   28 1    
    55   27   29 1    
    56   27  150 1    
    57   28  151 1    
    58   28  152 1    
    59   28  153 1    
    60   29   30 am   BACKBONE|DICT|INTERRES
    61   29  154 1    
    62   30   31 2    
    63   30   32 1    
    64   32   33 1    
    65   32   34 1    
    66   32  155 1    
    67   33  156 1    
    68   33  157 1    
    69   33  158 1    
    70   34   35 am   BACKBONE|DICT|INTERRES
    71   34  159 1    
    72   35   36 2    
    73   35   37 1    
    74   37   38 1    
    75   37   39 1    
    76   37  160 1    
    77   38  161 1    
    78   38  162 1    
    79   38  163 1    
    80   39   40 am   BACKBONE|DICT|INTERRES
    81   39  164 1    
    82   40   41 2    
    83   40   42 1    
    84   42   43 1    
    85   42   44 1    
    86   42  165 1    
    87   43  166 1    
    88   43  167 1    
    89   43  168 1    
    90   44   45 am   BACKBONE|DICT|INTERRES
    91   44  169 1    
    92   45   46 2    
    93   45   47 1    
    94   47   48 1    
    95   47   49 1    
    96   47  170 1    
    97   48  171 1    
    98   48  172 1    
    99   48  173 1    
   100   49   50 am   BACKBONE|DICT|INTERRES
   101   49  174 1    
   102   50   51 2    
   103   50   52 1    
   104   52   53 1    
   105   52   54 1    
   106   52  175 1    
   107   53  176 1    
   108   53  177 1    
   109   53  178 1    
   110   54   55 am   BACKBONE|DICT|INTERRES
   111   54  179 1    
   112   55   56 2    
   113   55   57 1    
   114   57   58 1    
   115   57   59 1    
   116   57  180 1    
   117   58  181 1    
   118   58  182 1    
   119   58  183 1    
   120   59   60 am   BACKBONE|DICT|INTERRES
   121   59  184 1    
   122   60   61 2    
   123   60   62 1    
   124   62   63 1    
   125   62   64 1    
   126   62  185 1    
   127   63  186 1    
   128   63  187 1    
   129   63  188 1    
   130   64   65 am   BACKBONE|DICT|INTERRES
   131   64  189 1    
   132   65   66 2    
   133   67   68 2    
   134   67   69 am   BACKBONE|DICT|INTERRES
   135   69   70 1    
   136   69  190 1    
   137   70   71 1    
   138   70   72 1    
   139   70  191 1    
   140   71  192 1    
   141   71  193 1    
   142   71  194 1    
   143   72   73 2    
   144   72   74 am   BACKBONE|DICT|INTERRES
   145   74   75 1    
   146   74  195 1    
   147   75   76 1    
   148   75   77 1    
   149   75  196 1    
   150   76  197 1    
   151   76  198 1    
   152   76  199 1    
   153   77   78 2    
   154   77   79 am   BACKBONE|DICT|INTERRES
   155   79   80 1    
   156   79  200 1    
   157   80   81 1    
   158   80   82 1    
   159   80  201 1    
   160   81  202 1    
   161   81  203 1    
   162   81  204 1    
   163   82   83 2    
   164   82   84 am   BACKBONE|DICT|INTERRES
   165   84   85 1    
   166   84  205 1    
   167   85   86 1    
   168   85   87 1    
   169   85  206 1    
   170   86  207 1    
   171   86  208 1    
   172   86  209 1    
   173   87   88 2    
   174   87   89 am   BACKBONE|DICT|INTERRES
   175   89   90 1    
   176   89  210 1    
   177   90   91 1    
   178   90   92 1    
   179   90  211 1    
   180   91  212 1    
   181   91  213 1    
   182   91  214 1    
   183   92   93 2    
   184   92   94 am   BACKBONE|DICT|INTERRES
   185   94   95 1    
   186   94  215 1    
   187   95   96 1    
   188   95   97 1    
   189   95  216 1    
   190   96  217 1    
   191   96  218 1    
   192   96  219 1    
   193   97   98 2    
   194   97   99 am   BACKBONE|DICT|INTERRES
   195   99  100 1    
   196   99  220 1    
   197  100  101 1    
   198  100  102 1    
   199  100  221 1    
   200  101  222 1    
   201  101  223 1    
   202  101  224 1    
   203  102  103 2    
   204  102  104 am   BACKBONE|DICT|INTERRES
   205  104  105 1    
   206  104  225 1    
   207  105  106 1    
   208  105  107 1    
   209  105  226 1    
   210  106  227 1    
   211  106  228 1    
   212  106  229 1    
   213  107  108 2    
   214  107  109 am   BACKBONE|DICT|INTERRES
   215  109  110 1    
   216  109  230 1    
   217  110  111 1    
   218  110  112 1    
   219  110  231 1    
   220  111  232 1    
   221  111  233 1    
   222  111  234 1    
   223  112  113 2    
   224  112  114 am   BACKBONE|DICT|INTERRES
   225  114  115 1    
   226  114  235 1    
   227  115  116 1    
   228  115  117 1    
   229  115  236 1    
   230  116  237 1    
   231  116  238 1    
   232  116  239 1    
   233  117  118 2    
   234  117  119 am   BACKBONE|DICT|INTERRES
   235  119  120 1    
   236  119  240 1    
   237  120  121 1    
   238  120  124 1    
   239  120  241 1    
   240  121  122 am   BACKBONE|DICT|INTERRES
   241  121  123 2    
   242  122  242 1    
   243  122  243 1    
   244  124  125 1    
   245  124  244 1    
   246  124  245 1    
   247  125  126 1    
   248  126  246 1    
   249  126  247 1    
@<TRIPOS>SUBSTRUCTURE
     1 UNK         1 GROUP             0       ****    0 ROOT    
