@<TRIPOS>MOLECULE
3R540
247   249    1
SMALL
USER_CHARGES


@<TRIPOS>ATOM
      1 CA          2.5119   -9.0382  -52.1208 C.3       0 UNK        -0.1800 
      2 C           2.2160  -10.5313  -52.1520 C.2       0 UNK         0.5000 
      3 O           2.4550  -11.1816  -53.1702 O.2       0 UNK        -0.5000 
      4 N           1.6903  -11.0728  -51.0463 N.am      1 UNK        -0.5000 
      5 CA          1.4065  -12.5000  -50.8658 C.3       1 UNK         0.1400 
      6 C6          0.3889  -12.7234  -49.7175 C.3       23 UNK        -0.0398 
      7 S7         -0.5680  -14.2632  -49.9286 S.3       23 UNK        -0.2404 
      8 C8         -0.1373  -15.1586  -48.4104 C.3       23 UNK        -0.0205 
      9 C9         -0.5962  -16.6035  -48.4738 C.ar      23 UNK        -0.0193 
     10 C10        -1.9000  -16.9389  -48.1026 C.ar      23 UNK        -0.1150 
     11 C11        -2.3241  -18.2699  -48.1162 C.ar      23 UNK        -0.0193 
     12 C12        -1.4235  -19.2666  -48.5023 C.ar      23 UNK        -0.1150 
     13 C13        -0.1252  -18.9426  -48.9057 C.ar      23 UNK        -0.0193 
     14 C14         0.2847  -17.6074  -48.8869 C.ar      23 UNK        -0.1150 
     15 C15         0.8280  -20.0426  -49.3526 C.3       23 UNK        -0.0205 
     16 S16         2.1609  -20.3859  -48.1560 S.3       23 UNK        -0.2404 
     17 C17         1.2765  -20.5184  -46.5655 C.3       23 UNK        -0.0398 
     18 CA          0.8952  -21.9561  -46.1474 C.3       11 UNK         0.1400 
     19 N           0.7509  -22.0372  -44.6894 N.am      11 UNK        -0.5000 
     20 C           0.4790  -23.1368  -43.9734 C.2       10 UNK         0.5000 
     21 O           0.3212  -24.2529  -44.4665 O.2       10 UNK        -0.5000 
     22 CA          0.3081  -22.9380  -42.4587 C.3       10 UNK         0.1400 
     23 CB          1.6732  -22.8816  -41.7558 C.3       10 UNK        -0.1800 
     24 N          -0.4394  -21.7115  -42.1774 N.am      10 UNK        -0.5000 
     25 C          -1.7771  -21.6328  -42.1551 C.2       9 UNK         0.5000 
     26 O          -2.5194  -22.6073  -42.2773 O.2       9 UNK        -0.5000 
     27 CA         -2.3972  -20.2313  -41.9818 C.3       9 UNK         0.1400 
     28 CB         -2.6023  -19.9135  -40.4931 C.3       9 UNK        -0.1800 
     29 N          -1.6087  -19.1594  -42.5912 N.am      9 UNK        -0.5000 
     30 C          -1.3798  -19.0256  -43.9050 C.2       8 UNK         0.5000 
     31 O          -1.8233  -19.7930  -44.7572 O.2       8 UNK        -0.5000 
     32 CA         -0.4503  -17.8730  -44.3311 C.3       8 UNK         0.1400 
     33 CB         -1.2572  -16.5843  -44.5438 C.3       8 UNK        -0.1800 
     34 N           0.6442  -17.6077  -43.3941 N.am      8 UNK        -0.5000 
     35 C           1.5197  -18.4983  -42.9063 C.2       7 UNK         0.5000 
     36 O           1.5057  -19.6960  -43.1906 O.2       7 UNK        -0.5000 
     37 CA          2.5660  -17.9752  -41.9070 C.3       7 UNK         0.1400 
     38 CB          3.8803  -17.6286  -42.6208 C.3       7 UNK        -0.1800 
     39 N           2.1026  -16.8030  -41.1635 N.am      7 UNK        -0.5000 
     40 C           1.2597  -16.8391  -40.1229 C.2       6 UNK         0.5000 
     41 O           0.7717  -17.8769  -39.6746 O.2       6 UNK        -0.5000 
     42 CA          0.9029  -15.4859  -39.4777 C.3       6 UNK         0.1400 
     43 CB          1.9422  -15.1096  -38.4106 C.3       6 UNK        -0.1800 
     44 N           0.8111  -14.4040  -40.4605 N.am      6 UNK        -0.5000 
     45 C          -0.2333  -14.2228  -41.2803 C.2       5 UNK         0.5000 
     46 O          -1.2546  -14.9091  -41.2440 O.2       5 UNK        -0.5000 
     47 CA         -0.1099  -13.1032  -42.3357 C.3       5 UNK         0.1400 
     48 CB         -0.6597  -11.7804  -41.7811 C.3       5 UNK        -0.1800 
     49 N           1.2506  -12.8836  -42.8454 N.am      5 UNK        -0.5000 
     50 C           1.9947  -13.8148  -43.4557 C.2       4 UNK         0.5000 
     51 O           1.6474  -14.9910  -43.5635 O.2       4 UNK        -0.5000 
     52 CA          3.3741  -13.3788  -43.9854 C.3       4 UNK         0.1400 
     53 CB          4.3876  -13.3097  -42.8320 C.3       4 UNK        -0.1800 
     54 N           3.8759  -14.3182  -44.9911 N.am      4 UNK        -0.5000 
     55 C           3.3674  -14.4565  -46.2211 C.2       3 UNK         0.5000 
     56 O           2.5214  -13.6998  -46.7071 O.2       3 UNK        -0.5000 
     57 CA          3.8706  -15.6615  -47.0292 C.3       3 UNK         0.1400 
     58 CB          3.1813  -16.9596  -46.5687 C.3       3 UNK        -0.1800 
     59 N           3.5788  -15.4364  -48.4387 N.am      3 UNK        -0.5000 
     60 C           4.2705  -15.9152  -49.4763 C.2       2 UNK         0.5000 
     61 O           5.2667  -16.6290  -49.3524 O.2       2 UNK        -0.5000 
     62 CA          3.7736  -15.5555  -50.8951 C.3       2 UNK         0.1400 
     63 CB          3.3726  -16.8237  -51.6681 C.3       2 UNK        -0.1800 
     64 N           2.6476  -14.6152  -50.9407 N.am      2 UNK        -0.5000 
     65 C           2.7110  -13.3069  -50.6626 C.2       1 UNK         0.5000 
     66 O           3.7325  -12.7491  -50.2533 O.2       1 UNK        -0.5000 
     67 C          -0.3598  -22.4580  -46.9006 C.2       11 UNK         0.5000 
     68 O          -0.2331  -23.0678  -47.9625 O.2       11 UNK        -0.5000 
     69 N          -1.5461  -22.2601  -46.3085 N.am      12 UNK        -0.5000 
     70 CA         -2.8393  -22.7653  -46.7758 C.3       12 UNK         0.1400 
     71 CB         -3.9375  -22.2688  -45.8238 C.3       12 UNK        -0.1800 
     72 C          -2.9242  -24.2994  -46.9243 C.2       12 UNK         0.5000 
     73 O          -3.7837  -24.7759  -47.6642 O.2       12 UNK        -0.5000 
     74 N          -2.0446  -25.0524  -46.2452 N.am      13 UNK        -0.5000 
     75 CA         -1.9199  -26.5014  -46.4154 C.3       13 UNK         0.1400 
     76 CB         -1.1732  -27.1002  -45.2143 C.3       13 UNK        -0.1800 
     77 C          -1.2148  -26.8779  -47.7333 C.2       13 UNK         0.5000 
     78 O          -1.5102  -27.9346  -48.2921 O.2       13 UNK        -0.5000 
     79 N          -0.3080  -26.0128  -48.2109 N.am      14 UNK        -0.5000 
     80 CA          0.3621  -26.1486  -49.5031 C.3       14 UNK         0.1400 
     81 CB          1.7278  -25.4441  -49.4618 C.3       14 UNK        -0.1800 
     82 C          -0.5237  -25.5846  -50.6246 C.2       14 UNK         0.5000 
     83 O          -0.7406  -26.2603  -51.6308 O.2       14 UNK        -0.5000 
     84 N          -1.0781  -24.3842  -50.4061 N.am      15 UNK        -0.5000 
     85 CA         -2.0436  -23.7211  -51.2866 C.3       15 UNK         0.1400 
     86 CB         -1.9141  -22.1996  -51.1110 C.3       15 UNK        -0.1800 
     87 C          -3.4816  -24.2263  -51.0385 C.2       15 UNK         0.5000 
     88 O          -4.3998  -23.4227  -50.8529 O.2       15 UNK        -0.5000 
     89 N          -3.6354  -25.5573  -51.0220 N.am      16 UNK        -0.5000 
     90 CA         -4.8546  -26.2934  -50.6931 C.3       16 UNK         0.1400 
     91 CB         -4.5732  -27.7983  -50.8166 C.3       16 UNK        -0.1800 
     92 C          -6.0619  -25.8937  -51.5593 C.2       16 UNK         0.5000 
     93 O          -5.9069  -25.6586  -52.7596 O.2       16 UNK        -0.5000 
     94 N          -7.2368  -25.8285  -50.9173 N.am      17 UNK        -0.5000 
     95 CA         -8.5177  -25.3682  -51.4677 C.3       17 UNK         0.1400 
     96 CB         -9.0119  -26.3037  -52.5921 C.3       17 UNK        -0.1800 
     97 C          -8.4999  -23.8782  -51.8787 C.2       17 UNK         0.5000 
     98 O          -9.2181  -23.4906  -52.8019 O.2       17 UNK        -0.5000 
     99 N          -7.6915  -23.0751  -51.1661 N.am      18 UNK        -0.5000 
    100 CA        -7.4779  -21.6351  -51.3459 C.3       18 UNK         0.1400 
    101 CB        -8.7599  -20.8481  -51.0006 C.3       18 UNK        -0.1800 
    102 C         -6.9164  -21.3047  -52.7438 C.2       18 UNK         0.5000 
    103 O         -7.5061  -20.5174  -53.4866 O.2       18 UNK        -0.5000 
    104 N         -5.7987  -21.9540  -53.0916 N.am      19 UNK        -0.5000 
    105 CA        -5.1318  -21.7998  -54.3829 C.3       19 UNK         0.1400 
    106 CB        -4.1377  -22.9531  -54.5806 C.3       19 UNK        -0.1800 
    107 C         -4.4085  -20.4463  -54.5024 C.2       19 UNK         0.5000 
    108 O         -3.7462  -20.0189  -53.5535 O.2       19 UNK        -0.5000 
    109 N         -4.5090  -19.8291  -55.6881 N.am      20 UNK        -0.5000 
    110 CA        -3.8391  -18.5901  -56.0969 C.3       20 UNK         0.1400 
    111 CB        -2.3440  -18.8731  -56.3708 C.3       20 UNK        -0.1800 
    112 C         -4.0928  -17.4279  -55.1106 C.2       20 UNK         0.5000 
    113 O         -5.2523  -17.0923  -54.8588 O.2       20 UNK        -0.5000 
    114 N         -3.0183  -16.8536  -54.5520 N.am      21 UNK        -0.5000 
    115 CA        -3.0374  -15.7465  -53.5919 C.3       21 UNK         0.1400 
    116 CB        -1.5943  -15.2759  -53.3536 C.3       21 UNK        -0.1800 
    117 C         -3.7329  -16.0736  -52.2533 C.2       21 UNK         0.5000 
    118 O         -4.1422  -15.1487  -51.5507 O.2       21 UNK        -0.5000 
    119 N         -3.8813  -17.3673  -51.9372 N.am      22 UNK        -0.5000 
    120 CA        -4.6706  -17.8624  -50.8011 C.3       22 UNK         0.1400 
    121 C         -6.2115  -17.7332  -50.9989 C.2       22 UNK         0.5000 
    122 N         -6.7147  -17.4938  -52.2056 N.am      22 UNK        -0.7600 
    123 O         -6.9667  -17.8242  -50.0362 O.2       22 UNK        -0.5000 
    124 C124       -4.2447  -19.3105  -50.4426 C.3       23 UNK        -0.0398 
    125 S125       -4.5852  -19.8578  -48.7320 S.3       23 UNK        -0.2404 
    126 C126       -3.7483  -18.6105  -47.6882 C.3       23 UNK        -0.0205 
    127 H127        3.5749   -8.8632  -52.2868 H         1 UNK         0.0600 
    128 H128        2.2391   -8.5902  -51.1650 H         1 UNK         0.0600 
    129 H129        1.9544   -8.5283  -52.9065 H         1 UNK         0.0600 
    130 H130        1.5522  -10.4909  -50.2325 H         1 UNK         0.3000 
    131 H131        0.9490  -12.8468  -51.7957 H         1 UNK         0.0600 
    132 H132        0.8733  -12.6914  -48.7396 H         1 UNK         0.0800 
    133 H133       -0.3433  -11.9146  -49.7077 H         1 UNK         0.0800 
    134 H134       -0.5840  -14.6576  -47.5501 H         1 UNK         0.0800 
    135 H135        0.9380  -15.1256  -48.2589 H         1 UNK         0.0800 
    136 H136       -2.5813  -16.1587  -47.7935 H         1 UNK         0.1150 
    137 H137       -1.7405  -20.2980  -48.4951 H         1 UNK         0.1150 
    138 H138        1.2942  -17.3545  -49.1764 H         1 UNK         0.1150 
    139 H139        0.2834  -20.9676  -49.5374 H         1 UNK         0.0800 
    140 H140        1.2760  -19.7623  -50.3068 H         1 UNK         0.0800 
    141 H141        0.4034  -19.8725  -46.5465 H         1 UNK         0.0800 
    142 H142        1.9593  -20.0930  -45.8289 H         1 UNK         0.0800 
    143 H143        1.7181  -22.6232  -46.4117 H         1 UNK         0.0600 
    144 H144        0.9000  -21.1706  -44.1794 H         1 UNK         0.3000 
    145 H145       -0.2375  -23.7978  -42.0639 H         1 UNK         0.0600 
    146 H146        1.5556  -22.7730  -40.6776 H         1 UNK         0.0600 
    147 H147        2.2381  -23.7981  -41.9307 H         1 UNK         0.0600 
    148 H148        2.2817  -22.0494  -42.1111 H         1 UNK         0.0600 
    149 H149        0.1005  -20.8563  -42.1298 H         1 UNK         0.3000 
    150 H150       -3.3751  -20.2433  -42.4680 H         1 UNK         0.0600 
    151 H151       -3.2024  -20.6841  -40.0073 H         1 UNK         0.0600 
    152 H152       -3.1233  -18.9651  -40.3603 H         1 UNK         0.0600 
    153 H153       -1.6520  -19.8516  -39.9608 H         1 UNK         0.0600 
    154 H154       -1.1856  -18.4913  -41.9628 H         1 UNK         0.3000 
    155 H155        0.0008  -18.1357  -45.2864 H         1 UNK         0.0600 
    156 H156       -1.6697  -16.2096  -43.6071 H         1 UNK         0.0600 
    157 H157       -2.0924  -16.7528  -45.2241 H         1 UNK         0.0600 
    158 H158       -0.6380  -15.7988  -44.9779 H         1 UNK         0.0600 
    159 H159        0.8159  -16.6279  -43.1848 H         1 UNK         0.3000 
    160 H160        2.7699  -18.7819  -41.1996 H         1 UNK         0.0600 
    161 H161        4.6672  -17.3995  -41.9022 H         1 UNK         0.0600 
    162 H162        3.7656  -16.7643  -43.2737 H         1 UNK         0.0600 
    163 H163        4.2298  -18.4628  -43.2309 H         1 UNK         0.0600 
    164 H164        2.3959  -15.9038  -41.5153 H         1 UNK         0.3000 
    165 H165       -0.0645  -15.5967  -38.9827 H         1 UNK         0.0600 
    166 H166        1.6659  -14.1869  -37.8999 H         1 UNK         0.0600 
    167 H167        2.0213  -15.8888  -37.6513 H         1 UNK         0.0600 
    168 H168        2.9339  -14.9705  -38.8429 H         1 UNK         0.0600 
    169 H169        1.6043  -13.7856  -40.5437 H         1 UNK         0.3000 
    170 H170       -0.7292  -13.3973  -43.1859 H         1 UNK         0.0600 
    171 H171       -1.6802  -11.9033  -41.4155 H         1 UNK         0.0600 
    172 H172       -0.0561  -11.4104  -40.9514 H         1 UNK         0.0600 
    173 H173       -0.6835  -11.0087  -42.5507 H         1 UNK         0.0600 
    174 H174        1.6091  -11.9425  -42.7711 H         1 UNK         0.3000 
    175 H175        3.2795  -12.3908  -44.4407 H         1 UNK         0.0600 
    176 H176        4.5076  -14.2763  -42.3408 H         1 UNK         0.0600 
    177 H177        5.3677  -12.9916  -43.1881 H         1 UNK         0.0600 
    178 H178        4.0734  -12.5924  -42.0728 H         1 UNK         0.0600 
    179 H179        4.5519  -14.9933  -44.6673 H         1 UNK         0.3000 
    180 H180        4.9501  -15.7452  -46.8874 H         1 UNK         0.0600 
    181 H181        2.0954  -16.8878  -46.6395 H         1 UNK         0.0600 
    182 H182        3.4234  -17.1902  -45.5328 H         1 UNK         0.0600 
    183 H183        3.5004  -17.8110  -47.1693 H         1 UNK         0.0600 
    184 H184        2.8351  -14.7734  -48.6081 H         1 UNK         0.3000 
    185 H185        4.6160  -15.0958  -51.4158 H         1 UNK         0.0600 
    186 H186        4.1938  -17.5409  -51.7027 H         1 UNK         0.0600 
    187 H187        2.5204  -17.3251  -51.2089 H         1 UNK         0.0600 
    188 H188        3.1079  -16.5899  -52.6995 H         1 UNK         0.0600 
    189 H189        1.7632  -15.0006  -51.2408 H         1 UNK         0.3000 
    190 H190       -1.5735  -21.6713  -45.4825 H         1 UNK         0.3000 
    191 H191       -3.0205  -22.3382  -47.7635 H         1 UNK         0.0600 
    192 H192       -3.7921  -22.6485  -44.8119 H         1 UNK         0.0600 
    193 H193       -4.9235  -22.5918  -46.1603 H         1 UNK         0.0600 
    194 H194       -3.9564  -21.1811  -45.7729 H         1 UNK         0.0600 
    195 H195       -1.3600  -24.6046  -45.6455 H         1 UNK         0.3000 
    196 H196       -2.9219  -26.9354  -46.4366 H         1 UNK         0.0600 
    197 H197       -1.6502  -26.8257  -44.2733 H         1 UNK         0.0600 
    198 H198       -0.1359  -26.7664  -45.1763 H         1 UNK         0.0600 
    199 H199       -1.1621  -28.1895  -45.2689 H         1 UNK         0.0600 
    200 H200       -0.1717  -25.1335  -47.7275 H         1 UNK         0.3000 
    201 H201        0.5391  -27.2066  -49.7086 H         1 UNK         0.0600 
    202 H202        2.3594  -25.8577  -48.6755 H         1 UNK         0.0600 
    203 H203        1.6340  -24.3725  -49.2851 H         1 UNK         0.0600 
    204 H204        2.2581  -25.5729  -50.4060 H         1 UNK         0.0600 
    205 H205       -0.8524  -23.9024  -49.5395 H         1 UNK         0.3000 
    206 H206       -1.7957  -23.9553  -52.3236 H         1 UNK         0.0600 
    207 H207       -2.6061  -21.6676  -51.7635 H         1 UNK         0.0600 
    208 H208       -2.1315  -21.8988  -50.0869 H         1 UNK         0.0600 
    209 H209       -0.9107  -21.8588  -51.3636 H         1 UNK         0.0600 
    210 H210       -2.8168  -26.1170  -51.2252 H         1 UNK         0.3000 
    211 H211       -5.0880  -26.0722  -49.6502 H         1 UNK         0.0600 
    212 H212       -4.2905  -28.0707  -51.8343 H         1 UNK         0.0600 
    213 H213       -5.4535  -28.3852  -50.5512 H         1 UNK         0.0600 
    214 H214       -3.7663  -28.1046  -50.1502 H         1 UNK         0.0600 
    215 H215       -7.2532  -26.0573  -49.9327 H         1 UNK         0.3000 
    216 H216       -9.2371  -25.4394  -50.6507 H         1 UNK         0.0600 
    217 H217      -10.0357  -26.0615  -52.8793 H         1 UNK         0.0600 
    218 H218       -9.0048  -27.3452  -52.2708 H         1 UNK         0.0600 
    219 H219       -8.3965  -26.2242  -53.4885 H         1 UNK         0.0600 
    220 H220       -7.1065  -23.5094  -50.4660 H         1 UNK         0.3000 
    221 H221       -6.7118  -21.3439  -50.6263 H         1 UNK         0.0600 
    222 H222       -9.5789  -21.0789  -51.6820 H         1 UNK         0.0600 
    223 H223       -9.0944  -21.0665  -49.9866 H         1 UNK         0.0600 
    224 H224       -8.5854  -19.7740  -51.0590 H         1 UNK         0.0600 
    225 H225       -5.3557  -22.5642  -52.4119 H         1 UNK         0.3000 
    226 H226       -5.8909  -21.8694  -55.1650 H         1 UNK         0.0600 
    227 H227       -3.6853  -22.9112  -55.5721 H         1 UNK         0.0600 
    228 H228       -3.3289  -22.9129  -53.8526 H         1 UNK         0.0600 
    229 H229       -4.6286  -23.9218  -54.4876 H         1 UNK         0.0600 
    230 H230       -5.1044  -20.2442  -56.3908 H         1 UNK         0.3000 
    231 H231       -4.2954  -18.2875  -57.0405 H         1 UNK         0.0600 
    232 H232       -2.2297  -19.6594  -57.1171 H         1 UNK         0.0600 
    233 H233       -1.8153  -19.1965  -55.4731 H         1 UNK         0.0600 
    234 H234       -1.8371  -17.9903  -56.7625 H         1 UNK         0.0600 
    235 H235       -2.1079  -17.2149  -54.7963 H         1 UNK         0.3000 
    236 H236       -3.5918  -14.9256  -54.0512 H         1 UNK         0.0600 
    237 H237       -1.0981  -15.0215  -54.2903 H         1 UNK         0.0600 
    238 H238       -1.5787  -14.3816  -52.7302 H         1 UNK         0.0600 
    239 H239       -0.9990  -16.0395  -52.8509 H         1 UNK         0.0600 
    240 H240       -3.5550  -18.0721  -52.5882 H         1 UNK         0.3000 
    241 H241       -4.4228  -17.2177  -49.9580 H         1 UNK         0.0600 
    242 H242       -6.1173  -17.4028  -53.0195 H         1 UNK         0.3800 
    243 H243       -7.7122  -17.4103  -52.3147 H         1 UNK         0.3800 
    244 H244       -4.7104  -20.0237  -51.1213 H         1 UNK         0.0800 
    245 H245       -3.1740  -19.4300  -50.6075 H         1 UNK         0.0800 
    246 H246       -3.7173  -18.9782  -46.6626 H         1 UNK         0.0800 
    247 H247       -4.3667  -17.7123  -47.6656 H         1 UNK         0.0800 
@<TRIPOS>BOND
     1    1    2 1    
     2    1  127 1    
     3    1  128 1    
     4    1  129 1    
     5    2    3 2    
     6    2    4 am   BACKBONE|DICT|INTERRES
     7    4    5 1    
     8    4  130 1    
     9    5    6 1    
    10    5   65 1    
    11    5  131 1    
    12    6    7 1    
    13    6  132 1    
    14    6  133 1    
    15    7    8 1    
    16    8    9 1    
    17    8  134 1    
    18    8  135 1    
    19    9   10 ar   
    20    9   14 ar   
    21   10   11 ar   
    22   10  136 1    
    23   11   12 ar   
    24   11  126 1    
    25   12   13 ar   
    26   12  137 1    
    27   13   14 ar   
    28   13   15 1    
    29   14  138 1    
    30   15   16 1    
    31   15  139 1    
    32   15  140 1    
    33   16   17 1    
    34   17   18 1    
    35   17  141 1    
    36   17  142 1    
    37   18   19 1    
    38   18   67 1    
    39   18  143 1    
    40   19   20 am   BACKBONE|DICT|INTERRES
    41   19  144 1    
    42   20   21 2    
    43   20   22 1    
    44   22   23 1    
    45   22   24 1    
    46   22  145 1    
    47   23  146 1    
    48   23  147 1    
    49   23  148 1    
    50   24   25 am   BACKBONE|DICT|INTERRES
    51   24  149 1    
    52   25   26 2    
    53   25   27 1    
    54   27   28 1    
    55   27   29 1    
    56   27  150 1    
    57   28  151 1    
    58   28  152 1    
    59   28  153 1    
    60   29   30 am   BACKBONE|DICT|INTERRES
    61   29  154 1    
    62   30   31 2    
    63   30   32 1    
    64   32   33 1    
    65   32   34 1    
    66   32  155 1    
    67   33  156 1    
    68   33  157 1    
    69   33  158 1    
    70   34   35 am   BACKBONE|DICT|INTERRES
    71   34  159 1    
    72   35   36 2    
    73   35   37 1    
    74   37   38 1    
    75   37   39 1    
    76   37  160 1    
    77   38  161 1    
    78   38  162 1    
    79   38  163 1    
    80   39   40 am   BACKBONE|DICT|INTERRES
    81   39  164 1    
    82   40   41 2    
    83   40   42 1    
    84   42   43 1    
    85   42   44 1    
    86   42  165 1    
    87   43  166 1    
    88   43  167 1    
    89   43  168 1    
    90   44   45 am   BACKBONE|DICT|INTERRES
    91   44  169 1    
    92   45   46 2    
    93   45   47 1    
    94   47   48 1    
    95   47   49 1    
    96   47  170 1    
    97   48  171 1    
    98   48  172 1    
    99   48  173 1    
   100   49   50 am   BACKBONE|DICT|INTERRES
   101   49  174 1    
   102   50   51 2    
   103   50   52 1    
   104   52   53 1    
   105   52   54 1    
   106   52  175 1    
   107   53  176 1    
   108   53  177 1    
   109   53  178 1    
   110   54   55 am   BACKBONE|DICT|INTERRES
   111   54  179 1    
   112   55   56 2    
   113   55   57 1    
   114   57   58 1    
   115   57   59 1    
   116   57  180 1    
   117   58  181 1    
   118   58  182 1    
   119   58  183 1    
   120   59   60 am   BACKBONE|DICT|INTERRES
   121   59  184 1    
   122   60   61 2    
   123   60   62 1    
   124   62   63 1    
   125   62   64 1    
   126   62  185 1    
   127   63  186 1    
   128   63  187 1    
   129   63  188 1    
   130   64   65 am   BACKBONE|DICT|INTERRES
   131   64  189 1    
   132   65   66 2    
   133   67   68 2    
   134   67   69 am   BACKBONE|DICT|INTERRES
   135   69   70 1    
   136   69  190 1    
   137   70   71 1    
   138   70   72 1    
   139   70  191 1    
   140   71  192 1    
   141   71  193 1    
   142   71  194 1    
   143   72   73 2    
   144   72   74 am   BACKBONE|DICT|INTERRES
   145   74   75 1    
   146   74  195 1    
   147   75   76 1    
   148   75   77 1    
   149   75  196 1    
   150   76  197 1    
   151   76  198 1    
   152   76  199 1    
   153   77   78 2    
   154   77   79 am   BACKBONE|DICT|INTERRES
   155   79   80 1    
   156   79  200 1    
   157   80   81 1    
   158   80   82 1    
   159   80  201 1    
   160   81  202 1    
   161   81  203 1    
   162   81  204 1    
   163   82   83 2    
   164   82   84 am   BACKBONE|DICT|INTERRES
   165   84   85 1    
   166   84  205 1    
   167   85   86 1    
   168   85   87 1    
   169   85  206 1    
   170   86  207 1    
   171   86  208 1    
   172   86  209 1    
   173   87   88 2    
   174   87   89 am   BACKBONE|DICT|INTERRES
   175   89   90 1    
   176   89  210 1    
   177   90   91 1    
   178   90   92 1    
   179   90  211 1    
   180   91  212 1    
   181   91  213 1    
   182   91  214 1    
   183   92   93 2    
   184   92   94 am   BACKBONE|DICT|INTERRES
   185   94   95 1    
   186   94  215 1    
   187   95   96 1    
   188   95   97 1    
   189   95  216 1    
   190   96  217 1    
   191   96  218 1    
   192   96  219 1    
   193   97   98 2    
   194   97   99 am   BACKBONE|DICT|INTERRES
   195   99  100 1    
   196   99  220 1    
   197  100  101 1    
   198  100  102 1    
   199  100  221 1    
   200  101  222 1    
   201  101  223 1    
   202  101  224 1    
   203  102  103 2    
   204  102  104 am   BACKBONE|DICT|INTERRES
   205  104  105 1    
   206  104  225 1    
   207  105  106 1    
   208  105  107 1    
   209  105  226 1    
   210  106  227 1    
   211  106  228 1    
   212  106  229 1    
   213  107  108 2    
   214  107  109 am   BACKBONE|DICT|INTERRES
   215  109  110 1    
   216  109  230 1    
   217  110  111 1    
   218  110  112 1    
   219  110  231 1    
   220  111  232 1    
   221  111  233 1    
   222  111  234 1    
   223  112  113 2    
   224  112  114 am   BACKBONE|DICT|INTERRES
   225  114  115 1    
   226  114  235 1    
   227  115  116 1    
   228  115  117 1    
   229  115  236 1    
   230  116  237 1    
   231  116  238 1    
   232  116  239 1    
   233  117  118 2    
   234  117  119 am   BACKBONE|DICT|INTERRES
   235  119  120 1    
   236  119  240 1    
   237  120  121 1    
   238  120  124 1    
   239  120  241 1    
   240  121  122 am   BACKBONE|DICT|INTERRES
   241  121  123 2    
   242  122  242 1    
   243  122  243 1    
   244  124  125 1    
   245  124  244 1    
   246  124  245 1    
   247  125  126 1    
   248  126  246 1    
   249  126  247 1    
@<TRIPOS>SUBSTRUCTURE
     1 UNK         1 GROUP             0       ****    0 ROOT    
