@<TRIPOS>MOLECULE
3R540
247   249    1
SMALL
USER_CHARGES


@<TRIPOS>ATOM
      1 CA          0.0719  -14.5686  -41.8019 C.3       0 UNK        -0.1800 
      2 C           0.4127  -14.0356  -43.1847 C.2       0 UNK         0.5000 
      3 O           1.2522  -13.1437  -43.3076 O.2       0 UNK        -0.5000 
      4 N          -0.2615  -14.5539  -44.2174 N.am      1 UNK        -0.5000 
      5 CA         -0.1285  -14.1082  -45.6056 C.3       1 UNK         0.1400 
      6 C6         -1.3563  -14.5302  -46.4540 C.3       23 UNK        -0.0398 
      7 S7         -1.6418  -13.3849  -47.8480 S.3       23 UNK        -0.2404 
      8 C8         -3.4098  -13.6413  -48.1927 C.3       23 UNK        -0.0205 
      9 C9         -3.6250  -14.7535  -49.2065 C.ar      23 UNK        -0.0193 
     10 C10        -3.8258  -14.4441  -50.5545 C.ar      23 UNK        -0.1150 
     11 C11        -4.0411  -15.4577  -51.4925 C.ar      23 UNK        -0.0193 
     12 C12        -4.0471  -16.7912  -51.0745 C.ar      23 UNK        -0.1150 
     13 C13        -3.8430  -17.1137  -49.7300 C.ar      23 UNK        -0.0193 
     14 C14        -3.6373  -16.0899  -48.8004 C.ar      23 UNK        -0.1150 
     15 C15        -3.8325  -18.5628  -49.2740 C.3       23 UNK        -0.0205 
     16 S16        -5.3970  -18.9935  -48.4505 S.3       23 UNK        -0.2404 
     17 C17        -5.1259  -20.7050  -47.8660 C.3       23 UNK        -0.0398 
     18 CA         -3.7630  -20.9816  -47.1819 C.3       11 UNK         0.1400 
     19 N          -3.4185  -19.9811  -46.1655 N.am      11 UNK        -0.5000 
     20 C          -2.2498  -19.9236  -45.5131 C.2       10 UNK         0.5000 
     21 O          -1.3510  -20.7472  -45.6765 O.2       10 UNK        -0.5000 
     22 CA         -2.0555  -18.7931  -44.4830 C.3       10 UNK         0.1400 
     23 CB         -3.0679  -17.6365  -44.6271 C.3       10 UNK        -0.1800 
     24 N          -2.0519  -19.2821  -43.1008 N.am      10 UNK        -0.5000 
     25 C          -2.9794  -20.0451  -42.4962 C.2       9 UNK         0.5000 
     26 O          -3.9477  -20.5340  -43.0806 O.2       9 UNK        -0.5000 
     27 CA         -2.8160  -20.3099  -40.9828 C.3       9 UNK         0.1400 
     28 CB         -2.5268  -21.7908  -40.6954 C.3       9 UNK        -0.1800 
     29 N          -1.7721  -19.4964  -40.3570 N.am      9 UNK        -0.5000 
     30 C          -1.9174  -18.2101  -40.0121 C.2       8 UNK         0.5000 
     31 O          -2.9634  -17.5772  -40.1576 O.2       8 UNK        -0.5000 
     32 CA         -0.6851  -17.5051  -39.4133 C.3       8 UNK         0.1400 
     33 CB         -0.7491  -17.5338  -37.8786 C.3       8 UNK        -0.1800 
     34 N           0.6110  -18.0427  -39.8435 N.am      8 UNK        -0.5000 
     35 C           1.0570  -18.1014  -41.1054 C.2       7 UNK         0.5000 
     36 O           0.3705  -17.8340  -42.0943 O.2       7 UNK        -0.5000 
     37 CA          2.5173  -18.5475  -41.2918 C.3       7 UNK         0.1400 
     38 CB          2.5832  -19.9331  -41.9457 C.3       7 UNK        -0.1800 
     39 N           3.2609  -17.5872  -42.1075 N.am      7 UNK        -0.5000 
     40 C           3.6182  -16.3646  -41.6811 C.2       6 UNK         0.5000 
     41 O           3.3746  -15.9592  -40.5433 O.2       6 UNK        -0.5000 
     42 CA          4.3868  -15.4427  -42.6491 C.3       6 UNK         0.1400 
     43 CB          5.5800  -14.7538  -41.9550 C.3       6 UNK        -0.1800 
     44 N           4.8479  -16.1555  -43.8373 N.am      6 UNK        -0.5000 
     45 C           5.1645  -15.6005  -45.0095 C.2       5 UNK         0.5000 
     46 O           5.1267  -14.3897  -45.2296 O.2       5 UNK        -0.5000 
     47 CA          5.6077  -16.5619  -46.1285 C.3       5 UNK         0.1400 
     48 CB          6.8852  -17.3368  -45.7485 C.3       5 UNK        -0.1800 
     49 N           4.5481  -17.4672  -46.5866 N.am      5 UNK        -0.5000 
     50 C           3.9041  -18.4298  -45.9079 C.2       4 UNK         0.5000 
     51 O           4.1280  -18.7086  -44.7277 O.2       4 UNK        -0.5000 
     52 CA          2.8201  -19.1923  -46.6900 C.3       4 UNK         0.1400 
     53 CB          1.8496  -19.9675  -45.7872 C.3       4 UNK        -0.1800 
     54 N           2.0726  -18.2632  -47.5337 N.am      4 UNK        -0.5000 
     55 C           1.7849  -18.4584  -48.8276 C.2       3 UNK         0.5000 
     56 O           2.0204  -19.5050  -49.4312 O.2       3 UNK        -0.5000 
     57 CA          1.1582  -17.2742  -49.5951 C.3       3 UNK         0.1400 
     58 CB         -0.3715  -17.4057  -49.6071 C.3       3 UNK        -0.1800 
     59 N           1.5011  -15.9552  -49.0576 N.am      3 UNK        -0.5000 
     60 C           2.7338  -15.4690  -48.8494 C.2       2 UNK         0.5000 
     61 O           3.7672  -16.0537  -49.1757 O.2       2 UNK        -0.5000 
     62 CA          2.8316  -14.1362  -48.0803 C.3       2 UNK         0.1400 
     63 CB          3.0521  -12.9707  -49.0556 C.3       2 UNK        -0.1800 
     64 N           1.6657  -13.8399  -47.2404 N.am      2 UNK        -0.5000 
     65 C           1.1855  -14.6019  -46.2463 C.2       1 UNK         0.5000 
     66 O           1.6823  -15.6777  -45.9002 O.2       1 UNK        -0.5000 
     67 C          -3.7200  -22.4279  -46.6445 C.2       11 UNK         0.5000 
     68 O          -3.3771  -23.3344  -47.4021 O.2       11 UNK        -0.5000 
     69 N          -4.0234  -22.6222  -45.3524 N.am      12 UNK        -0.5000 
     70 CA         -3.9442  -23.9252  -44.6913 C.3       12 UNK         0.1400 
     71 CB         -4.8180  -23.9218  -43.4303 C.3       12 UNK        -0.1800 
     72 C          -2.4956  -24.3448  -44.3758 C.2       12 UNK         0.5000 
     73 O          -2.2002  -25.5390  -44.4172 O.2       12 UNK        -0.5000 
     74 N          -1.6007  -23.3738  -44.1309 N.am      13 UNK        -0.5000 
     75 CA         -0.1558  -23.6095  -44.0116 C.3       13 UNK         0.1400 
     76 CB          0.5353  -22.4083  -43.3482 C.3       13 UNK        -0.1800 
     77 C           0.4857  -23.9331  -45.3739 C.2       13 UNK         0.5000 
     78 O           1.4130  -24.7398  -45.4363 O.2       13 UNK        -0.5000 
     79 N          -0.0696  -23.3511  -46.4453 N.am      14 UNK        -0.5000 
     80 CA          0.2363  -23.6699  -47.8412 C.3       14 UNK         0.1400 
     81 CB         -0.1567  -22.4714  -48.7195 C.3       14 UNK        -0.1800 
     82 C          -0.4457  -24.9651  -48.3418 C.2       14 UNK         0.5000 
     83 O          -0.3678  -25.2566  -49.5355 O.2       14 UNK        -0.5000 
     84 N          -1.1273  -25.7037  -47.4502 N.am      15 UNK        -0.5000 
     85 CA         -1.8181  -26.9790  -47.6827 C.3       15 UNK         0.1400 
     86 CB         -0.7925  -28.0975  -47.9600 C.3       15 UNK        -0.1800 
     87 C          -2.9208  -26.9008  -48.7611 C.2       15 UNK         0.5000 
     88 O          -3.1597  -27.8777  -49.4726 O.2       15 UNK        -0.5000 
     89 N          -3.5525  -25.7235  -48.8735 N.am      16 UNK        -0.5000 
     90 CA         -4.5679  -25.3267  -49.8521 C.3       16 UNK         0.1400 
     91 CB         -5.8400  -26.1882  -49.7201 C.3       16 UNK        -0.1800 
     92 C          -4.0584  -25.2444  -51.3074 C.2       16 UNK         0.5000 
     93 O          -4.8718  -25.0591  -52.2124 O.2       16 UNK        -0.5000 
     94 N          -2.7377  -25.3352  -51.5282 N.am      17 UNK        -0.5000 
     95 CA         -2.1254  -25.2309  -52.8556 C.3       17 UNK         0.1400 
     96 CB         -0.7035  -25.8099  -52.8131 C.3       17 UNK        -0.1800 
     97 C          -2.1046  -23.7823  -53.3761 C.2       17 UNK         0.5000 
     98 O          -2.2192  -23.5667  -54.5827 O.2       17 UNK        -0.5000 
     99 N          -1.9734  -22.8192  -52.4536 N.am      18 UNK        -0.5000 
    100 CA        -1.9551  -21.3857  -52.7469 C.3       18 UNK         0.1400 
    101 CB        -1.0488  -20.6791  -51.7282 C.3       18 UNK        -0.1800 
    102 C         -3.3569  -20.7476  -52.7384 C.2       18 UNK         0.5000 
    103 O         -3.4728  -19.5727  -53.0864 O.2       18 UNK        -0.5000 
    104 N         -4.3892  -21.4972  -52.3224 N.am      19 UNK        -0.5000 
    105 CA        -5.7733  -21.0349  -52.1982 C.3       19 UNK         0.1400 
    106 CB        -6.6415  -22.1640  -51.6209 C.3       19 UNK        -0.1800 
    107 C         -6.3312  -20.5277  -53.5421 C.2       19 UNK         0.5000 
    108 O         -6.5252  -21.3237  -54.4626 O.2       19 UNK        -0.5000 
    109 N         -6.5262  -19.2038  -53.6276 N.am      20 UNK        -0.5000 
    110 CA        -6.9497  -18.4375  -54.8061 C.3       20 UNK         0.1400 
    111 CB        -8.3799  -18.8286  -55.2338 C.3       20 UNK        -0.1800 
    112 C         -5.9477  -18.4720  -55.9844 C.2       20 UNK         0.5000 
    113 O         -6.3274  -18.1494  -57.1115 O.2       20 UNK        -0.5000 
    114 N         -4.6790  -18.8199  -55.7173 N.am      21 UNK        -0.5000 
    115 CA        -3.6112  -18.8923  -56.7223 C.3       21 UNK         0.1400 
    116 CB        -2.4716  -19.7736  -56.1892 C.3       21 UNK        -0.1800 
    117 C         -3.0709  -17.5115  -57.1469 C.2       21 UNK         0.5000 
    118 O         -2.3326  -17.4292  -58.1294 O.2       21 UNK        -0.5000 
    119 N         -3.4383  -16.4595  -56.4043 N.am      22 UNK        -0.5000 
    120 CA        -3.0481  -15.0602  -56.6423 C.3       22 UNK         0.1400 
    121 C         -3.6197  -14.4295  -57.9483 C.2       22 UNK         0.5000 
    122 N         -4.6262  -15.0141  -58.5877 N.am      22 UNK        -0.7600 
    123 O         -3.1392  -13.3884  -58.3881 O.2       22 UNK        -0.5000 
    124 C124       -3.3822  -14.1532  -55.4292 C.3       23 UNK        -0.0398 
    125 S125       -2.7358  -14.7737  -53.8359 S.3       23 UNK        -0.2404 
    126 C126       -4.2903  -15.1034  -52.9493 C.3       23 UNK        -0.0205 
    127 H127        0.9472  -15.0268  -41.3455 H         1 UNK         0.0600 
    128 H128       -0.7232  -15.3130  -41.8450 H         1 UNK         0.0600 
    129 H129       -0.2611  -13.7553  -41.1574 H         1 UNK         0.0600 
    130 H130       -0.8917  -15.3246  -44.0549 H         1 UNK         0.3000 
    131 H131       -0.0937  -13.0163  -45.5752 H         1 UNK         0.0600 
    132 H132       -2.2520  -14.5158  -45.8314 H         1 UNK         0.0800 
    133 H133       -1.2655  -15.5529  -46.8244 H         1 UNK         0.0800 
    134 H134       -3.8248  -12.7074  -48.5750 H         1 UNK         0.0800 
    135 H135       -3.9569  -13.8554  -47.2737 H         1 UNK         0.0800 
    136 H136       -3.8183  -13.4121  -50.8764 H         1 UNK         0.1150 
    137 H137       -4.2126  -17.5758  -51.7961 H         1 UNK         0.1150 
    138 H138       -3.4887  -16.3350  -47.7597 H         1 UNK         0.1150 
    139 H139       -3.6666  -19.2330  -50.1180 H         1 UNK         0.0800 
    140 H140       -2.9927  -18.7014  -48.5939 H         1 UNK         0.0800 
    141 H141       -5.2521  -21.3697  -48.7220 H         1 UNK         0.0800 
    142 H142       -5.9447  -20.9379  -47.1826 H         1 UNK         0.0800 
    143 H143       -2.9896  -20.9265  -47.9493 H         1 UNK         0.0600 
    144 H144       -4.1282  -19.2941  -45.9562 H         1 UNK         0.3000 
    145 H145       -1.0607  -18.3847  -44.6675 H         1 UNK         0.0600 
    146 H146       -2.8190  -16.8187  -43.9508 H         1 UNK         0.0600 
    147 H147       -3.0616  -17.2300  -45.6382 H         1 UNK         0.0600 
    148 H148       -4.0870  -17.9495  -44.3970 H         1 UNK         0.0600 
    149 H149       -1.2778  -18.9407  -42.5405 H         1 UNK         0.3000 
    150 H150       -3.7702  -20.0642  -40.5119 H         1 UNK         0.0600 
    151 H151       -3.3717  -22.4154  -40.9795 H         1 UNK         0.0600 
    152 H152       -2.3529  -21.9613  -39.6328 H         1 UNK         0.0600 
    153 H153       -1.6560  -22.1495  -41.2391 H         1 UNK         0.0600 
    154 H154       -0.8779  -19.9376  -40.2009 H         1 UNK         0.3000 
    155 H155       -0.7268  -16.4620  -39.7295 H         1 UNK         0.0600 
    156 H156       -0.6729  -18.5509  -37.4919 H         1 UNK         0.0600 
    157 H157       -1.6895  -17.1150  -37.5174 H         1 UNK         0.0600 
    158 H158        0.0557  -16.9447  -37.4383 H         1 UNK         0.0600 
    159 H159        1.2472  -18.2927  -39.1000 H         1 UNK         0.3000 
    160 H160        3.0020  -18.6134  -40.3153 H         1 UNK         0.0600 
    161 H161        2.0923  -19.9348  -42.9173 H         1 UNK         0.0600 
    162 H162        2.0906  -20.6821  -41.3249 H         1 UNK         0.0600 
    163 H163        3.6143  -20.2553  -42.0916 H         1 UNK         0.0600 
    164 H164        3.4372  -17.8671  -43.0658 H         1 UNK         0.3000 
    165 H165        3.6769  -14.6752  -42.9640 H         1 UNK         0.0600 
    166 H166        6.0805  -14.0518  -42.6218 H         1 UNK         0.0600 
    167 H167        5.2567  -14.1854  -41.0822 H         1 UNK         0.0600 
    168 H168        6.3192  -15.4819  -41.6197 H         1 UNK         0.0600 
    169 H169        4.8700  -17.1685  -43.7856 H         1 UNK         0.3000 
    170 H170        5.8544  -15.9408  -46.9912 H         1 UNK         0.0600 
    171 H171        7.6837  -16.6513  -45.4618 H         1 UNK         0.0600 
    172 H172        6.7252  -18.0172  -44.9120 H         1 UNK         0.0600 
    173 H173        7.2502  -17.9254  -46.5901 H         1 UNK         0.0600 
    174 H174        4.2509  -17.3016  -47.5419 H         1 UNK         0.3000 
    175 H175        3.3546  -19.9160  -47.3085 H         1 UNK         0.0600 
    176 H176        1.2911  -19.3011  -45.1290 H         1 UNK         0.0600 
    177 H177        1.1341  -20.5301  -46.3838 H         1 UNK         0.0600 
    178 H178        2.3824  -20.6888  -45.1675 H         1 UNK         0.0600 
    179 H179        1.8603  -17.3655  -47.1085 H         1 UNK         0.3000 
    180 H180        1.5215  -17.3191  -50.6235 H         1 UNK         0.0600 
    181 H181       -0.8303  -16.6499  -50.2456 H         1 UNK         0.0600 
    182 H182       -0.7901  -17.2996  -48.6059 H         1 UNK         0.0600 
    183 H183       -0.6804  -18.3795  -49.9845 H         1 UNK         0.0600 
    184 H184        0.7236  -15.3822  -48.7657 H         1 UNK         0.3000 
    185 H185        3.7011  -14.2031  -47.4265 H         1 UNK         0.0600 
    186 H186        3.2182  -12.0349  -48.5216 H         1 UNK         0.0600 
    187 H187        3.9284  -13.1447  -49.6817 H         1 UNK         0.0600 
    188 H188        2.1967  -12.8334  -49.7184 H         1 UNK         0.0600 
    189 H189        1.1682  -12.9912  -47.4712 H         1 UNK         0.3000 
    190 H190       -4.2453  -21.8239  -44.7666 H         1 UNK         0.3000 
    191 H191       -4.3539  -24.6791  -45.3675 H         1 UNK         0.0600 
    192 H192       -4.7399  -24.8682  -42.8937 H         1 UNK         0.0600 
    193 H193       -5.8683  -23.7775  -43.6837 H         1 UNK         0.0600 
    194 H194       -4.5325  -23.1277  -42.7445 H         1 UNK         0.0600 
    195 H195       -1.8986  -22.4098  -44.1905 H         1 UNK         0.3000 
    196 H196        0.0017  -24.4776  -43.3678 H         1 UNK         0.0600 
    197 H197        0.2655  -21.4647  -43.8193 H         1 UNK         0.0600 
    198 H198        0.2834  -22.3399  -42.2923 H         1 UNK         0.0600 
    199 H199        1.6205  -22.5029  -43.4042 H         1 UNK         0.0600 
    200 H200       -0.7785  -22.6435  -46.2874 H         1 UNK         0.3000 
    201 H201        1.3140  -23.8164  -47.9350 H         1 UNK         0.0600 
    202 H202        0.2984  -21.5472  -48.3644 H         1 UNK         0.0600 
    203 H203       -1.2358  -22.3273  -48.7431 H         1 UNK         0.0600 
    204 H204        0.1781  -22.6184  -49.7466 H         1 UNK         0.0600 
    205 H205       -1.1675  -25.3654  -46.4986 H         1 UNK         0.3000 
    206 H206       -2.3279  -27.2227  -46.7497 H         1 UNK         0.0600 
    207 H207       -0.0353  -28.1401  -47.1771 H         1 UNK         0.0600 
    208 H208       -1.2759  -29.0745  -47.9946 H         1 UNK         0.0600 
    209 H209       -0.2824  -27.9505  -48.9126 H         1 UNK         0.0600 
    210 H210       -3.2772  -24.9742  -48.2410 H         1 UNK         0.3000 
    211 H211       -4.8427  -24.3062  -49.5830 H         1 UNK         0.0600 
    212 H212       -6.6518  -25.7819  -50.3246 H         1 UNK         0.0600 
    213 H213       -6.1905  -26.2181  -48.6884 H         1 UNK         0.0600 
    214 H214       -5.6729  -27.2140  -50.0492 H         1 UNK         0.0600 
    215 H215       -2.1085  -25.4776  -50.7456 H         1 UNK         0.3000 
    216 H216       -2.7119  -25.8305  -53.5551 H         1 UNK         0.0600 
    217 H217       -0.0440  -25.2171  -52.1786 H         1 UNK         0.0600 
    218 H218       -0.2631  -25.8310  -53.8106 H         1 UNK         0.0600 
    219 H219       -0.7036  -26.8324  -52.4347 H         1 UNK         0.0600 
    220 H220       -1.8734  -23.0920  -51.4871 H         1 UNK         0.3000 
    221 H221       -1.5274  -21.2258  -53.7382 H         1 UNK         0.0600 
    222 H222       -0.0477  -21.1103  -51.7191 H         1 UNK         0.0600 
    223 H223       -1.4534  -20.7366  -50.7174 H         1 UNK         0.0600 
    224 H224       -0.9393  -19.6235  -51.9793 H         1 UNK         0.0600 
    225 H225       -4.2225  -22.4736  -52.1324 H         1 UNK         0.3000 
    226 H226       -5.7800  -20.2121  -51.4801 H         1 UNK         0.0600 
    227 H227       -6.6741  -23.0277  -52.2859 H         1 UNK         0.0600 
    228 H228       -6.2685  -22.4997  -50.6540 H         1 UNK         0.0600 
    229 H229       -7.6682  -21.8271  -51.4734 H         1 UNK         0.0600 
    230 H230       -6.3059  -18.6455  -52.8151 H         1 UNK         0.3000 
    231 H231       -6.9836  -17.3959  -54.4836 H         1 UNK         0.0600 
    232 H232       -8.4186  -19.8359  -55.6492 H         1 UNK         0.0600 
    233 H233       -8.7614  -18.1482  -55.9959 H         1 UNK         0.0600 
    234 H234       -9.0695  -18.7862  -54.3908 H         1 UNK         0.0600 
    235 H235       -4.4185  -19.0575  -54.7646 H         1 UNK         0.3000 
    236 H236       -4.0138  -19.3719  -57.6169 H         1 UNK         0.0600 
    237 H237       -1.9840  -19.3180  -55.3268 H         1 UNK         0.0600 
    238 H238       -2.8368  -20.7581  -55.8957 H         1 UNK         0.0600 
    239 H239       -1.7069  -19.9269  -56.9516 H         1 UNK         0.0600 
    240 H240       -4.0229  -16.6296  -55.6014 H         1 UNK         0.3000 
    241 H241       -1.9629  -15.0574  -56.7604 H         1 UNK         0.0600 
    242 H242       -4.9858  -14.5987  -59.4329 H         1 UNK         0.3800 
    243 H243       -5.0283  -15.8714  -58.2401 H         1 UNK         0.3800 
    244 H244       -4.4617  -14.0113  -55.3542 H         1 UNK         0.0800 
    245 H245       -2.9627  -13.1570  -55.5810 H         1 UNK         0.0800 
    246 H246       -4.9327  -14.2226  -52.9975 H         1 UNK         0.0800 
    247 H247       -4.8303  -15.9083  -53.4498 H         1 UNK         0.0800 
@<TRIPOS>BOND
     1    1    2 1    
     2    1  127 1    
     3    1  128 1    
     4    1  129 1    
     5    2    3 2    
     6    2    4 am   BACKBONE|DICT|INTERRES
     7    4    5 1    
     8    4  130 1    
     9    5    6 1    
    10    5   65 1    
    11    5  131 1    
    12    6    7 1    
    13    6  132 1    
    14    6  133 1    
    15    7    8 1    
    16    8    9 1    
    17    8  134 1    
    18    8  135 1    
    19    9   10 ar   
    20    9   14 ar   
    21   10   11 ar   
    22   10  136 1    
    23   11   12 ar   
    24   11  126 1    
    25   12   13 ar   
    26   12  137 1    
    27   13   14 ar   
    28   13   15 1    
    29   14  138 1    
    30   15   16 1    
    31   15  139 1    
    32   15  140 1    
    33   16   17 1    
    34   17   18 1    
    35   17  141 1    
    36   17  142 1    
    37   18   19 1    
    38   18   67 1    
    39   18  143 1    
    40   19   20 am   BACKBONE|DICT|INTERRES
    41   19  144 1    
    42   20   21 2    
    43   20   22 1    
    44   22   23 1    
    45   22   24 1    
    46   22  145 1    
    47   23  146 1    
    48   23  147 1    
    49   23  148 1    
    50   24   25 am   BACKBONE|DICT|INTERRES
    51   24  149 1    
    52   25   26 2    
    53   25   27 1    
    54   27   28 1    
    55   27   29 1    
    56   27  150 1    
    57   28  151 1    
    58   28  152 1    
    59   28  153 1    
    60   29   30 am   BACKBONE|DICT|INTERRES
    61   29  154 1    
    62   30   31 2    
    63   30   32 1    
    64   32   33 1    
    65   32   34 1    
    66   32  155 1    
    67   33  156 1    
    68   33  157 1    
    69   33  158 1    
    70   34   35 am   BACKBONE|DICT|INTERRES
    71   34  159 1    
    72   35   36 2    
    73   35   37 1    
    74   37   38 1    
    75   37   39 1    
    76   37  160 1    
    77   38  161 1    
    78   38  162 1    
    79   38  163 1    
    80   39   40 am   BACKBONE|DICT|INTERRES
    81   39  164 1    
    82   40   41 2    
    83   40   42 1    
    84   42   43 1    
    85   42   44 1    
    86   42  165 1    
    87   43  166 1    
    88   43  167 1    
    89   43  168 1    
    90   44   45 am   BACKBONE|DICT|INTERRES
    91   44  169 1    
    92   45   46 2    
    93   45   47 1    
    94   47   48 1    
    95   47   49 1    
    96   47  170 1    
    97   48  171 1    
    98   48  172 1    
    99   48  173 1    
   100   49   50 am   BACKBONE|DICT|INTERRES
   101   49  174 1    
   102   50   51 2    
   103   50   52 1    
   104   52   53 1    
   105   52   54 1    
   106   52  175 1    
   107   53  176 1    
   108   53  177 1    
   109   53  178 1    
   110   54   55 am   BACKBONE|DICT|INTERRES
   111   54  179 1    
   112   55   56 2    
   113   55   57 1    
   114   57   58 1    
   115   57   59 1    
   116   57  180 1    
   117   58  181 1    
   118   58  182 1    
   119   58  183 1    
   120   59   60 am   BACKBONE|DICT|INTERRES
   121   59  184 1    
   122   60   61 2    
   123   60   62 1    
   124   62   63 1    
   125   62   64 1    
   126   62  185 1    
   127   63  186 1    
   128   63  187 1    
   129   63  188 1    
   130   64   65 am   BACKBONE|DICT|INTERRES
   131   64  189 1    
   132   65   66 2    
   133   67   68 2    
   134   67   69 am   BACKBONE|DICT|INTERRES
   135   69   70 1    
   136   69  190 1    
   137   70   71 1    
   138   70   72 1    
   139   70  191 1    
   140   71  192 1    
   141   71  193 1    
   142   71  194 1    
   143   72   73 2    
   144   72   74 am   BACKBONE|DICT|INTERRES
   145   74   75 1    
   146   74  195 1    
   147   75   76 1    
   148   75   77 1    
   149   75  196 1    
   150   76  197 1    
   151   76  198 1    
   152   76  199 1    
   153   77   78 2    
   154   77   79 am   BACKBONE|DICT|INTERRES
   155   79   80 1    
   156   79  200 1    
   157   80   81 1    
   158   80   82 1    
   159   80  201 1    
   160   81  202 1    
   161   81  203 1    
   162   81  204 1    
   163   82   83 2    
   164   82   84 am   BACKBONE|DICT|INTERRES
   165   84   85 1    
   166   84  205 1    
   167   85   86 1    
   168   85   87 1    
   169   85  206 1    
   170   86  207 1    
   171   86  208 1    
   172   86  209 1    
   173   87   88 2    
   174   87   89 am   BACKBONE|DICT|INTERRES
   175   89   90 1    
   176   89  210 1    
   177   90   91 1    
   178   90   92 1    
   179   90  211 1    
   180   91  212 1    
   181   91  213 1    
   182   91  214 1    
   183   92   93 2    
   184   92   94 am   BACKBONE|DICT|INTERRES
   185   94   95 1    
   186   94  215 1    
   187   95   96 1    
   188   95   97 1    
   189   95  216 1    
   190   96  217 1    
   191   96  218 1    
   192   96  219 1    
   193   97   98 2    
   194   97   99 am   BACKBONE|DICT|INTERRES
   195   99  100 1    
   196   99  220 1    
   197  100  101 1    
   198  100  102 1    
   199  100  221 1    
   200  101  222 1    
   201  101  223 1    
   202  101  224 1    
   203  102  103 2    
   204  102  104 am   BACKBONE|DICT|INTERRES
   205  104  105 1    
   206  104  225 1    
   207  105  106 1    
   208  105  107 1    
   209  105  226 1    
   210  106  227 1    
   211  106  228 1    
   212  106  229 1    
   213  107  108 2    
   214  107  109 am   BACKBONE|DICT|INTERRES
   215  109  110 1    
   216  109  230 1    
   217  110  111 1    
   218  110  112 1    
   219  110  231 1    
   220  111  232 1    
   221  111  233 1    
   222  111  234 1    
   223  112  113 2    
   224  112  114 am   BACKBONE|DICT|INTERRES
   225  114  115 1    
   226  114  235 1    
   227  115  116 1    
   228  115  117 1    
   229  115  236 1    
   230  116  237 1    
   231  116  238 1    
   232  116  239 1    
   233  117  118 2    
   234  117  119 am   BACKBONE|DICT|INTERRES
   235  119  120 1    
   236  119  240 1    
   237  120  121 1    
   238  120  124 1    
   239  120  241 1    
   240  121  122 am   BACKBONE|DICT|INTERRES
   241  121  123 2    
   242  122  242 1    
   243  122  243 1    
   244  124  125 1    
   245  124  244 1    
   246  124  245 1    
   247  125  126 1    
   248  126  246 1    
   249  126  247 1    
@<TRIPOS>SUBSTRUCTURE
     1 UNK         1 GROUP             0       ****    0 ROOT    
