@<TRIPOS>MOLECULE
3R540
247   249    1
SMALL
USER_CHARGES


@<TRIPOS>ATOM
      1 CA         -0.3950  -11.9606  -43.2080 C.3       0 UNK        -0.1800 
      2 C          -1.5996  -11.8113  -44.1272 C.2       0 UNK         0.5000 
      3 O          -1.6685  -10.8492  -44.8918 O.2       0 UNK        -0.5000 
      4 N          -2.5551  -12.7477  -44.0427 N.am      1 UNK        -0.5000 
      5 CA         -3.7576  -12.7849  -44.8839 C.3       1 UNK         0.1400 
      6 C6         -4.8596  -13.6691  -44.2491 C.3       23 UNK        -0.0398 
      7 S7         -6.5111  -13.3552  -44.9661 S.3       23 UNK        -0.2404 
      8 C8         -7.2188  -15.0317  -45.0932 C.3       23 UNK        -0.0205 
      9 C9         -6.3582  -15.9954  -45.9011 C.ar      23 UNK        -0.0193 
     10 C10        -6.0026  -15.7038  -47.2208 C.ar      23 UNK        -0.1150 
     11 C11        -5.2057  -16.5865  -47.9559 C.ar      23 UNK        -0.0193 
     12 C12        -4.7687  -17.7759  -47.3635 C.ar      23 UNK        -0.1150 
     13 C13        -5.1353  -18.0881  -46.0499 C.ar      23 UNK        -0.0193 
     14 C14        -5.9270  -17.1932  -45.3257 C.ar      23 UNK        -0.1150 
     15 C15        -4.7140  -19.4040  -45.4150 C.3       23 UNK        -0.0205 
     16 S16        -3.4618  -19.1630  -44.1144 S.3       23 UNK        -0.2404 
     17 C17        -3.2588  -20.8860  -43.5490 C.3       23 UNK        -0.0398 
     18 CA         -2.2827  -21.6622  -44.4713 C.3       11 UNK         0.1400 
     19 N          -0.8849  -21.6317  -44.0147 N.am      11 UNK        -0.5000 
     20 C          -0.2968  -22.2680  -42.9931 C.2       10 UNK         0.5000 
     21 O          -0.8914  -23.0062  -42.2081 O.2       10 UNK        -0.5000 
     22 CA          1.2256  -22.0893  -42.8672 C.3       10 UNK         0.1400 
     23 CB          1.9515  -22.5826  -44.1311 C.3       10 UNK        -0.1800 
     24 N           1.5940  -20.7024  -42.6022 N.am      10 UNK        -0.5000 
     25 C           1.4209  -20.0867  -41.4246 C.2       9 UNK         0.5000 
     26 O           0.9654  -20.6366  -40.4211 O.2       9 UNK        -0.5000 
     27 CA          1.8239  -18.6034  -41.3560 C.3       9 UNK         0.1400 
     28 CB          3.3359  -18.4615  -41.1231 C.3       9 UNK        -0.1800 
     29 N           1.4420  -17.8678  -42.5602 N.am      9 UNK        -0.5000 
     30 C           0.1777  -17.5971  -42.9125 C.2       8 UNK         0.5000 
     31 O          -0.7981  -17.8726  -42.2150 O.2       8 UNK        -0.5000 
     32 CA         -0.0306  -16.9007  -44.2698 C.3       8 UNK         0.1400 
     33 CB          0.1120  -15.3791  -44.1146 C.3       8 UNK        -0.1800 
     34 N           0.8962  -17.3710  -45.2995 N.am      8 UNK        -0.5000 
     35 C           0.8919  -18.6045  -45.8246 C.2       7 UNK         0.5000 
     36 O           0.0972  -19.4884  -45.5124 O.2       7 UNK        -0.5000 
     37 CA          1.9923  -18.9217  -46.8475 C.3       7 UNK         0.1400 
     38 CB          1.6027  -18.4073  -48.2408 C.3       7 UNK        -0.1800 
     39 N           3.2859  -18.3705  -46.4472 N.am      7 UNK        -0.5000 
     40 C           3.9881  -18.7950  -45.3860 C.2       6 UNK         0.5000 
     41 O           3.6373  -19.7247  -44.6590 O.2       6 UNK        -0.5000 
     42 CA          5.2724  -18.0135  -45.0562 C.3       6 UNK         0.1400 
     43 CB          6.4427  -18.4999  -45.9237 C.3       6 UNK        -0.1800 
     44 N           5.1053  -16.5693  -45.2286 N.am      6 UNK        -0.5000 
     45 C           4.2957  -15.8080  -44.4786 C.2       5 UNK         0.5000 
     46 O           3.6334  -16.2385  -43.5364 O.2       5 UNK        -0.5000 
     47 CA          4.1659  -14.3281  -44.8798 C.3       5 UNK         0.1400 
     48 CB          5.2643  -13.4877  -44.2124 C.3       5 UNK        -0.1800 
     49 N           4.2025  -14.1179  -46.3295 N.am      5 UNK        -0.5000 
     50 C           3.2840  -14.5853  -47.1840 C.2       4 UNK         0.5000 
     51 O           2.3274  -15.2888  -46.8481 O.2       4 UNK        -0.5000 
     52 CA          3.4869  -14.2440  -48.6645 C.3       4 UNK         0.1400 
     53 CB          4.1072  -15.4336  -49.4138 C.3       4 UNK        -0.1800 
     54 N           2.1821  -13.9345  -49.2377 N.am      4 UNK        -0.5000 
     55 C           1.8611  -12.7848  -49.8424 C.2       3 UNK         0.5000 
     56 O           2.6808  -11.9061  -50.1141 O.2       3 UNK        -0.5000 
     57 CA          0.3771  -12.5558  -50.2020 C.3       3 UNK         0.1400 
     58 CB          0.1673  -12.6101  -51.7231 C.3       3 UNK        -0.1800 
     59 N          -0.5674  -13.4767  -49.5591 N.am      3 UNK        -0.5000 
     60 C          -0.8487  -13.4930  -48.2502 C.2       2 UNK         0.5000 
     61 O          -0.2840  -12.7768  -47.4210 O.2       2 UNK        -0.5000 
     62 CA         -1.9222  -14.5028  -47.8051 C.3       2 UNK         0.1400 
     63 CB         -1.3376  -15.9220  -47.7248 C.3       2 UNK        -0.1800 
     64 N          -2.4802  -14.1296  -46.5059 N.am      2 UNK        -0.5000 
     65 C          -3.4274  -13.1955  -46.3387 C.2       1 UNK         0.5000 
     66 O          -4.0042  -12.6383  -47.2747 O.2       1 UNK        -0.5000 
     67 C          -2.8381  -23.0463  -44.8829 C.2       11 UNK         0.5000 
     68 O          -3.7160  -23.0957  -45.7442 O.2       11 UNK        -0.5000 
     69 N          -2.2879  -24.1467  -44.3517 N.am      12 UNK        -0.5000 
     70 CA         -2.5562  -25.5323  -44.7570 C.3       12 UNK         0.1400 
     71 CB         -1.7653  -26.4802  -43.8439 C.3       12 UNK        -0.1800 
     72 C          -2.2260  -25.8081  -46.2391 C.2       12 UNK         0.5000 
     73 O          -2.8201  -26.7000  -46.8443 O.2       12 UNK        -0.5000 
     74 N          -1.3374  -24.9814  -46.8099 N.am      13 UNK        -0.5000 
     75 CA         -1.0059  -24.8922  -48.2316 C.3       13 UNK         0.1400 
     76 CB          0.1237  -23.8626  -48.3995 C.3       13 UNK        -0.1800 
     77 C          -2.1989  -24.5404  -49.1465 C.2       13 UNK         0.5000 
     78 O          -2.0826  -24.6996  -50.3591 O.2       13 UNK        -0.5000 
     79 N          -3.3297  -24.0851  -48.5824 N.am      14 UNK        -0.5000 
     80 CA         -4.5905  -23.8890  -49.3024 C.3       14 UNK         0.1400 
     81 CB         -5.6133  -23.2204  -48.3738 C.3       14 UNK        -0.1800 
     82 C          -5.1567  -25.1965  -49.8961 C.2       14 UNK         0.5000 
     83 O          -5.8476  -25.1440  -50.9144 O.2       14 UNK        -0.5000 
     84 N          -4.8081  -26.3498  -49.3035 N.am      15 UNK        -0.5000 
     85 CA         -4.9872  -27.6682  -49.9094 C.3       15 UNK         0.1400 
     86 CB         -4.6956  -28.7579  -48.8662 C.3       15 UNK        -0.1800 
     87 C          -4.0607  -27.7976  -51.1339 C.2       15 UNK         0.5000 
     88 O          -2.8408  -27.7282  -50.9793 O.2       15 UNK        -0.5000 
     89 N          -4.6690  -27.9250  -52.3207 N.am      16 UNK        -0.5000 
     90 CA         -4.0516  -27.8544  -53.6537 C.3       16 UNK         0.1400 
     91 CB         -2.9120  -28.8814  -53.8287 C.3       16 UNK        -0.1800 
     92 C          -3.6442  -26.4238  -54.0794 C.2       16 UNK         0.5000 
     93 O          -2.9340  -26.2716  -55.0744 O.2       16 UNK        -0.5000 
     94 N          -4.1505  -25.4068  -53.3633 N.am      17 UNK        -0.5000 
     95 CA         -4.0944  -23.9735  -53.6694 C.3       17 UNK         0.1400 
     96 CB         -5.0140  -23.6583  -54.8676 C.3       17 UNK        -0.1800 
     97 C          -2.6709  -23.4005  -53.8443 C.2       17 UNK         0.5000 
     98 O          -2.4385  -22.5877  -54.7413 O.2       17 UNK        -0.5000 
     99 N          -1.7432  -23.8039  -52.9708 N.am      18 UNK        -0.5000 
    100 CA        -0.3457  -23.3680  -52.9721 C.3       18 UNK         0.1400 
    101 CB         0.5380  -24.5690  -52.5948 C.3       18 UNK        -0.1800 
    102 C         -0.0815  -22.1716  -52.0332 C.2       18 UNK         0.5000 
    103 O          1.0543  -21.6969  -51.9793 O.2       18 UNK        -0.5000 
    104 N         -1.1037  -21.6998  -51.3027 N.am      19 UNK        -0.5000 
    105 CA        -1.0371  -20.6020  -50.3302 C.3       19 UNK         0.1400 
    106 CB        -2.2385  -20.7000  -49.3714 C.3       19 UNK        -0.1800 
    107 C         -0.9156  -19.2058  -50.9827 C.2       19 UNK         0.5000 
    108 O         -1.7672  -18.3405  -50.7642 O.2       19 UNK        -0.5000 
    109 N          0.1504  -19.0115  -51.7707 N.am      20 UNK        -0.5000 
    110 CA         0.5028  -17.8002  -52.5161 C.3       20 UNK         0.1400 
    111 CB         0.9640  -16.6890  -51.5449 C.3       20 UNK        -0.1800 
    112 C         -0.6381  -17.3844  -53.4678 C.2       20 UNK         0.5000 
    113 O         -0.9582  -18.1411  -54.3861 O.2       20 UNK        -0.5000 
    114 N         -1.2675  -16.2300  -53.2093 N.am      21 UNK        -0.5000 
    115 CA        -2.4434  -15.7277  -53.9273 C.3       21 UNK         0.1400 
    116 CB        -2.7571  -14.3049  -53.4407 C.3       21 UNK        -0.1800 
    117 C         -3.6899  -16.6287  -53.7996 C.2       21 UNK         0.5000 
    118 O         -4.5514  -16.5878  -54.6790 O.2       21 UNK        -0.5000 
    119 N         -3.7499  -17.4347  -52.7325 N.am      22 UNK        -0.5000 
    120 CA        -4.7623  -18.4782  -52.5126 C.3       22 UNK         0.1400 
    121 C         -4.2928  -19.8832  -52.9939 C.2       22 UNK         0.5000 
    122 N         -3.1920  -20.0091  -53.7278 N.am      22 UNK        -0.7600 
    123 O         -4.9474  -20.8812  -52.7108 O.2       22 UNK        -0.5000 
    124 C124       -5.2609  -18.4961  -51.0435 C.3       23 UNK        -0.0398 
    125 S125       -6.0351  -16.9111  -50.5714 S.3       23 UNK        -0.2404 
    126 C126       -4.8261  -16.2443  -49.3882 C.3       23 UNK        -0.0205 
    127 H127       -0.5616  -12.7152  -42.4392 H         1 UNK         0.0600 
    128 H128       -0.1819  -11.0149  -42.7095 H         1 UNK         0.0600 
    129 H129        0.4830  -12.2474  -43.7870 H         1 UNK         0.0600 
    130 H130       -2.4609  -13.4927  -43.3680 H         1 UNK         0.3000 
    131 H131       -4.1453  -11.7642  -44.9244 H         1 UNK         0.0600 
    132 H132       -4.9369  -13.4533  -43.1826 H         1 UNK         0.0800 
    133 H133       -4.5943  -14.7246  -44.3189 H         1 UNK         0.0800 
    134 H134       -8.2018  -14.9634  -45.5608 H         1 UNK         0.0800 
    135 H135       -7.3857  -15.4138  -44.0848 H         1 UNK         0.0800 
    136 H136       -6.3404  -14.7817  -47.6730 H         1 UNK         0.1150 
    137 H137       -4.1562  -18.4624  -47.9299 H         1 UNK         0.1150 
    138 H138       -6.2070  -17.4357  -44.3100 H         1 UNK         0.1150 
    139 H139       -5.5926  -19.8902  -44.9884 H         1 UNK         0.0800 
    140 H140       -4.3242  -20.0848  -46.1735 H         1 UNK         0.0800 
    141 H141       -4.2485  -21.3451  -43.5070 H         1 UNK         0.0800 
    142 H142       -2.8988  -20.8767  -42.5194 H         1 UNK         0.0800 
    143 H143       -2.2317  -21.1379  -45.4271 H         1 UNK         0.0600 
    144 H144       -0.3110  -20.9891  -44.5576 H         1 UNK         0.3000 
    145 H145        1.5645  -22.7033  -42.0300 H         1 UNK         0.0600 
    146 H146        3.0327  -22.5619  -43.9928 H         1 UNK         0.0600 
    147 H147        1.6741  -23.6107  -44.3675 H         1 UNK         0.0600 
    148 H148        1.7201  -21.9689  -45.0025 H         1 UNK         0.0600 
    149 H149        2.0201  -20.1884  -43.3650 H         1 UNK         0.3000 
    150 H150        1.3066  -18.1551  -40.5051 H         1 UNK         0.0600 
    151 H151        3.6464  -19.0016  -40.2279 H         1 UNK         0.0600 
    152 H152        3.6163  -17.4171  -40.9860 H         1 UNK         0.0600 
    153 H153        3.9116  -18.8548  -41.9617 H         1 UNK         0.0600 
    154 H154        2.1983  -17.5207  -43.1420 H         1 UNK         0.3000 
    155 H155       -1.0458  -17.1194  -44.6082 H         1 UNK         0.0600 
    156 H156        1.0951  -15.1051  -43.7316 H         1 UNK         0.0600 
    157 H157       -0.6291  -14.9963  -43.4136 H         1 UNK         0.0600 
    158 H158       -0.0269  -14.8589  -45.0617 H         1 UNK         0.0600 
    159 H159        1.5635  -16.6946  -45.6570 H         1 UNK         0.3000 
    160 H160        2.0888  -20.0082  -46.9040 H         1 UNK         0.0600 
    161 H161        1.5421  -17.3205  -48.2747 H         1 UNK         0.0600 
    162 H162        0.6235  -18.7875  -48.5280 H         1 UNK         0.0600 
    163 H163        2.3164  -18.7313  -48.9983 H         1 UNK         0.0600 
    164 H164        3.6169  -17.5665  -46.9581 H         1 UNK         0.3000 
    165 H165        5.5194  -18.2048  -44.0097 H         1 UNK         0.0600 
    166 H166        7.3728  -18.0048  -45.6440 H         1 UNK         0.0600 
    167 H167        6.5978  -19.5729  -45.8025 H         1 UNK         0.0600 
    168 H168        6.2670  -18.3111  -46.9835 H         1 UNK         0.0600 
    169 H169        5.6154  -16.1339  -45.9826 H         1 UNK         0.3000 
    170 H170        3.1990  -13.9731  -44.5168 H         1 UNK         0.0600 
    171 H171        5.2457  -13.6117  -43.1287 H         1 UNK         0.0600 
    172 H172        6.2583  -13.7735  -44.5587 H         1 UNK         0.0600 
    173 H173        5.1284  -12.4258  -44.4184 H         1 UNK         0.0600 
    174 H174        4.9634  -13.5557  -46.6829 H         1 UNK         0.3000 
    175 H175        4.1612  -13.3885  -48.7401 H         1 UNK         0.0600 
    176 H176        3.4967  -16.3319  -49.3281 H         1 UNK         0.0600 
    177 H177        4.2236  -15.2107  -50.4745 H         1 UNK         0.0600 
    178 H178        5.0964  -15.6702  -49.0205 H         1 UNK         0.0600 
    179 H179        1.4378  -14.5622  -48.9697 H         1 UNK         0.3000 
    180 H180        0.1303  -11.5454  -49.8690 H         1 UNK         0.0600 
    181 H181        0.3355  -13.6099  -52.1218 H         1 UNK         0.0600 
    182 H182        0.8500  -11.9335  -52.2390 H         1 UNK         0.0600 
    183 H183       -0.8446  -12.3034  -51.9870 H         1 UNK         0.0600 
    184 H184       -1.0758  -14.0939  -50.1726 H         1 UNK         0.3000 
    185 H185       -2.7237  -14.5016  -48.5444 H         1 UNK         0.0600 
    186 H186       -1.1179  -16.3120  -48.7188 H         1 UNK         0.0600 
    187 H187       -0.4076  -15.9378  -47.1601 H         1 UNK         0.0600 
    188 H188       -2.0313  -16.6181  -47.2530 H         1 UNK         0.0600 
    189 H189       -2.0048  -14.4847  -45.6918 H         1 UNK         0.3000 
    190 H190       -1.6288  -24.0095  -43.5906 H         1 UNK         0.3000 
    191 H191       -3.6222  -25.7214  -44.6168 H         1 UNK         0.0600 
    192 H192       -2.0452  -26.3456  -42.7989 H         1 UNK         0.0600 
    193 H193       -0.6904  -26.3148  -43.9274 H         1 UNK         0.0600 
    194 H194       -1.9592  -27.5227  -44.1002 H         1 UNK         0.0600 
    195 H195       -0.9100  -24.2889  -46.2140 H         1 UNK         0.3000 
    196 H196       -0.6369  -25.8691  -48.5499 H         1 UNK         0.0600 
    197 H197        0.4222  -23.7696  -49.4438 H         1 UNK         0.0600 
    198 H198        1.0109  -24.1555  -47.8377 H         1 UNK         0.0600 
    199 H199       -0.1780  -22.8727  -48.0557 H         1 UNK         0.0600 
    200 H200       -3.3590  -23.9318  -47.5801 H         1 UNK         0.3000 
    201 H201       -4.3954  -23.2102  -50.1354 H         1 UNK         0.0600 
    202 H202       -5.2491  -22.2568  -48.0163 H         1 UNK         0.0600 
    203 H203       -5.8310  -23.8409  -47.5036 H         1 UNK         0.0600 
    204 H204       -6.5545  -23.0391  -48.8943 H         1 UNK         0.0600 
    205 H205       -4.1944  -26.3132  -48.4978 H         1 UNK         0.3000 
    206 H206       -6.0283  -27.7677  -50.2239 H         1 UNK         0.0600 
    207 H207       -5.3477  -28.6583  -47.9983 H         1 UNK         0.0600 
    208 H208       -4.8589  -29.7510  -49.2860 H         1 UNK         0.0600 
    209 H209       -3.6637  -28.7161  -48.5153 H         1 UNK         0.0600 
    210 H210       -5.6794  -27.9655  -52.3275 H         1 UNK         0.3000 
    211 H211       -4.8424  -28.1434  -54.3474 H         1 UNK         0.0600 
    212 H212       -2.0162  -28.5963  -53.2769 H         1 UNK         0.0600 
    213 H213       -2.6271  -28.9694  -54.8776 H         1 UNK         0.0600 
    214 H214       -3.2160  -29.8725  -53.4923 H         1 UNK         0.0600 
    215 H215       -4.7141  -25.6371  -52.5524 H         1 UNK         0.3000 
    216 H216       -4.5117  -23.4716  -52.7964 H         1 UNK         0.0600 
    217 H217       -5.0892  -22.5827  -55.0325 H         1 UNK         0.0600 
    218 H218       -6.0251  -24.0272  -54.6955 H         1 UNK         0.0600 
    219 H219       -4.6438  -24.1073  -55.7898 H         1 UNK         0.0600 
    220 H220       -2.0099  -24.4126  -52.1992 H         1 UNK         0.3000 
    221 H221       -0.0591  -23.0514  -53.9770 H         1 UNK         0.0600 
    222 H222        0.3127  -24.9404  -51.5951 H         1 UNK         0.0600 
    223 H223        0.3972  -25.3931  -53.2945 H         1 UNK         0.0600 
    224 H224        1.5956  -24.3036  -52.6165 H         1 UNK         0.0600 
    225 H225       -2.0030  -22.1408  -51.4227 H         1 UNK         0.3000 
    226 H226       -0.1360  -20.7414  -49.7300 H         1 UNK         0.0600 
    227 H227       -2.1881  -21.6038  -48.7685 H         1 UNK         0.0600 
    228 H228       -2.2574  -19.8624  -48.6728 H         1 UNK         0.0600 
    229 H229       -3.1859  -20.7076  -49.9102 H         1 UNK         0.0600 
    230 H230        0.7487  -19.8181  -51.9280 H         1 UNK         0.3000 
    231 H231        1.3516  -18.0600  -53.1502 H         1 UNK         0.0600 
    232 H232        1.8099  -17.0298  -50.9494 H         1 UNK         0.0600 
    233 H233        0.1790  -16.3859  -50.8522 H         1 UNK         0.0600 
    234 H234        1.2992  -15.8053  -52.0883 H         1 UNK         0.0600 
    235 H235       -0.9539  -15.6859  -52.4220 H         1 UNK         0.3000 
    236 H236       -2.1896  -15.6776  -54.9882 H         1 UNK         0.0600 
    237 H237       -3.6438  -13.9076  -53.9367 H         1 UNK         0.0600 
    238 H238       -2.9424  -14.2763  -52.3663 H         1 UNK         0.0600 
    239 H239       -1.9351  -13.6259  -53.6649 H         1 UNK         0.0600 
    240 H240       -2.9770  -17.4458  -52.0747 H         1 UNK         0.3000 
    241 H241       -5.6333  -18.2573  -53.1319 H         1 UNK         0.0600 
    242 H242       -2.9289  -20.9210  -54.0876 H         1 UNK         0.3800 
    243 H243       -2.6220  -19.2071  -53.9693 H         1 UNK         0.3800 
    244 H244       -6.0109  -19.2757  -50.9008 H         1 UNK         0.0800 
    245 H245       -4.4440  -18.7350  -50.3632 H         1 UNK         0.0800 
    246 H246       -3.8218  -16.6036  -49.6185 H         1 UNK         0.0800 
    247 H247       -4.7952  -15.1607  -49.5100 H         1 UNK         0.0800 
@<TRIPOS>BOND
     1    1    2 1    
     2    1  127 1    
     3    1  128 1    
     4    1  129 1    
     5    2    3 2    
     6    2    4 am   BACKBONE|DICT|INTERRES
     7    4    5 1    
     8    4  130 1    
     9    5    6 1    
    10    5   65 1    
    11    5  131 1    
    12    6    7 1    
    13    6  132 1    
    14    6  133 1    
    15    7    8 1    
    16    8    9 1    
    17    8  134 1    
    18    8  135 1    
    19    9   10 ar   
    20    9   14 ar   
    21   10   11 ar   
    22   10  136 1    
    23   11   12 ar   
    24   11  126 1    
    25   12   13 ar   
    26   12  137 1    
    27   13   14 ar   
    28   13   15 1    
    29   14  138 1    
    30   15   16 1    
    31   15  139 1    
    32   15  140 1    
    33   16   17 1    
    34   17   18 1    
    35   17  141 1    
    36   17  142 1    
    37   18   19 1    
    38   18   67 1    
    39   18  143 1    
    40   19   20 am   BACKBONE|DICT|INTERRES
    41   19  144 1    
    42   20   21 2    
    43   20   22 1    
    44   22   23 1    
    45   22   24 1    
    46   22  145 1    
    47   23  146 1    
    48   23  147 1    
    49   23  148 1    
    50   24   25 am   BACKBONE|DICT|INTERRES
    51   24  149 1    
    52   25   26 2    
    53   25   27 1    
    54   27   28 1    
    55   27   29 1    
    56   27  150 1    
    57   28  151 1    
    58   28  152 1    
    59   28  153 1    
    60   29   30 am   BACKBONE|DICT|INTERRES
    61   29  154 1    
    62   30   31 2    
    63   30   32 1    
    64   32   33 1    
    65   32   34 1    
    66   32  155 1    
    67   33  156 1    
    68   33  157 1    
    69   33  158 1    
    70   34   35 am   BACKBONE|DICT|INTERRES
    71   34  159 1    
    72   35   36 2    
    73   35   37 1    
    74   37   38 1    
    75   37   39 1    
    76   37  160 1    
    77   38  161 1    
    78   38  162 1    
    79   38  163 1    
    80   39   40 am   BACKBONE|DICT|INTERRES
    81   39  164 1    
    82   40   41 2    
    83   40   42 1    
    84   42   43 1    
    85   42   44 1    
    86   42  165 1    
    87   43  166 1    
    88   43  167 1    
    89   43  168 1    
    90   44   45 am   BACKBONE|DICT|INTERRES
    91   44  169 1    
    92   45   46 2    
    93   45   47 1    
    94   47   48 1    
    95   47   49 1    
    96   47  170 1    
    97   48  171 1    
    98   48  172 1    
    99   48  173 1    
   100   49   50 am   BACKBONE|DICT|INTERRES
   101   49  174 1    
   102   50   51 2    
   103   50   52 1    
   104   52   53 1    
   105   52   54 1    
   106   52  175 1    
   107   53  176 1    
   108   53  177 1    
   109   53  178 1    
   110   54   55 am   BACKBONE|DICT|INTERRES
   111   54  179 1    
   112   55   56 2    
   113   55   57 1    
   114   57   58 1    
   115   57   59 1    
   116   57  180 1    
   117   58  181 1    
   118   58  182 1    
   119   58  183 1    
   120   59   60 am   BACKBONE|DICT|INTERRES
   121   59  184 1    
   122   60   61 2    
   123   60   62 1    
   124   62   63 1    
   125   62   64 1    
   126   62  185 1    
   127   63  186 1    
   128   63  187 1    
   129   63  188 1    
   130   64   65 am   BACKBONE|DICT|INTERRES
   131   64  189 1    
   132   65   66 2    
   133   67   68 2    
   134   67   69 am   BACKBONE|DICT|INTERRES
   135   69   70 1    
   136   69  190 1    
   137   70   71 1    
   138   70   72 1    
   139   70  191 1    
   140   71  192 1    
   141   71  193 1    
   142   71  194 1    
   143   72   73 2    
   144   72   74 am   BACKBONE|DICT|INTERRES
   145   74   75 1    
   146   74  195 1    
   147   75   76 1    
   148   75   77 1    
   149   75  196 1    
   150   76  197 1    
   151   76  198 1    
   152   76  199 1    
   153   77   78 2    
   154   77   79 am   BACKBONE|DICT|INTERRES
   155   79   80 1    
   156   79  200 1    
   157   80   81 1    
   158   80   82 1    
   159   80  201 1    
   160   81  202 1    
   161   81  203 1    
   162   81  204 1    
   163   82   83 2    
   164   82   84 am   BACKBONE|DICT|INTERRES
   165   84   85 1    
   166   84  205 1    
   167   85   86 1    
   168   85   87 1    
   169   85  206 1    
   170   86  207 1    
   171   86  208 1    
   172   86  209 1    
   173   87   88 2    
   174   87   89 am   BACKBONE|DICT|INTERRES
   175   89   90 1    
   176   89  210 1    
   177   90   91 1    
   178   90   92 1    
   179   90  211 1    
   180   91  212 1    
   181   91  213 1    
   182   91  214 1    
   183   92   93 2    
   184   92   94 am   BACKBONE|DICT|INTERRES
   185   94   95 1    
   186   94  215 1    
   187   95   96 1    
   188   95   97 1    
   189   95  216 1    
   190   96  217 1    
   191   96  218 1    
   192   96  219 1    
   193   97   98 2    
   194   97   99 am   BACKBONE|DICT|INTERRES
   195   99  100 1    
   196   99  220 1    
   197  100  101 1    
   198  100  102 1    
   199  100  221 1    
   200  101  222 1    
   201  101  223 1    
   202  101  224 1    
   203  102  103 2    
   204  102  104 am   BACKBONE|DICT|INTERRES
   205  104  105 1    
   206  104  225 1    
   207  105  106 1    
   208  105  107 1    
   209  105  226 1    
   210  106  227 1    
   211  106  228 1    
   212  106  229 1    
   213  107  108 2    
   214  107  109 am   BACKBONE|DICT|INTERRES
   215  109  110 1    
   216  109  230 1    
   217  110  111 1    
   218  110  112 1    
   219  110  231 1    
   220  111  232 1    
   221  111  233 1    
   222  111  234 1    
   223  112  113 2    
   224  112  114 am   BACKBONE|DICT|INTERRES
   225  114  115 1    
   226  114  235 1    
   227  115  116 1    
   228  115  117 1    
   229  115  236 1    
   230  116  237 1    
   231  116  238 1    
   232  116  239 1    
   233  117  118 2    
   234  117  119 am   BACKBONE|DICT|INTERRES
   235  119  120 1    
   236  119  240 1    
   237  120  121 1    
   238  120  124 1    
   239  120  241 1    
   240  121  122 am   BACKBONE|DICT|INTERRES
   241  121  123 2    
   242  122  242 1    
   243  122  243 1    
   244  124  125 1    
   245  124  244 1    
   246  124  245 1    
   247  125  126 1    
   248  126  246 1    
   249  126  247 1    
@<TRIPOS>SUBSTRUCTURE
     1 UNK         1 GROUP             0       ****    0 ROOT    
