@<TRIPOS>MOLECULE
3R540
247   249    1
SMALL
USER_CHARGES


@<TRIPOS>ATOM
      1 CA         -2.2011  -16.5252  -48.5616 C.3       0 UNK        -0.1800 
      2 C          -1.7587  -15.3899  -47.6542 C.2       0 UNK         0.5000 
      3 O          -0.6640  -14.8545  -47.8179 O.2       0 UNK        -0.5000 
      4 N          -2.6142  -15.0166  -46.6966 N.am      1 UNK        -0.5000 
      5 CA         -2.3199  -14.0672  -45.6151 C.3       1 UNK         0.1400 
      6 C6         -3.4512  -14.0041  -44.5604 C.3       23 UNK        -0.0398 
      7 S7         -3.8569  -15.6386  -43.8509 S.3       23 UNK        -0.2404 
      8 C8         -5.5738  -15.8874  -44.4019 C.3       23 UNK        -0.0205 
      9 C9         -5.6584  -16.2366  -45.8800 C.ar      23 UNK        -0.0193 
     10 C10        -5.8849  -15.2370  -46.8281 C.ar      23 UNK        -0.1150 
     11 C11        -5.9756  -15.5543  -48.1843 C.ar      23 UNK        -0.0193 
     12 C12        -5.8637  -16.8874  -48.5874 C.ar      23 UNK        -0.1150 
     13 C13        -5.6395  -17.9047  -47.6540 C.ar      23 UNK        -0.0193 
     14 C14        -5.5302  -17.5645  -46.2976 C.ar      23 UNK        -0.1150 
     15 C15        -5.5426  -19.3412  -48.1745 C.3       23 UNK        -0.0205 
     16 S16        -5.4616  -20.6591  -46.9135 S.3       23 UNK        -0.2404 
     17 C17        -3.7105  -20.6318  -46.3852 C.3       23 UNK        -0.0398 
     18 CA         -3.1376  -22.0651  -46.2487 C.3       11 UNK         0.1400 
     19 N          -1.6701  -22.1032  -46.2913 N.am      11 UNK        -0.5000 
     20 C          -0.9389  -23.2280  -46.3527 C.2       10 UNK         0.5000 
     21 O          -1.4283  -24.3522  -46.4453 O.2       10 UNK        -0.5000 
     22 CA          0.5897  -23.0949  -46.2298 C.3       10 UNK         0.1400 
     23 CB          1.2327  -22.7231  -47.5721 C.3       10 UNK        -0.1800 
     24 N           0.9842  -22.1374  -45.1986 N.am      10 UNK        -0.5000 
     25 C           0.7228  -22.2944  -43.8933 C.2       9 UNK         0.5000 
     26 O           0.1938  -23.2997  -43.4213 O.2       9 UNK        -0.5000 
     27 CA          1.0541  -21.1128  -42.9669 C.3       9 UNK         0.1400 
     28 CB          2.5341  -21.1366  -42.5587 C.3       9 UNK        -0.1800 
     29 N           0.7259  -19.8192  -43.5658 N.am      9 UNK        -0.5000 
     30 C          -0.5087  -19.4236  -43.9107 C.2       8 UNK         0.5000 
     31 O          -1.5212  -20.1005  -43.7318 O.2       8 UNK        -0.5000 
     32 CA         -0.6169  -18.0599  -44.6168 C.3       8 UNK         0.1400 
     33 CB         -0.4076  -16.9246  -43.6020 C.3       8 UNK        -0.1800 
     34 N           0.3487  -17.9329  -45.7112 N.am      8 UNK        -0.5000 
     35 C           0.3919  -18.7239  -46.7941 C.2       7 UNK         0.5000 
     36 O          -0.4471  -19.5904  -47.0401 O.2       7 UNK        -0.5000 
     37 CA          1.6129  -18.5759  -47.7210 C.3       7 UNK         0.1400 
     38 CB          1.3937  -17.5059  -48.7978 C.3       7 UNK        -0.1800 
     39 N           2.8323  -18.2766  -46.9721 N.am      7 UNK        -0.5000 
     40 C           3.4839  -19.1679  -46.2124 C.2       6 UNK         0.5000 
     41 O           3.1426  -20.3445  -46.0980 O.2       6 UNK        -0.5000 
     42 CA          4.6932  -18.6434  -45.4162 C.3       6 UNK         0.1400 
     43 CB          5.9483  -18.6030  -46.3005 C.3       6 UNK        -0.1800 
     44 N           4.4532  -17.3140  -44.8528 N.am      6 UNK        -0.5000 
     45 C           3.5582  -17.0525  -43.8893 C.2       5 UNK         0.5000 
     46 O           2.8937  -17.9215  -43.3279 O.2       5 UNK        -0.5000 
     47 CA          3.3331  -15.5713  -43.5260 C.3       5 UNK         0.1400 
     48 CB          4.2606  -15.1521  -42.3763 C.3       5 UNK        -0.1800 
     49 N           3.5265  -14.6647  -44.6616 N.am      5 UNK        -0.5000 
     50 C           2.7766  -14.6664  -45.7714 C.2       4 UNK         0.5000 
     51 O           1.8144  -15.4159  -45.9454 O.2       4 UNK        -0.5000 
     52 CA          3.2466  -13.7447  -46.9010 C.3       4 UNK         0.1400 
     53 CB          4.4088  -14.4165  -47.6628 C.3       4 UNK        -0.1800 
     54 N           2.1463  -13.4554  -47.8184 N.am      4 UNK        -0.5000 
     55 C           2.1803  -12.4942  -48.7511 C.2       3 UNK         0.5000 
     56 O           3.1096  -11.6948  -48.8759 O.2       3 UNK        -0.5000 
     57 CA          0.9873  -12.4079  -49.7114 C.3       3 UNK         0.1400 
     58 CB          0.9002  -13.6618  -50.5957 C.3       3 UNK        -0.1800 
     59 N          -0.2626  -12.2098  -48.9825 N.am      3 UNK        -0.5000 
     60 C          -0.7674  -11.0069  -48.6701 C.2       2 UNK         0.5000 
     61 O          -0.2268   -9.9439  -48.9797 O.2       2 UNK        -0.5000 
     62 CA         -2.0955  -10.9574  -47.8868 C.3       2 UNK         0.1400 
     63 CB         -3.2482  -10.5020  -48.7942 C.3       2 UNK        -0.1800 
     64 N          -2.4428  -12.2366  -47.2660 N.am      2 UNK        -0.5000 
     65 C          -1.9444  -12.6490  -46.0926 C.2       1 UNK         0.5000 
     66 O          -1.1982  -11.9620  -45.3937 O.2       1 UNK        -0.5000 
     67 C          -3.7026  -22.7856  -45.0063 C.2       11 UNK         0.5000 
     68 O          -4.6475  -23.5648  -45.1340 O.2       11 UNK        -0.5000 
     69 N          -3.0906  -22.5448  -43.8383 N.am      12 UNK        -0.5000 
     70 CA         -3.4259  -23.2121  -42.5798 C.3       12 UNK         0.1400 
     71 CB         -2.6660  -22.5429  -41.4247 C.3       12 UNK        -0.1800 
     72 C          -3.1569  -24.7298  -42.6153 C.2       12 UNK         0.5000 
     73 O          -3.9368  -25.4941  -42.0454 O.2       12 UNK        -0.5000 
     74 N          -2.0765  -25.1377  -43.2956 N.am      13 UNK        -0.5000 
     75 CA         -1.7176  -26.5353  -43.5236 C.3       13 UNK         0.1400 
     76 CB         -0.2599  -26.6295  -44.0008 C.3       13 UNK        -0.1800 
     77 C          -2.6699  -27.2397  -44.5077 C.2       13 UNK         0.5000 
     78 O          -3.1313  -28.3413  -44.2041 O.2       13 UNK        -0.5000 
     79 N          -2.9556  -26.6052  -45.6539 N.am      14 UNK        -0.5000 
     80 CA         -3.8371  -27.1458  -46.6884 C.3       14 UNK         0.1400 
     81 CB         -3.1264  -28.2616  -47.4816 C.3       14 UNK        -0.1800 
     82 C          -4.3693  -26.0613  -47.6374 C.2       14 UNK         0.5000 
     83 O          -5.5854  -25.9333  -47.7849 O.2       14 UNK        -0.5000 
     84 N          -3.4614  -25.3347  -48.2995 N.am      15 UNK        -0.5000 
     85 CA         -3.7501  -24.4026  -49.3871 C.3       15 UNK         0.1400 
     86 CB         -4.1949  -25.1902  -50.6343 C.3       15 UNK        -0.1800 
     87 C          -2.4880  -23.5751  -49.6742 C.2       15 UNK         0.5000 
     88 O          -1.3908  -24.1393  -49.6758 O.2       15 UNK        -0.5000 
     89 N          -2.6527  -22.2626  -49.8991 N.am      16 UNK        -0.5000 
     90 CA         -1.5695  -21.2960  -50.1143 C.3       16 UNK         0.1400 
     91 CB         -2.1393  -19.8710  -50.1898 C.3       16 UNK        -0.1800 
     92 C          -0.7504  -21.6216  -51.3721 C.2       16 UNK         0.5000 
     93 O          -1.2425  -21.4119  -52.4821 O.2       16 UNK        -0.5000 
     94 N           0.4531  -22.1754  -51.1656 N.am      17 UNK        -0.5000 
     95 CA          1.3601  -22.7226  -52.1832 C.3       17 UNK         0.1400 
     96 CB          1.9169  -21.6001  -53.0815 C.3       17 UNK        -0.1800 
     97 C           0.7214  -23.8749  -52.9913 C.2       17 UNK         0.5000 
     98 O           1.0031  -24.0238  -54.1812 O.2       17 UNK        -0.5000 
     99 N          -0.1515  -24.6480  -52.3247 N.am      18 UNK        -0.5000 
    100 CA        -1.0007  -25.7124  -52.8709 C.3       18 UNK         0.1400 
    101 CB        -0.1548  -26.8664  -53.4493 C.3       18 UNK        -0.1800 
    102 C         -2.0770  -25.2020  -53.8576 C.2       18 UNK         0.5000 
    103 O         -2.6003  -25.9901  -54.6472 O.2       18 UNK        -0.5000 
    104 N         -2.4036  -23.9051  -53.7913 N.am      19 UNK        -0.5000 
    105 CA        -3.3866  -23.2310  -54.6305 C.3       19 UNK         0.1400 
    106 CB        -2.7034  -22.7403  -55.9253 C.3       19 UNK        -0.1800 
    107 C         -4.0614  -22.1217  -53.8029 C.2       19 UNK         0.5000 
    108 O         -4.5267  -22.3911  -52.6948 O.2       19 UNK        -0.5000 
    109 N         -4.1025  -20.8969  -54.3336 N.am      20 UNK        -0.5000 
    110 CA        -4.6631  -19.7200  -53.6782 C.3       20 UNK         0.1400 
    111 CB        -6.0871  -19.4648  -54.2065 C.3       20 UNK        -0.1800 
    112 C         -3.7133  -18.5317  -53.8846 C.2       20 UNK         0.5000 
    113 O         -4.1379  -17.4711  -54.3480 O.2       20 UNK        -0.5000 
    114 N         -2.4292  -18.7305  -53.5531 N.am      21 UNK        -0.5000 
    115 CA        -1.3478  -17.7465  -53.6807 C.3       21 UNK         0.1400 
    116 CB         0.0008  -18.4847  -53.6466 C.3       21 UNK        -0.1800 
    117 C         -1.4227  -16.5988  -52.6454 C.2       21 UNK         0.5000 
    118 O         -0.4514  -16.3388  -51.9365 O.2       21 UNK        -0.5000 
    119 N         -2.5798  -15.9329  -52.5857 N.am      22 UNK        -0.5000 
    120 CA        -2.8544  -14.7286  -51.7872 C.3       22 UNK         0.1400 
    121 C         -2.4961  -13.4029  -52.5284 C.2       22 UNK         0.5000 
    122 N         -2.1477  -13.4269  -53.8099 N.am      22 UNK        -0.7600 
    123 O         -2.5087  -12.3317  -51.9319 O.2       22 UNK        -0.5000 
    124 C124       -4.3261  -14.7461  -51.2940 C.3       23 UNK        -0.0398 
    125 S125       -4.6142  -13.7640  -49.7836 S.3       23 UNK        -0.2404 
    126 C126       -6.1961  -14.4501  -49.2045 C.3       23 UNK        -0.0205 
    127 H127       -3.1958  -16.3395  -48.9590 H         1 UNK         0.0600 
    128 H128       -2.2174  -17.4630  -48.0075 H         1 UNK         0.0600 
    129 H129       -1.5212  -16.6329  -49.4049 H         1 UNK         0.0600 
    130 H130       -3.5076  -15.4855  -46.6254 H         1 UNK         0.3000 
    131 H131       -1.4286  -14.4437  -45.1164 H         1 UNK         0.0600 
    132 H132       -3.1532  -13.3605  -43.7306 H         1 UNK         0.0800 
    133 H133       -4.3465  -13.5469  -44.9822 H         1 UNK         0.0800 
    134 H134       -6.1663  -14.9983  -44.1807 H         1 UNK         0.0800 
    135 H135       -6.0140  -16.6939  -43.8135 H         1 UNK         0.0800 
    136 H136       -5.9896  -14.2082  -46.5140 H         1 UNK         0.1150 
    137 H137       -5.9494  -17.1359  -49.6357 H         1 UNK         0.1150 
    138 H138       -5.3601  -18.3236  -45.5493 H         1 UNK         0.1150 
    139 H139       -6.4273  -19.5367  -48.7822 H         1 UNK         0.0800 
    140 H140       -4.6938  -19.4262  -48.8498 H         1 UNK         0.0800 
    141 H141       -3.6223  -20.0765  -45.4502 H         1 UNK         0.0800 
    142 H142       -3.1332  -20.0696  -47.1169 H         1 UNK         0.0800 
    143 H143       -3.4750  -22.6344  -47.1138 H         1 UNK         0.0600 
    144 H144       -1.1903  -21.2082  -46.2610 H         1 UNK         0.3000 
    145 H145        0.9793  -24.0722  -45.9376 H         1 UNK         0.0600 
    146 H146        2.3205  -22.7365  -47.5020 H         1 UNK         0.0600 
    147 H147        0.9479  -23.4340  -48.3484 H         1 UNK         0.0600 
    148 H148        0.9343  -21.7296  -47.8991 H         1 UNK         0.0600 
    149 H149        1.4903  -21.3125  -45.5038 H         1 UNK         0.3000 
    150 H150        0.4511  -21.2212  -42.0632 H         1 UNK         0.0600 
    151 H151        2.7960  -22.0878  -42.0937 H         1 UNK         0.0600 
    152 H152        2.7560  -20.3499  -41.8374 H         1 UNK         0.0600 
    153 H153        3.1918  -20.9977  -43.4170 H         1 UNK         0.0600 
    154 H154        1.5004  -19.1743  -43.6980 H         1 UNK         0.3000 
    155 H155       -1.6170  -17.9647  -45.0453 H         1 UNK         0.0600 
    156 H156        0.4662  -17.0883  -42.9735 H         1 UNK         0.0600 
    157 H157       -1.2653  -16.8418  -42.9346 H         1 UNK         0.0600 
    158 H158       -0.2736  -15.9646  -44.0936 H         1 UNK         0.0600 
    159 H159        1.0302  -17.1840  -45.6361 H         1 UNK         0.3000 
    160 H160        1.7546  -19.5289  -48.2339 H         1 UNK         0.0600 
    161 H161        1.2569  -16.5168  -48.3635 H         1 UNK         0.0600 
    162 H162        0.5136  -17.7328  -49.3991 H         1 UNK         0.0600 
    163 H163        2.2420  -17.4533  -49.4801 H         1 UNK         0.0600 
    164 H164        3.1376  -17.3153  -46.9689 H         1 UNK         0.3000 
    165 H165        4.8767  -19.3363  -44.5923 H         1 UNK         0.0600 
    166 H166        6.8252  -18.3037  -45.7261 H         1 UNK         0.0600 
    167 H167        6.1585  -19.5862  -46.7237 H         1 UNK         0.0600 
    168 H168        5.8363  -17.9048  -47.1310 H         1 UNK         0.0600 
    169 H169        4.9715  -16.5459  -45.2515 H         1 UNK         0.3000 
    170 H170        2.3009  -15.4667  -43.1869 H         1 UNK         0.0600 
    171 H171        4.1205  -15.7970  -41.5076 H         1 UNK         0.0600 
    172 H172        5.3113  -15.2111  -42.6630 H         1 UNK         0.0600 
    173 H173        4.0557  -14.1302  -42.0566 H         1 UNK         0.0600 
    174 H174        4.3071  -14.0269  -44.5976 H         1 UNK         0.3000 
    175 H175        3.5899  -12.8086  -46.4558 H         1 UNK         0.0600 
    176 H176        4.0841  -15.3308  -48.1614 H         1 UNK         0.0600 
    177 H177        4.8272  -13.7562  -48.4222 H         1 UNK         0.0600 
    178 H178        5.2263  -14.6801  -46.9909 H         1 UNK         0.0600 
    179 H179        1.3309  -14.0570  -47.7270 H         1 UNK         0.3000 
    180 H180        1.1584  -11.5601  -50.3785 H         1 UNK         0.0600 
    181 H181        0.6734  -14.5608  -50.0235 H         1 UNK         0.0600 
    182 H182        1.8419  -13.8387  -51.1163 H         1 UNK         0.0600 
    183 H183        0.1312  -13.5500  -51.3575 H         1 UNK         0.0600 
    184 H184       -0.7069  -13.0476  -48.6220 H         1 UNK         0.3000 
    185 H185       -1.9821  -10.2045  -47.1038 H         1 UNK         0.0600 
    186 H186       -3.0716   -9.4928  -49.1679 H         1 UNK         0.0600 
    187 H187       -3.3580  -11.1512  -49.6616 H         1 UNK         0.0600 
    188 H188       -4.1972  -10.4894  -48.2581 H         1 UNK         0.0600 
    189 H189       -3.0365  -12.8595  -47.7966 H         1 UNK         0.3000 
    190 H190       -2.3528  -21.8461  -43.8074 H         1 UNK         0.3000 
    191 H191       -4.4947  -23.0706  -42.4064 H         1 UNK         0.0600 
    192 H192       -1.5874  -22.6552  -41.5313 H         1 UNK         0.0600 
    193 H193       -2.9475  -22.9830  -40.4674 H         1 UNK         0.0600 
    194 H194       -2.8874  -21.4768  -41.3715 H         1 UNK         0.0600 
    195 H195       -1.4446  -24.4371  -43.6691 H         1 UNK         0.3000 
    196 H196       -1.7848  -27.0572  -42.5666 H         1 UNK         0.0600 
    197 H197        0.0394  -27.6699  -44.1335 H         1 UNK         0.0600 
    198 H198        0.4215  -26.1846  -43.2755 H         1 UNK         0.0600 
    199 H199       -0.1099  -26.1228  -44.9535 H         1 UNK         0.0600 
    200 H200       -2.5322  -25.6978  -45.8415 H         1 UNK         0.3000 
    201 H201       -4.7095  -27.5825  -46.1971 H         1 UNK         0.0600 
    202 H202       -2.9003  -29.1199  -46.8492 H         1 UNK         0.0600 
    203 H203       -2.1891  -27.9119  -47.9158 H         1 UNK         0.0600 
    204 H204       -3.7533  -28.6219  -48.2983 H         1 UNK         0.0600 
    205 H205       -2.4760  -25.4268  -48.0761 H         1 UNK         0.3000 
    206 H206       -4.5509  -23.7273  -49.0786 H         1 UNK         0.0600 
    207 H207       -3.5281  -26.0274  -50.8376 H         1 UNK         0.0600 
    208 H208       -5.1996  -25.5934  -50.5090 H         1 UNK         0.0600 
    209 H209       -4.2125  -24.5645  -51.5230 H         1 UNK         0.0600 
    210 H210       -3.5916  -21.8980  -49.9655 H         1 UNK         0.3000 
    211 H211       -0.9083  -21.3363  -49.2483 H         1 UNK         0.0600 
    212 H212       -2.9830  -19.8042  -50.8758 H         1 UNK         0.0600 
    213 H213       -1.3835  -19.1592  -50.5250 H         1 UNK         0.0600 
    214 H214       -2.4674  -19.5339  -49.2105 H         1 UNK         0.0600 
    215 H215        0.7384  -22.3401  -50.2117 H         1 UNK         0.3000 
    216 H216        2.2000  -23.1593  -51.6411 H         1 UNK         0.0600 
    217 H217        2.7373  -21.9668  -53.6992 H         1 UNK         0.0600 
    218 H218        2.3010  -20.7691  -52.4900 H         1 UNK         0.0600 
    219 H219        1.1538  -21.2121  -53.7552 H         1 UNK         0.0600 
    220 H220       -0.3303  -24.4267  -51.3491 H         1 UNK         0.3000 
    221 H221       -1.5447  -26.1156  -52.0175 H         1 UNK         0.0600 
    222 H222        0.3525  -26.5786  -54.3702 H         1 UNK         0.0600 
    223 H223        0.6013  -27.1971  -52.7373 H         1 UNK         0.0600 
    224 H224       -0.7794  -27.7299  -53.6803 H         1 UNK         0.0600 
    225 H225       -1.9398  -23.3055  -53.1183 H         1 UNK         0.3000 
    226 H226       -4.1782  -23.9330  -54.8996 H         1 UNK         0.0600 
    227 H227       -2.2591  -23.5731  -56.4707 H         1 UNK         0.0600 
    228 H228       -3.4176  -22.2670  -56.6000 H         1 UNK         0.0600 
    229 H229       -1.9065  -22.0255  -55.7144 H         1 UNK         0.0600 
    230 H230       -3.6665  -20.7393  -55.2315 H         1 UNK         0.3000 
    231 H231       -4.7256  -19.8760  -52.5996 H         1 UNK         0.0600 
    232 H232       -6.7368  -20.3179  -54.0107 H         1 UNK         0.0600 
    233 H233       -6.0902  -19.2813  -55.2815 H         1 UNK         0.0600 
    234 H234       -6.5364  -18.5976  -53.7209 H         1 UNK         0.0600 
    235 H235       -2.1572  -19.6404  -53.1951 H         1 UNK         0.3000 
    236 H236       -1.4339  -17.2811  -54.6646 H         1 UNK         0.0600 
    237 H237        0.1685  -18.9726  -52.6862 H         1 UNK         0.0600 
    238 H238        0.0485  -19.2444  -54.4264 H         1 UNK         0.0600 
    239 H239        0.8307  -17.7974  -53.8149 H         1 UNK         0.0600 
    240 H240       -3.3186  -16.2378  -53.2144 H         1 UNK         0.3000 
    241 H241       -2.2076  -14.7596  -50.9089 H         1 UNK         0.0600 
    242 H242       -2.1244  -14.2924  -54.3236 H         1 UNK         0.3800 
    243 H243       -1.9106  -12.5630  -54.2717 H         1 UNK         0.3800 
    244 H244       -5.0070  -14.4095  -52.0777 H         1 UNK         0.0800 
    245 H245       -4.6182  -15.7720  -51.0683 H         1 UNK         0.0800 
    246 H246       -6.7846  -14.8154  -50.0475 H         1 UNK         0.0800 
    247 H247       -6.7812  -13.6460  -48.7556 H         1 UNK         0.0800 
@<TRIPOS>BOND
     1    1    2 1    
     2    1  127 1    
     3    1  128 1    
     4    1  129 1    
     5    2    3 2    
     6    2    4 am   BACKBONE|DICT|INTERRES
     7    4    5 1    
     8    4  130 1    
     9    5    6 1    
    10    5   65 1    
    11    5  131 1    
    12    6    7 1    
    13    6  132 1    
    14    6  133 1    
    15    7    8 1    
    16    8    9 1    
    17    8  134 1    
    18    8  135 1    
    19    9   10 ar   
    20    9   14 ar   
    21   10   11 ar   
    22   10  136 1    
    23   11   12 ar   
    24   11  126 1    
    25   12   13 ar   
    26   12  137 1    
    27   13   14 ar   
    28   13   15 1    
    29   14  138 1    
    30   15   16 1    
    31   15  139 1    
    32   15  140 1    
    33   16   17 1    
    34   17   18 1    
    35   17  141 1    
    36   17  142 1    
    37   18   19 1    
    38   18   67 1    
    39   18  143 1    
    40   19   20 am   BACKBONE|DICT|INTERRES
    41   19  144 1    
    42   20   21 2    
    43   20   22 1    
    44   22   23 1    
    45   22   24 1    
    46   22  145 1    
    47   23  146 1    
    48   23  147 1    
    49   23  148 1    
    50   24   25 am   BACKBONE|DICT|INTERRES
    51   24  149 1    
    52   25   26 2    
    53   25   27 1    
    54   27   28 1    
    55   27   29 1    
    56   27  150 1    
    57   28  151 1    
    58   28  152 1    
    59   28  153 1    
    60   29   30 am   BACKBONE|DICT|INTERRES
    61   29  154 1    
    62   30   31 2    
    63   30   32 1    
    64   32   33 1    
    65   32   34 1    
    66   32  155 1    
    67   33  156 1    
    68   33  157 1    
    69   33  158 1    
    70   34   35 am   BACKBONE|DICT|INTERRES
    71   34  159 1    
    72   35   36 2    
    73   35   37 1    
    74   37   38 1    
    75   37   39 1    
    76   37  160 1    
    77   38  161 1    
    78   38  162 1    
    79   38  163 1    
    80   39   40 am   BACKBONE|DICT|INTERRES
    81   39  164 1    
    82   40   41 2    
    83   40   42 1    
    84   42   43 1    
    85   42   44 1    
    86   42  165 1    
    87   43  166 1    
    88   43  167 1    
    89   43  168 1    
    90   44   45 am   BACKBONE|DICT|INTERRES
    91   44  169 1    
    92   45   46 2    
    93   45   47 1    
    94   47   48 1    
    95   47   49 1    
    96   47  170 1    
    97   48  171 1    
    98   48  172 1    
    99   48  173 1    
   100   49   50 am   BACKBONE|DICT|INTERRES
   101   49  174 1    
   102   50   51 2    
   103   50   52 1    
   104   52   53 1    
   105   52   54 1    
   106   52  175 1    
   107   53  176 1    
   108   53  177 1    
   109   53  178 1    
   110   54   55 am   BACKBONE|DICT|INTERRES
   111   54  179 1    
   112   55   56 2    
   113   55   57 1    
   114   57   58 1    
   115   57   59 1    
   116   57  180 1    
   117   58  181 1    
   118   58  182 1    
   119   58  183 1    
   120   59   60 am   BACKBONE|DICT|INTERRES
   121   59  184 1    
   122   60   61 2    
   123   60   62 1    
   124   62   63 1    
   125   62   64 1    
   126   62  185 1    
   127   63  186 1    
   128   63  187 1    
   129   63  188 1    
   130   64   65 am   BACKBONE|DICT|INTERRES
   131   64  189 1    
   132   65   66 2    
   133   67   68 2    
   134   67   69 am   BACKBONE|DICT|INTERRES
   135   69   70 1    
   136   69  190 1    
   137   70   71 1    
   138   70   72 1    
   139   70  191 1    
   140   71  192 1    
   141   71  193 1    
   142   71  194 1    
   143   72   73 2    
   144   72   74 am   BACKBONE|DICT|INTERRES
   145   74   75 1    
   146   74  195 1    
   147   75   76 1    
   148   75   77 1    
   149   75  196 1    
   150   76  197 1    
   151   76  198 1    
   152   76  199 1    
   153   77   78 2    
   154   77   79 am   BACKBONE|DICT|INTERRES
   155   79   80 1    
   156   79  200 1    
   157   80   81 1    
   158   80   82 1    
   159   80  201 1    
   160   81  202 1    
   161   81  203 1    
   162   81  204 1    
   163   82   83 2    
   164   82   84 am   BACKBONE|DICT|INTERRES
   165   84   85 1    
   166   84  205 1    
   167   85   86 1    
   168   85   87 1    
   169   85  206 1    
   170   86  207 1    
   171   86  208 1    
   172   86  209 1    
   173   87   88 2    
   174   87   89 am   BACKBONE|DICT|INTERRES
   175   89   90 1    
   176   89  210 1    
   177   90   91 1    
   178   90   92 1    
   179   90  211 1    
   180   91  212 1    
   181   91  213 1    
   182   91  214 1    
   183   92   93 2    
   184   92   94 am   BACKBONE|DICT|INTERRES
   185   94   95 1    
   186   94  215 1    
   187   95   96 1    
   188   95   97 1    
   189   95  216 1    
   190   96  217 1    
   191   96  218 1    
   192   96  219 1    
   193   97   98 2    
   194   97   99 am   BACKBONE|DICT|INTERRES
   195   99  100 1    
   196   99  220 1    
   197  100  101 1    
   198  100  102 1    
   199  100  221 1    
   200  101  222 1    
   201  101  223 1    
   202  101  224 1    
   203  102  103 2    
   204  102  104 am   BACKBONE|DICT|INTERRES
   205  104  105 1    
   206  104  225 1    
   207  105  106 1    
   208  105  107 1    
   209  105  226 1    
   210  106  227 1    
   211  106  228 1    
   212  106  229 1    
   213  107  108 2    
   214  107  109 am   BACKBONE|DICT|INTERRES
   215  109  110 1    
   216  109  230 1    
   217  110  111 1    
   218  110  112 1    
   219  110  231 1    
   220  111  232 1    
   221  111  233 1    
   222  111  234 1    
   223  112  113 2    
   224  112  114 am   BACKBONE|DICT|INTERRES
   225  114  115 1    
   226  114  235 1    
   227  115  116 1    
   228  115  117 1    
   229  115  236 1    
   230  116  237 1    
   231  116  238 1    
   232  116  239 1    
   233  117  118 2    
   234  117  119 am   BACKBONE|DICT|INTERRES
   235  119  120 1    
   236  119  240 1    
   237  120  121 1    
   238  120  124 1    
   239  120  241 1    
   240  121  122 am   BACKBONE|DICT|INTERRES
   241  121  123 2    
   242  122  242 1    
   243  122  243 1    
   244  124  125 1    
   245  124  244 1    
   246  124  245 1    
   247  125  126 1    
   248  126  246 1    
   249  126  247 1    
@<TRIPOS>SUBSTRUCTURE
     1 UNK         1 GROUP             0       ****    0 ROOT    
