@<TRIPOS>MOLECULE
3R540
247   249    1
SMALL
USER_CHARGES


@<TRIPOS>ATOM
      1 CA         -3.2721  -14.9452  -48.9972 C.3       0 UNK        -0.1800 
      2 C          -4.2347  -16.1268  -48.9163 C.2       0 UNK         0.5000 
      3 O          -5.2037  -16.1670  -49.6699 O.2       0 UNK        -0.5000 
      4 N          -4.0105  -17.1198  -48.0478 N.am      1 UNK        -0.5000 
      5 CA         -2.9251  -17.2089  -47.0672 C.3       1 UNK         0.1400 
      6 C6         -2.5697  -18.6841  -46.7618 C.3       23 UNK        -0.0398 
      7 S7         -1.7924  -19.4809  -48.2048 S.3       23 UNK        -0.2404 
      8 C8         -3.1059  -20.5978  -48.7922 C.3       23 UNK        -0.0205 
      9 C9         -2.8366  -22.0587  -48.4630 C.ar      23 UNK        -0.0193 
     10 C10        -3.0056  -23.0349  -49.4500 C.ar      23 UNK        -0.1150 
     11 C11        -2.7891  -24.3842  -49.1597 C.ar      23 UNK        -0.0193 
     12 C12        -2.3896  -24.7560  -47.8734 C.ar      23 UNK        -0.1150 
     13 C13        -2.1888  -23.7871  -46.8866 C.ar      23 UNK        -0.0193 
     14 C14        -2.4349  -22.4444  -47.1809 C.ar      23 UNK        -0.1150 
     15 C15        -1.6743  -24.1781  -45.5100 C.3       23 UNK        -0.0205 
     16 S16        -0.0049  -24.9164  -45.5471 S.3       23 UNK        -0.2404 
     17 C17         0.9130  -23.8888  -46.7540 C.3       23 UNK        -0.0398 
     18 CA          1.2764  -22.4569  -46.2661 C.3       11 UNK         0.1400 
     19 N           1.9307  -22.4295  -44.9505 N.am      11 UNK        -0.5000 
     20 C           3.1090  -22.9831  -44.6235 C.2       10 UNK         0.5000 
     21 O           3.7900  -23.6512  -45.4025 O.2       10 UNK        -0.5000 
     22 CA          3.6435  -22.7329  -43.1980 C.3       10 UNK         0.1400 
     23 CB          4.8617  -21.7966  -43.2440 C.3       10 UNK        -0.1800 
     24 N           2.6475  -22.1619  -42.2904 N.am      10 UNK        -0.5000 
     25 C           1.6474  -22.8471  -41.7204 C.2       9 UNK         0.5000 
     26 O           1.4971  -24.0634  -41.8375 O.2       9 UNK        -0.5000 
     27 CA          0.6264  -22.0293  -40.9058 C.3       9 UNK         0.1400 
     28 CB          1.0957  -21.8738  -39.4515 C.3       9 UNK        -0.1800 
     29 N           0.3632  -20.7052  -41.4756 N.am      9 UNK        -0.5000 
     30 C          -0.1976  -20.4856  -42.6734 C.2       8 UNK         0.5000 
     31 O          -0.5819  -21.3798  -43.4250 O.2       8 UNK        -0.5000 
     32 CA         -0.2860  -19.0251  -43.1431 C.3       8 UNK         0.1400 
     33 CB         -1.4693  -18.2957  -42.4898 C.3       8 UNK        -0.1800 
     34 N           0.9531  -18.2905  -42.9007 N.am      8 UNK        -0.5000 
     35 C           2.1157  -18.5463  -43.5164 C.2       7 UNK         0.5000 
     36 O           2.2556  -19.4057  -44.3862 O.2       7 UNK        -0.5000 
     37 CA          3.3344  -17.7304  -43.0557 C.3       7 UNK         0.1400 
     38 CB          3.3948  -16.3748  -43.7779 C.3       7 UNK        -0.1800 
     39 N           3.3358  -17.5215  -41.6075 N.am      7 UNK        -0.5000 
     40 C           3.5105  -18.4963  -40.7031 C.2       6 UNK         0.5000 
     41 O           3.7334  -19.6702  -40.9961 O.2       6 UNK        -0.5000 
     42 CA          3.3614  -18.0977  -39.2240 C.3       6 UNK         0.1400 
     43 CB          4.6633  -17.4786  -38.6941 C.3       6 UNK        -0.1800 
     44 N           2.2552  -17.1639  -39.0082 N.am      6 UNK        -0.5000 
     45 C           0.9614  -17.4683  -39.1852 C.2       5 UNK         0.5000 
     46 O           0.5602  -18.5854  -39.5087 O.2       5 UNK        -0.5000 
     47 CA         -0.0470  -16.3154  -39.0265 C.3       5 UNK         0.1400 
     48 CB         -0.4666  -16.1621  -37.5571 C.3       5 UNK        -0.1800 
     49 N           0.4632  -15.0347  -39.5256 N.am      5 UNK        -0.5000 
     50 C           0.7815  -14.7955  -40.8038 C.2       4 UNK         0.5000 
     51 O           0.6868  -15.6359  -41.7027 O.2       4 UNK        -0.5000 
     52 CA          1.3481  -13.4072  -41.1208 C.3       4 UNK         0.1400 
     53 CB          2.8556  -13.3513  -40.8188 C.3       4 UNK        -0.1800 
     54 N           1.1229  -13.1262  -42.5329 N.am      4 UNK        -0.5000 
     55 C           0.9233  -11.9163  -43.0661 C.2       3 UNK         0.5000 
     56 O           0.9663  -10.8713  -42.4151 O.2       3 UNK        -0.5000 
     57 CA          0.6277  -11.8476  -44.5803 C.3       3 UNK         0.1400 
     58 CB          1.8668  -11.3517  -45.3426 C.3       3 UNK        -0.1800 
     59 N           0.1888  -13.1147  -45.1761 N.am      3 UNK        -0.5000 
     60 C          -0.9738  -13.7269  -44.9165 C.2       2 UNK         0.5000 
     61 O          -1.8137  -13.2912  -44.1239 O.2       2 UNK        -0.5000 
     62 CA         -1.2326  -15.0495  -45.6608 C.3       2 UNK         0.1400 
     63 CB         -0.1016  -16.0658  -45.4058 C.3       2 UNK        -0.1800 
     64 N          -2.5212  -15.5755  -45.2083 N.am      2 UNK        -0.5000 
     65 C          -3.3411  -16.4694  -45.7766 C.2       1 UNK         0.5000 
     66 O          -4.4376  -16.7308  -45.2817 O.2       1 UNK        -0.5000 
     67 C           2.1007  -21.6816  -47.3261 C.2       11 UNK         0.5000 
     68 O           2.1159  -22.0622  -48.4978 O.2       11 UNK        -0.5000 
     69 N           2.8179  -20.6367  -46.8868 N.am      12 UNK        -0.5000 
     70 CA          3.9007  -19.9978  -47.6350 C.3       12 UNK         0.1400 
     71 CB          4.7260  -19.1264  -46.6762 C.3       12 UNK        -0.1800 
     72 C           3.4377  -19.1739  -48.8474 C.2       12 UNK         0.5000 
     73 O           4.1408  -19.1481  -49.8585 O.2       12 UNK        -0.5000 
     74 N           2.2834  -18.5038  -48.7262 N.am      13 UNK        -0.5000 
     75 CA          1.7298  -17.6578  -49.7868 C.3       13 UNK         0.1400 
     76 CB          0.7162  -16.6730  -49.1836 C.3       13 UNK        -0.1800 
     77 C           1.0966  -18.4766  -50.9272 C.2       13 UNK         0.5000 
     78 O           1.1854  -18.0692  -52.0848 O.2       13 UNK        -0.5000 
     79 N           0.4605  -19.6027  -50.5685 N.am      14 UNK        -0.5000 
     80 CA         -0.2010  -20.6061  -51.4174 C.3       14 UNK         0.1400 
     81 CB          0.8400  -21.3016  -52.3137 C.3       14 UNK        -0.1800 
     82 C          -1.4144  -20.1096  -52.2409 C.2       14 UNK         0.5000 
     83 O          -1.9950  -20.9002  -52.9884 O.2       14 UNK        -0.5000 
     84 N          -1.7783  -18.8274  -52.0948 N.am      15 UNK        -0.5000 
     85 CA         -2.7537  -18.1192  -52.9225 C.3       15 UNK         0.1400 
     86 CB         -2.6520  -16.6110  -52.6516 C.3       15 UNK        -0.1800 
     87 C          -4.1990  -18.6032  -52.7411 C.2       15 UNK         0.5000 
     88 O          -4.9059  -18.7385  -53.7373 O.2       15 UNK        -0.5000 
     89 N          -4.6087  -18.8490  -51.4884 N.am      16 UNK        -0.5000 
     90 CA         -5.9167  -19.3813  -51.0781 C.3       16 UNK         0.1400 
     91 CB         -5.9973  -20.8834  -51.4198 C.3       16 UNK        -0.1800 
     92 C          -7.1067  -18.5830  -51.6548 C.2       16 UNK         0.5000 
     93 O          -7.9474  -19.1449  -52.3572 O.2       16 UNK        -0.5000 
     94 N          -7.1166  -17.2678  -51.3964 N.am      17 UNK        -0.5000 
     95 CA         -8.0741  -16.2797  -51.9124 C.3       17 UNK         0.1400 
     96 CB         -9.4846  -16.5230  -51.3352 C.3       17 UNK        -0.1800 
     97 C          -8.0566  -16.1786  -53.4548 C.2       17 UNK         0.5000 
     98 O          -9.1025  -16.0023  -54.0816 O.2       17 UNK        -0.5000 
     99 N          -6.8494  -16.3023  -54.0251 N.am      18 UNK        -0.5000 
    100 CA        -6.5117  -16.2852  -55.4526 C.3       18 UNK         0.1400 
    101 CB        -6.9163  -14.9497  -56.1119 C.3       18 UNK        -0.1800 
    102 C         -7.0052  -17.5186  -56.2413 C.2       18 UNK         0.5000 
    103 O         -7.0468  -17.4713  -57.4721 O.2       18 UNK        -0.5000 
    104 N         -7.3282  -18.6161  -55.5419 N.am      19 UNK        -0.5000 
    105 CA        -7.6253  -19.9175  -56.1459 C.3       19 UNK         0.1400 
    106 CB        -8.4019  -20.7799  -55.1397 C.3       19 UNK        -0.1800 
    107 C         -6.3544  -20.6597  -56.6065 C.2       19 UNK         0.5000 
    108 O         -6.4449  -21.5097  -57.4929 O.2       19 UNK        -0.5000 
    109 N         -5.2071  -20.3359  -55.9876 N.am      20 UNK        -0.5000 
    110 CA        -3.8786  -20.9276  -56.1789 C.3       20 UNK         0.1400 
    111 CB        -3.3337  -20.6139  -57.5872 C.3       20 UNK        -0.1800 
    112 C         -3.8474  -22.4304  -55.8331 C.2       20 UNK         0.5000 
    113 O         -3.1806  -23.2117  -56.5144 O.2       20 UNK        -0.5000 
    114 N         -4.5801  -22.8046  -54.7735 N.am      21 UNK        -0.5000 
    115 CA        -4.8445  -24.1824  -54.3449 C.3       21 UNK         0.1400 
    116 CB        -5.7833  -24.1501  -53.1289 C.3       21 UNK        -0.1800 
    117 C         -3.5916  -25.0237  -54.0308 C.2       21 UNK         0.5000 
    118 O         -3.6358  -26.2451  -54.1824 O.2       21 UNK        -0.5000 
    119 N         -2.5092  -24.3583  -53.6143 N.am      22 UNK        -0.5000 
    120 CA        -1.1855  -24.9520  -53.3724 C.3       22 UNK         0.1400 
    121 C         -0.1121  -24.4417  -54.3805 C.2       22 UNK         0.5000 
    122 N         -0.4785  -23.7897  -55.4785 N.am      22 UNK        -0.7600 
    123 O          1.0798  -24.6602  -54.1836 O.2       22 UNK        -0.5000 
    124 C124       -0.7682  -24.7859  -51.8831 C.3       23 UNK        -0.0398 
    125 S125       -1.4317  -26.1318  -50.8422 S.3       23 UNK        -0.2404 
    126 C126       -3.0009  -25.4440  -50.2281 C.3       23 UNK        -0.0205 
    127 H127       -3.2593  -14.3928  -48.0584 H         1 UNK         0.0600 
    128 H128       -3.5849  -14.2559  -49.7818 H         1 UNK         0.0600 
    129 H129       -2.2614  -15.2759  -49.2349 H         1 UNK         0.0600 
    130 H130       -4.7062  -17.8455  -47.9678 H         1 UNK         0.3000 
    131 H131       -2.0372  -16.7469  -47.4896 H         1 UNK         0.0600 
    132 H132       -1.8595  -18.7500  -45.9399 H         1 UNK         0.0800 
    133 H133       -3.4476  -19.2454  -46.4374 H         1 UNK         0.0800 
    134 H134       -3.1733  -20.4793  -49.8717 H         1 UNK         0.0800 
    135 H135       -4.0775  -20.3093  -48.3911 H         1 UNK         0.0800 
    136 H136       -3.3114  -22.7488  -50.4462 H         1 UNK         0.1150 
    137 H137       -2.2054  -25.7973  -47.6481 H         1 UNK         0.1150 
    138 H138       -2.2940  -21.6956  -46.4143 H         1 UNK         0.1150 
    139 H139       -1.6541  -23.3124  -44.8476 H         1 UNK         0.0800 
    140 H140       -2.3659  -24.8897  -45.0576 H         1 UNK         0.0800 
    141 H141        0.3460  -23.8426  -47.6845 H         1 UNK         0.0800 
    142 H142        1.8216  -24.4373  -47.0064 H         1 UNK         0.0800 
    143 H143        0.3459  -21.9005  -46.1481 H         1 UNK         0.0600 
    144 H144        1.4401  -21.9048  -44.2381 H         1 UNK         0.3000 
    145 H145        3.9689  -23.6953  -42.7980 H         1 UNK         0.0600 
    146 H146        5.2991  -21.6702  -42.2535 H         1 UNK         0.0600 
    147 H147        5.6415  -22.1948  -43.8942 H         1 UNK         0.0600 
    148 H148        4.5932  -20.8090  -43.6195 H         1 UNK         0.0600 
    149 H149        2.7416  -21.1741  -42.0816 H         1 UNK         0.3000 
    150 H150       -0.3143  -22.5837  -40.9037 H         1 UNK         0.0600 
    151 H151        1.2836  -22.8460  -38.9942 H         1 UNK         0.0600 
    152 H152        0.3421  -21.3696  -38.8462 H         1 UNK         0.0600 
    153 H153        2.0179  -21.2952  -39.3870 H         1 UNK         0.0600 
    154 H154        0.6087  -19.9064  -40.8965 H         1 UNK         0.3000 
    155 H155       -0.4485  -19.0394  -44.2206 H         1 UNK         0.0600 
    156 H156       -1.3736  -18.2619  -41.4049 H         1 UNK         0.0600 
    157 H157       -2.4099  -18.7970  -42.7207 H         1 UNK         0.0600 
    158 H158       -1.5522  -17.2699  -42.8482 H         1 UNK         0.0600 
    159 H159        0.9102  -17.5214  -42.2397 H         1 UNK         0.3000 
    160 H160        4.2307  -18.2955  -43.3198 H         1 UNK         0.0600 
    161 H161        4.2969  -15.8257  -43.5081 H         1 UNK         0.0600 
    162 H162        2.5381  -15.7458  -43.5403 H         1 UNK         0.0600 
    163 H163        3.4076  -16.5069  -44.8600 H         1 UNK         0.0600 
    164 H164        3.1097  -16.5944  -41.2817 H         1 UNK         0.3000 
    165 H165        3.1568  -19.0057  -38.6528 H         1 UNK         0.0600 
    166 H166        4.5915  -17.2631  -37.6278 H         1 UNK         0.0600 
    167 H167        5.5031  -18.1613  -38.8307 H         1 UNK         0.0600 
    168 H168        4.9086  -16.5488  -39.2090 H         1 UNK         0.0600 
    169 H169        2.4960  -16.2220  -38.7380 H         1 UNK         0.3000 
    170 H170       -0.9345  -16.5713  -39.6089 H         1 UNK         0.0600 
    171 H171       -0.8682  -17.0982  -37.1666 H         1 UNK         0.0600 
    172 H172        0.3745  -15.8763  -36.9243 H         1 UNK         0.0600 
    173 H173       -1.2436  -15.4056  -37.4458 H         1 UNK         0.0600 
    174 H174        0.5748  -14.2979  -38.8439 H         1 UNK         0.3000 
    175 H175        0.8202  -12.6731  -40.5083 H         1 UNK         0.0600 
    176 H176        3.4131  -14.0715  -41.4190 H         1 UNK         0.0600 
    177 H177        3.2614  -12.3611  -41.0263 H         1 UNK         0.0600 
    178 H178        3.0567  -13.5692  -39.7693 H         1 UNK         0.0600 
    179 H179        1.0085  -13.9488  -43.1094 H         1 UNK         0.3000 
    180 H180       -0.1722  -11.1171  -44.7187 H         1 UNK         0.0600 
    181 H181        2.6983  -12.0524  -45.2564 H         1 UNK         0.0600 
    182 H182        2.2068  -10.3903  -44.9553 H         1 UNK         0.0600 
    183 H183        1.6505  -11.2137  -46.4022 H         1 UNK         0.0600 
    184 H184        0.8253  -13.5320  -45.8392 H         1 UNK         0.3000 
    185 H185       -1.2828  -14.8078  -46.7229 H         1 UNK         0.0600 
    186 H186        0.8474  -15.7175  -45.8138 H         1 UNK         0.0600 
    187 H187        0.0439  -16.2197  -44.3383 H         1 UNK         0.0600 
    188 H188       -0.2957  -17.0342  -45.8608 H         1 UNK         0.0600 
    189 H189       -2.8513  -15.0812  -44.3878 H         1 UNK         0.3000 
    190 H190        2.6988  -20.3389  -45.9205 H         1 UNK         0.3000 
    191 H191        4.5525  -20.7896  -48.0105 H         1 UNK         0.0600 
    192 H192        5.5724  -18.6702  -47.1913 H         1 UNK         0.0600 
    193 H193        5.1268  -19.7162  -45.8519 H         1 UNK         0.0600 
    194 H194        4.1267  -18.3210  -46.2525 H         1 UNK         0.0600 
    195 H195        1.7678  -18.5762  -47.8617 H         1 UNK         0.3000 
    196 H196        2.5416  -17.0693  -50.2203 H         1 UNK         0.0600 
    197 H197        0.2805  -16.0365  -49.9550 H         1 UNK         0.0600 
    198 H198        1.1917  -16.0181  -48.4535 H         1 UNK         0.0600 
    199 H199       -0.0996  -17.1913  -48.6854 H         1 UNK         0.0600 
    200 H200        0.4411  -19.8165  -49.5811 H         1 UNK         0.3000 
    201 H201       -0.5978  -21.3569  -50.7326 H         1 UNK         0.0600 
    202 H202        1.6432  -21.7367  -51.7186 H         1 UNK         0.0600 
    203 H203        1.2864  -20.6119  -53.0303 H         1 UNK         0.0600 
    204 H204        0.3871  -22.1091  -52.8846 H         1 UNK         0.0600 
    205 H205       -1.2264  -18.2628  -51.4674 H         1 UNK         0.3000 
    206 H206       -2.4836  -18.2909  -53.9667 H         1 UNK         0.0600 
    207 H207       -1.6541  -16.2369  -52.8820 H         1 UNK         0.0600 
    208 H208       -3.3573  -16.0525  -53.2687 H         1 UNK         0.0600 
    209 H209       -2.8657  -16.3722  -51.6103 H         1 UNK         0.0600 
    210 H210       -3.9596  -18.6489  -50.7426 H         1 UNK         0.3000 
    211 H211       -5.9747  -19.2819  -49.9933 H         1 UNK         0.0600 
    212 H212       -5.1915  -21.4400  -50.9456 H         1 UNK         0.0600 
    213 H213       -5.9353  -21.0554  -52.4943 H         1 UNK         0.0600 
    214 H214       -6.9358  -21.3164  -51.0720 H         1 UNK         0.0600 
    215 H215       -6.3767  -16.8879  -50.8051 H         1 UNK         0.3000 
    216 H216       -7.7339  -15.3108  -51.5440 H         1 UNK         0.0600 
    217 H217      -10.1606  -15.7097  -51.6013 H         1 UNK         0.0600 
    218 H218       -9.4602  -16.5802  -50.2471 H         1 UNK         0.0600 
    219 H219       -9.9240  -17.4476  -51.7106 H         1 UNK         0.0600 
    220 H220       -6.0747  -16.5004  -53.4082 H         1 UNK         0.3000 
    221 H221       -5.4228  -16.3416  -55.4892 H         1 UNK         0.0600 
    222 H222       -7.9982  -14.8522  -56.2031 H         1 UNK         0.0600 
    223 H223       -6.5483  -14.0986  -55.5388 H         1 UNK         0.0600 
    224 H224       -6.4981  -14.8666  -57.1157 H         1 UNK         0.0600 
    225 H225       -7.2584  -18.5886  -54.5318 H         1 UNK         0.3000 
    226 H226       -8.2602  -19.7626  -57.0207 H         1 UNK         0.0600 
    227 H227       -8.7149  -21.7212  -55.5931 H         1 UNK         0.0600 
    228 H228       -7.7956  -21.0246  -54.2670 H         1 UNK         0.0600 
    229 H229       -9.3006  -20.2704  -54.7916 H         1 UNK         0.0600 
    230 H230       -5.2543  -19.6417  -55.2429 H         1 UNK         0.3000 
    231 H231       -3.2215  -20.4391  -55.4582 H         1 UNK         0.0600 
    232 H232       -3.3644  -19.5437  -57.7913 H         1 UNK         0.0600 
    233 H233       -3.9042  -21.1209  -58.3657 H         1 UNK         0.0600 
    234 H234       -2.2951  -20.9325  -57.6834 H         1 UNK         0.0600 
    235 H235       -5.0722  -22.0804  -54.2726 H         1 UNK         0.3000 
    236 H236       -5.3668  -24.6781  -55.1656 H         1 UNK         0.0600 
    237 H237       -6.0446  -25.1599  -52.8096 H         1 UNK         0.0600 
    238 H238       -5.3207  -23.6483  -52.2788 H         1 UNK         0.0600 
    239 H239       -6.7147  -23.6327  -53.3599 H         1 UNK         0.0600 
    240 H240       -2.5585  -23.3501  -53.5473 H         1 UNK         0.3000 
    241 H241       -1.2228  -26.0214  -53.5869 H         1 UNK         0.0600 
    242 H242       -1.4563  -23.6579  -55.7169 H         1 UNK         0.3800 
    243 H243        0.2322  -23.4801  -56.1218 H         1 UNK         0.3800 
    244 H244        0.3153  -24.8239  -51.7623 H         1 UNK         0.0800 
    245 H245       -1.0712  -23.8144  -51.4921 H         1 UNK         0.0800 
    246 H246       -3.5813  -25.0475  -51.0605 H         1 UNK         0.0800 
    247 H247       -3.5955  -26.2561  -49.8076 H         1 UNK         0.0800 
@<TRIPOS>BOND
     1    1    2 1    
     2    1  127 1    
     3    1  128 1    
     4    1  129 1    
     5    2    3 2    
     6    2    4 am   BACKBONE|DICT|INTERRES
     7    4    5 1    
     8    4  130 1    
     9    5    6 1    
    10    5   65 1    
    11    5  131 1    
    12    6    7 1    
    13    6  132 1    
    14    6  133 1    
    15    7    8 1    
    16    8    9 1    
    17    8  134 1    
    18    8  135 1    
    19    9   10 ar   
    20    9   14 ar   
    21   10   11 ar   
    22   10  136 1    
    23   11   12 ar   
    24   11  126 1    
    25   12   13 ar   
    26   12  137 1    
    27   13   14 ar   
    28   13   15 1    
    29   14  138 1    
    30   15   16 1    
    31   15  139 1    
    32   15  140 1    
    33   16   17 1    
    34   17   18 1    
    35   17  141 1    
    36   17  142 1    
    37   18   19 1    
    38   18   67 1    
    39   18  143 1    
    40   19   20 am   BACKBONE|DICT|INTERRES
    41   19  144 1    
    42   20   21 2    
    43   20   22 1    
    44   22   23 1    
    45   22   24 1    
    46   22  145 1    
    47   23  146 1    
    48   23  147 1    
    49   23  148 1    
    50   24   25 am   BACKBONE|DICT|INTERRES
    51   24  149 1    
    52   25   26 2    
    53   25   27 1    
    54   27   28 1    
    55   27   29 1    
    56   27  150 1    
    57   28  151 1    
    58   28  152 1    
    59   28  153 1    
    60   29   30 am   BACKBONE|DICT|INTERRES
    61   29  154 1    
    62   30   31 2    
    63   30   32 1    
    64   32   33 1    
    65   32   34 1    
    66   32  155 1    
    67   33  156 1    
    68   33  157 1    
    69   33  158 1    
    70   34   35 am   BACKBONE|DICT|INTERRES
    71   34  159 1    
    72   35   36 2    
    73   35   37 1    
    74   37   38 1    
    75   37   39 1    
    76   37  160 1    
    77   38  161 1    
    78   38  162 1    
    79   38  163 1    
    80   39   40 am   BACKBONE|DICT|INTERRES
    81   39  164 1    
    82   40   41 2    
    83   40   42 1    
    84   42   43 1    
    85   42   44 1    
    86   42  165 1    
    87   43  166 1    
    88   43  167 1    
    89   43  168 1    
    90   44   45 am   BACKBONE|DICT|INTERRES
    91   44  169 1    
    92   45   46 2    
    93   45   47 1    
    94   47   48 1    
    95   47   49 1    
    96   47  170 1    
    97   48  171 1    
    98   48  172 1    
    99   48  173 1    
   100   49   50 am   BACKBONE|DICT|INTERRES
   101   49  174 1    
   102   50   51 2    
   103   50   52 1    
   104   52   53 1    
   105   52   54 1    
   106   52  175 1    
   107   53  176 1    
   108   53  177 1    
   109   53  178 1    
   110   54   55 am   BACKBONE|DICT|INTERRES
   111   54  179 1    
   112   55   56 2    
   113   55   57 1    
   114   57   58 1    
   115   57   59 1    
   116   57  180 1    
   117   58  181 1    
   118   58  182 1    
   119   58  183 1    
   120   59   60 am   BACKBONE|DICT|INTERRES
   121   59  184 1    
   122   60   61 2    
   123   60   62 1    
   124   62   63 1    
   125   62   64 1    
   126   62  185 1    
   127   63  186 1    
   128   63  187 1    
   129   63  188 1    
   130   64   65 am   BACKBONE|DICT|INTERRES
   131   64  189 1    
   132   65   66 2    
   133   67   68 2    
   134   67   69 am   BACKBONE|DICT|INTERRES
   135   69   70 1    
   136   69  190 1    
   137   70   71 1    
   138   70   72 1    
   139   70  191 1    
   140   71  192 1    
   141   71  193 1    
   142   71  194 1    
   143   72   73 2    
   144   72   74 am   BACKBONE|DICT|INTERRES
   145   74   75 1    
   146   74  195 1    
   147   75   76 1    
   148   75   77 1    
   149   75  196 1    
   150   76  197 1    
   151   76  198 1    
   152   76  199 1    
   153   77   78 2    
   154   77   79 am   BACKBONE|DICT|INTERRES
   155   79   80 1    
   156   79  200 1    
   157   80   81 1    
   158   80   82 1    
   159   80  201 1    
   160   81  202 1    
   161   81  203 1    
   162   81  204 1    
   163   82   83 2    
   164   82   84 am   BACKBONE|DICT|INTERRES
   165   84   85 1    
   166   84  205 1    
   167   85   86 1    
   168   85   87 1    
   169   85  206 1    
   170   86  207 1    
   171   86  208 1    
   172   86  209 1    
   173   87   88 2    
   174   87   89 am   BACKBONE|DICT|INTERRES
   175   89   90 1    
   176   89  210 1    
   177   90   91 1    
   178   90   92 1    
   179   90  211 1    
   180   91  212 1    
   181   91  213 1    
   182   91  214 1    
   183   92   93 2    
   184   92   94 am   BACKBONE|DICT|INTERRES
   185   94   95 1    
   186   94  215 1    
   187   95   96 1    
   188   95   97 1    
   189   95  216 1    
   190   96  217 1    
   191   96  218 1    
   192   96  219 1    
   193   97   98 2    
   194   97   99 am   BACKBONE|DICT|INTERRES
   195   99  100 1    
   196   99  220 1    
   197  100  101 1    
   198  100  102 1    
   199  100  221 1    
   200  101  222 1    
   201  101  223 1    
   202  101  224 1    
   203  102  103 2    
   204  102  104 am   BACKBONE|DICT|INTERRES
   205  104  105 1    
   206  104  225 1    
   207  105  106 1    
   208  105  107 1    
   209  105  226 1    
   210  106  227 1    
   211  106  228 1    
   212  106  229 1    
   213  107  108 2    
   214  107  109 am   BACKBONE|DICT|INTERRES
   215  109  110 1    
   216  109  230 1    
   217  110  111 1    
   218  110  112 1    
   219  110  231 1    
   220  111  232 1    
   221  111  233 1    
   222  111  234 1    
   223  112  113 2    
   224  112  114 am   BACKBONE|DICT|INTERRES
   225  114  115 1    
   226  114  235 1    
   227  115  116 1    
   228  115  117 1    
   229  115  236 1    
   230  116  237 1    
   231  116  238 1    
   232  116  239 1    
   233  117  118 2    
   234  117  119 am   BACKBONE|DICT|INTERRES
   235  119  120 1    
   236  119  240 1    
   237  120  121 1    
   238  120  124 1    
   239  120  241 1    
   240  121  122 am   BACKBONE|DICT|INTERRES
   241  121  123 2    
   242  122  242 1    
   243  122  243 1    
   244  124  125 1    
   245  124  244 1    
   246  124  245 1    
   247  125  126 1    
   248  126  246 1    
   249  126  247 1    
@<TRIPOS>SUBSTRUCTURE
     1 UNK         1 GROUP             0       ****    0 ROOT    
