@<TRIPOS>MOLECULE
3R540
247   249    1
SMALL
USER_CHARGES


@<TRIPOS>ATOM
      1 CA         -2.8171  -15.9791  -43.9255 C.3       0 UNK        -0.1800 
      2 C          -1.9634  -15.2047  -44.9175 C.2       0 UNK         0.5000 
      3 O          -0.8127  -14.8830  -44.6227 O.2       0 UNK        -0.5000 
      4 N          -2.5455  -14.8724  -46.0786 N.am      1 UNK        -0.5000 
      5 CA         -1.9757  -14.0917  -47.1886 C.3       1 UNK         0.1400 
      6 C6         -0.6786  -14.7082  -47.7761 C.3       23 UNK        -0.0398 
      7 S7         -0.3138  -14.1210  -49.4658 S.3       23 UNK        -0.2404 
      8 C8         -1.0186  -15.4515  -50.4899 C.3       23 UNK        -0.0205 
      9 C9          0.0462  -16.4170  -50.9909 C.ar      23 UNK        -0.0193 
     10 C10         0.7339  -16.1390  -52.1738 C.ar      23 UNK        -0.1150 
     11 C11         1.6767  -17.0384  -52.6757 C.ar      23 UNK        -0.0193 
     12 C12         1.9387  -18.2208  -51.9776 C.ar      23 UNK        -0.1150 
     13 C13         1.2343  -18.5386  -50.8128 C.ar      23 UNK        -0.0193 
     14 C14         0.3062  -17.6100  -50.3113 C.ar      23 UNK        -0.1150 
     15 C15         1.4817  -19.9082  -50.1689 C.3       23 UNK        -0.0205 
     16 S16         0.2034  -20.4079  -48.9733 S.3       23 UNK        -0.2404 
     17 C17         0.4620  -22.2012  -48.7608 C.3       23 UNK        -0.0398 
     18 CA         -0.3101  -22.8021  -47.5533 C.3       11 UNK         0.1400 
     19 N           0.3084  -22.4427  -46.2715 N.am      11 UNK        -0.5000 
     20 C          -0.0084  -23.0039  -45.0948 C.2       10 UNK         0.5000 
     21 O          -0.8432  -23.8985  -44.9705 O.2       10 UNK        -0.5000 
     22 CA          0.6725  -22.4340  -43.8380 C.3       10 UNK         0.1400 
     23 CB          2.0994  -22.9812  -43.6919 C.3       10 UNK        -0.1800 
     24 N           0.6952  -20.9710  -43.8234 N.am      10 UNK        -0.5000 
     25 C          -0.4000  -20.1968  -43.8119 C.2       9 UNK         0.5000 
     26 O          -1.5476  -20.6414  -43.7943 O.2       9 UNK        -0.5000 
     27 CA         -0.1825  -18.6778  -43.8642 C.3       9 UNK         0.1400 
     28 CB          0.0246  -18.1081  -42.4561 C.3       9 UNK        -0.1800 
     29 N           0.9595  -18.3441  -44.7145 N.am      9 UNK        -0.5000 
     30 C           0.8558  -18.1155  -46.0316 C.2       8 UNK         0.5000 
     31 O          -0.2223  -18.0349  -46.6177 O.2       8 UNK        -0.5000 
     32 CA          2.1625  -17.9872  -46.8432 C.3       8 UNK         0.1400 
     33 CB          2.4890  -16.5235  -47.1681 C.3       8 UNK        -0.1800 
     34 N           3.3180  -18.6108  -46.1975 N.am      8 UNK        -0.5000 
     35 C           3.4910  -19.9340  -46.0710 C.2       7 UNK         0.5000 
     36 O           2.6906  -20.7730  -46.4837 O.2       7 UNK        -0.5000 
     37 CA          4.7478  -20.3962  -45.3088 C.3       7 UNK         0.1400 
     38 CB          5.9244  -20.5767  -46.2789 C.3       7 UNK        -0.1800 
     39 N           5.1533  -19.5029  -44.2178 N.am      7 UNK        -0.5000 
     40 C           4.3887  -19.1480  -43.1748 C.2       6 UNK         0.5000 
     41 O           3.2116  -19.4944  -43.0552 O.2       6 UNK        -0.5000 
     42 CA          5.0235  -18.2270  -42.1126 C.3       6 UNK         0.1400 
     43 CB          6.5601  -18.1323  -42.2027 C.3       6 UNK        -0.1800 
     44 N           4.4596  -16.8855  -42.2450 N.am      6 UNK        -0.5000 
     45 C           3.3538  -16.4566  -41.6259 C.2       5 UNK         0.5000 
     46 O           2.7596  -17.0994  -40.7554 O.2       5 UNK        -0.5000 
     47 CA          2.8169  -15.0816  -42.0600 C.3       5 UNK         0.1400 
     48 CB          2.5792  -15.0242  -43.5853 C.3       5 UNK        -0.1800 
     49 N           1.5696  -14.8318  -41.3447 N.am      5 UNK        -0.5000 
     50 C           0.8950  -13.6814  -41.3080 C.2       4 UNK         0.5000 
     51 O           1.2875  -12.6345  -41.8292 O.2       4 UNK        -0.5000 
     52 CA         -0.4418  -13.7013  -40.5561 C.3       4 UNK         0.1400 
     53 CB         -0.2705  -13.2673  -39.0915 C.3       4 UNK        -0.1800 
     54 N          -1.3500  -12.7915  -41.2394 N.am      4 UNK        -0.5000 
     55 C          -2.6666  -12.9527  -41.3871 C.2       3 UNK         0.5000 
     56 O          -3.3065  -13.8545  -40.8453 O.2       3 UNK        -0.5000 
     57 CA         -3.3948  -11.9772  -42.3342 C.3       3 UNK         0.1400 
     58 CB         -3.8372  -10.6974  -41.5992 C.3       3 UNK        -0.1800 
     59 N          -2.6495  -11.6816  -43.5678 N.am      3 UNK        -0.5000 
     60 C          -1.5298  -10.9605  -43.7369 C.2       2 UNK         0.5000 
     61 O          -0.9744  -10.3415  -42.8289 O.2       2 UNK        -0.5000 
     62 CA         -0.9061  -10.9922  -45.1465 C.3       2 UNK         0.1400 
     63 CB          0.6019  -10.6834  -45.1299 C.3       2 UNK        -0.1800 
     64 N          -1.1042  -12.3121  -45.7429 N.am      2 UNK        -0.5000 
     65 C          -1.8187  -12.5947  -46.8360 C.2       1 UNK         0.5000 
     66 O          -2.3825  -11.7424  -47.5232 O.2       1 UNK        -0.5000 
     67 C          -1.8220  -22.4636  -47.5849 C.2       11 UNK         0.5000 
     68 O          -2.6113  -23.2043  -48.1788 O.2       11 UNK        -0.5000 
     69 N          -2.1929  -21.3463  -46.9402 N.am      12 UNK        -0.5000 
     70 CA         -3.5623  -20.8577  -46.8245 C.3       12 UNK         0.1400 
     71 CB         -3.5685  -19.4034  -46.3296 C.3       12 UNK        -0.1800 
     72 C          -4.4070  -21.7720  -45.9260 C.2       12 UNK         0.5000 
     73 O          -5.5116  -22.1519  -46.3143 O.2       12 UNK        -0.5000 
     74 N          -3.8426  -22.1566  -44.7740 N.am      13 UNK        -0.5000 
     75 CA         -4.4270  -23.1212  -43.8444 C.3       13 UNK         0.1400 
     76 CB         -3.5880  -23.1535  -42.5578 C.3       13 UNK        -0.1800 
     77 C          -4.5551  -24.5332  -44.4477 C.2       13 UNK         0.5000 
     78 O          -5.5509  -25.2108  -44.1906 O.2       13 UNK        -0.5000 
     79 N          -3.5524  -24.9467  -45.2354 N.am      14 UNK        -0.5000 
     80 CA         -3.4945  -26.2522  -45.8870 C.3       14 UNK         0.1400 
     81 CB         -2.0749  -26.5113  -46.4160 C.3       14 UNK        -0.1800 
     82 C          -4.5306  -26.4220  -47.0107 C.2       14 UNK         0.5000 
     83 O          -5.2756  -27.4034  -46.9903 O.2       14 UNK        -0.5000 
     84 N          -4.5431  -25.4994  -47.9845 N.am      15 UNK        -0.5000 
     85 CA         -5.3088  -25.6653  -49.2243 C.3       15 UNK         0.1400 
     86 CB         -4.5528  -26.6201  -50.1748 C.3       15 UNK        -0.1800 
     87 C          -5.6546  -24.3313  -49.9073 C.2       15 UNK         0.5000 
     88 O          -5.7855  -24.3022  -51.1327 O.2       15 UNK        -0.5000 
     89 N          -5.7768  -23.2393  -49.1364 N.am      16 UNK        -0.5000 
     90 CA         -6.0925  -21.8842  -49.6170 C.3       16 UNK         0.1400 
     91 CB         -7.5455  -21.8180  -50.1346 C.3       16 UNK        -0.1800 
     92 C          -5.0679  -21.3604  -50.6493 C.2       16 UNK         0.5000 
     93 O          -5.4527  -20.7229  -51.6299 O.2       16 UNK        -0.5000 
     94 N          -3.7846  -21.6944  -50.4374 N.am      17 UNK        -0.5000 
     95 CA         -2.6532  -21.4502  -51.3399 C.3       17 UNK         0.1400 
     96 CB         -2.3749  -19.9401  -51.4923 C.3       17 UNK        -0.1800 
     97 C          -2.8214  -22.1765  -52.6903 C.2       17 UNK         0.5000 
     98 O          -2.5169  -21.6108  -53.7419 O.2       17 UNK        -0.5000 
     99 N          -3.3286  -23.4168  -52.6310 N.am      18 UNK        -0.5000 
    100 CA        -3.7221  -24.2723  -53.7568 C.3       18 UNK         0.1400 
    101 CB        -2.4934  -24.6993  -54.5859 C.3       18 UNK        -0.1800 
    102 C         -4.8369  -23.6227  -54.6028 C.2       18 UNK         0.5000 
    103 O         -4.7593  -23.6133  -55.8316 O.2       18 UNK        -0.5000 
    104 N         -5.8382  -23.0662  -53.9049 N.am      19 UNK        -0.5000 
    105 CA        -6.9339  -22.2431  -54.4259 C.3       19 UNK         0.1400 
    106 CB        -7.8897  -23.0849  -55.2969 C.3       19 UNK        -0.1800 
    107 C         -6.4176  -20.9699  -55.1324 C.2       19 UNK         0.5000 
    108 O         -6.7652  -20.7117  -56.2865 O.2       19 UNK        -0.5000 
    109 N         -5.5917  -20.2038  -54.4043 N.am      20 UNK        -0.5000 
    110 CA        -4.9661  -18.9358  -54.7938 C.3       20 UNK         0.1400 
    111 CB        -6.0312  -17.8263  -54.9179 C.3       20 UNK        -0.1800 
    112 C         -4.0607  -19.0514  -56.0395 C.2       20 UNK         0.5000 
    113 O         -4.1303  -18.2081  -56.9361 O.2       20 UNK        -0.5000 
    114 N         -3.2219  -20.0936  -56.0665 N.am      21 UNK        -0.5000 
    115 CA        -2.2779  -20.3941  -57.1469 C.3       21 UNK         0.1400 
    116 CB        -2.6783  -21.7329  -57.7888 C.3       21 UNK        -0.1800 
    117 C         -0.8181  -20.4253  -56.6499 C.2       21 UNK         0.5000 
    118 O          0.0608  -20.8658  -57.3924 O.2       21 UNK        -0.5000 
    119 N         -0.5845  -19.9736  -55.4100 N.am      22 UNK        -0.5000 
    120 CA         0.6965  -20.0250  -54.6828 C.3       22 UNK         0.1400 
    121 C          1.1608  -21.4675  -54.3130 C.2       22 UNK         0.5000 
    122 N          0.2549  -22.4270  -54.1822 N.am      22 UNK        -0.7600 
    123 O          2.3454  -21.7221  -54.1127 O.2       22 UNK        -0.5000 
    124 C124        1.8268  -19.1737  -55.3337 C.3       23 UNK        -0.0398 
    125 S125        1.4362  -17.3916  -55.4129 S.3       23 UNK        -0.2404 
    126 C126        2.3801  -16.7441  -53.9919 C.3       23 UNK        -0.0205 
    127 H127       -2.2492  -16.2093  -43.0241 H         1 UNK         0.0600 
    128 H128       -3.1623  -16.9154  -44.3634 H         1 UNK         0.0600 
    129 H129       -3.6870  -15.3914  -43.6324 H         1 UNK         0.0600 
    130 H130       -3.5034  -15.1596  -46.2256 H         1 UNK         0.3000 
    131 H131       -2.7372  -14.1436  -47.9688 H         1 UNK         0.0600 
    132 H132       -0.7636  -15.7940  -47.8021 H         1 UNK         0.0800 
    133 H133        0.1780  -14.4927  -47.1359 H         1 UNK         0.0800 
    134 H134       -1.5228  -14.9972  -51.3442 H         1 UNK         0.0800 
    135 H135       -1.7946  -15.9877  -49.9413 H         1 UNK         0.0800 
    136 H136        0.5211  -15.2277  -52.7152 H         1 UNK         0.1150 
    137 H137        2.6603  -18.9230  -52.3709 H         1 UNK         0.1150 
    138 H138       -0.2460  -17.8140  -49.4058 H         1 UNK         0.1150 
    139 H139        1.5259  -20.6644  -50.9545 H         1 UNK         0.0800 
    140 H140        2.4548  -19.9089  -49.6764 H         1 UNK         0.0800 
    141 H141        0.1604  -22.7022  -49.6814 H         1 UNK         0.0800 
    142 H142        1.5307  -22.3929  -48.6534 H         1 UNK         0.0800 
    143 H143       -0.2343  -23.8877  -47.6391 H         1 UNK         0.0600 
    144 H144        1.0325  -21.7286  -46.3019 H         1 UNK         0.3000 
    145 H145        0.0956  -22.7595  -42.9698 H         1 UNK         0.0600 
    146 H146        2.6023  -22.5563  -42.8230 H         1 UNK         0.0600 
    147 H147        2.7045  -22.7667  -44.5718 H         1 UNK         0.0600 
    148 H148        2.0860  -24.0643  -43.5647 H         1 UNK         0.0600 
    149 H149        1.6054  -20.5270  -43.7837 H         1 UNK         0.3000 
    150 H150       -1.0892  -18.2290  -44.2712 H         1 UNK         0.0600 
    151 H151       -0.8428  -18.3058  -41.8253 H         1 UNK         0.0600 
    152 H152        0.1632  -17.0282  -42.4889 H         1 UNK         0.0600 
    153 H153        0.8923  -18.5501  -41.9666 H         1 UNK         0.0600 
    154 H154        1.8771  -18.4479  -44.2997 H         1 UNK         0.3000 
    155 H155        2.0069  -18.4975  -47.7918 H         1 UNK         0.0600 
    156 H156        1.7484  -16.1137  -47.8534 H         1 UNK         0.0600 
    157 H157        3.4567  -16.4312  -47.6612 H         1 UNK         0.0600 
    158 H158        2.5013  -15.8977  -46.2773 H         1 UNK         0.0600 
    159 H159        4.0240  -17.9943  -45.8240 H         1 UNK         0.3000 
    160 H160        4.5254  -21.3675  -44.8653 H         1 UNK         0.0600 
    161 H161        6.2257  -19.6294  -46.7278 H         1 UNK         0.0600 
    162 H162        5.6605  -21.2557  -47.0910 H         1 UNK         0.0600 
    163 H163        6.7922  -21.0005  -45.7730 H         1 UNK         0.0600 
    164 H164        6.1056  -19.1684  -44.2459 H         1 UNK         0.3000 
    165 H165        4.7737  -18.6454  -41.1353 H         1 UNK         0.0600 
    166 H166        6.9577  -17.5376  -41.3799 H         1 UNK         0.0600 
    167 H167        7.0215  -19.1184  -42.1332 H         1 UNK         0.0600 
    168 H168        6.8936  -17.6675  -43.1313 H         1 UNK         0.0600 
    169 H169        4.8870  -16.2908  -42.9398 H         1 UNK         0.3000 
    170 H170        3.5487  -14.3250  -41.7709 H         1 UNK         0.0600 
    171 H171        1.8502  -15.7703  -43.9009 H         1 UNK         0.0600 
    172 H172        2.2053  -14.0504  -43.9008 H         1 UNK         0.0600 
    173 H173        3.4991  -15.1989  -44.1429 H         1 UNK         0.0600 
    174 H174        1.2350  -15.6412  -40.8353 H         1 UNK         0.3000 
    175 H175       -0.8443  -14.7163  -40.5910 H         1 UNK         0.0600 
    176 H176        0.1293  -12.2552  -39.0176 H         1 UNK         0.0600 
    177 H177       -1.2218  -13.2914  -38.5596 H         1 UNK         0.0600 
    178 H178        0.4146  -13.9325  -38.5647 H         1 UNK         0.0600 
    179 H179       -0.8954  -12.0275  -41.7332 H         1 UNK         0.3000 
    180 H180       -4.3017  -12.4874  -42.6628 H         1 UNK         0.0600 
    181 H181       -2.9927  -10.1524  -41.1770 H         1 UNK         0.0600 
    182 H182       -4.5081  -10.9395  -40.7741 H         1 UNK         0.0600 
    183 H183       -4.3733  -10.0234  -42.2672 H         1 UNK         0.0600 
    184 H184       -2.9966  -12.1563  -44.3887 H         1 UNK         0.3000 
    185 H185       -1.4087  -10.2223  -45.7349 H         1 UNK         0.0600 
    186 H186        1.1489  -11.3930  -44.5073 H         1 UNK         0.0600 
    187 H187        1.0229  -10.7257  -46.1345 H         1 UNK         0.0600 
    188 H188        0.7952   -9.6835  -44.7397 H         1 UNK         0.0600 
    189 H189       -0.7394  -13.1023  -45.2138 H         1 UNK         0.3000 
    190 H190       -1.4755  -20.7938  -46.4930 H         1 UNK         0.3000 
    191 H191       -3.9971  -20.8609  -47.8214 H         1 UNK         0.0600 
    192 H192       -2.9725  -18.7630  -46.9807 H         1 UNK         0.0600 
    193 H193       -3.1726  -19.3120  -45.3195 H         1 UNK         0.0600 
    194 H194       -4.5826  -19.0026  -46.3186 H         1 UNK         0.0600 
    195 H195       -2.9409  -21.7635  -44.5166 H         1 UNK         0.3000 
    196 H196       -5.4309  -22.7752  -43.5897 H         1 UNK         0.0600 
    197 H197       -3.5517  -22.1710  -42.0867 H         1 UNK         0.0600 
    198 H198       -2.5619  -23.4663  -42.7546 H         1 UNK         0.0600 
    199 H199       -4.0114  -23.8484  -41.8316 H         1 UNK         0.0600 
    200 H200       -2.7307  -24.3577  -45.3272 H         1 UNK         0.3000 
    201 H201       -3.7052  -27.0101  -45.1293 H         1 UNK         0.0600 
    202 H202       -1.3477  -26.5187  -45.6041 H         1 UNK         0.0600 
    203 H203       -1.7665  -25.7528  -47.1354 H         1 UNK         0.0600 
    204 H204       -2.0132  -27.4799  -46.9137 H         1 UNK         0.0600 
    205 H205       -3.8948  -24.7174  -47.9467 H         1 UNK         0.3000 
    206 H206       -6.2733  -26.1179  -48.9854 H         1 UNK         0.0600 
    207 H207       -4.3755  -27.5902  -49.7108 H         1 UNK         0.0600 
    208 H208       -3.5860  -26.2081  -50.4660 H         1 UNK         0.0600 
    209 H209       -5.1208  -26.8077  -51.0869 H         1 UNK         0.0600 
    210 H210       -5.6626  -23.3276  -48.1330 H         1 UNK         0.3000 
    211 H211       -6.0347  -21.2163  -48.7590 H         1 UNK         0.0600 
    212 H212       -7.6880  -22.4186  -51.0332 H         1 UNK         0.0600 
    213 H213       -7.8273  -20.7933  -50.3797 H         1 UNK         0.0600 
    214 H214       -8.2472  -22.1735  -49.3802 H         1 UNK         0.0600 
    215 H215       -3.5666  -22.2517  -49.6170 H         1 UNK         0.3000 
    216 H216       -1.7806  -21.8979  -50.8657 H         1 UNK         0.0600 
    217 H217       -1.4446  -19.7676  -52.0342 H         1 UNK         0.0600 
    218 H218       -2.2746  -19.4589  -50.5196 H         1 UNK         0.0600 
    219 H219       -3.1691  -19.4290  -52.0343 H         1 UNK         0.0600 
    220 H220       -3.6086  -23.7614  -51.7236 H         1 UNK         0.3000 
    221 H221       -4.1544  -25.1746  -53.3217 H         1 UNK         0.0600 
    222 H222       -2.0490  -23.8599  -55.1192 H         1 UNK         0.0600 
    223 H223       -1.7245  -25.1418  -53.9529 H         1 UNK         0.0600 
    224 H224       -2.7695  -25.4458  -55.3313 H         1 UNK         0.0600 
    225 H225       -5.8114  -23.1742  -52.8964 H         1 UNK         0.3000 
    226 H226       -7.4993  -21.9023  -53.5574 H         1 UNK         0.0600 
    227 H227       -8.2532  -23.9563  -54.7523 H         1 UNK         0.0600 
    228 H228       -8.7614  -22.5002  -55.5930 H         1 UNK         0.0600 
    229 H229       -7.4082  -23.4365  -56.2097 H         1 UNK         0.0600 
    230 H230       -5.4078  -20.4957  -53.4457 H         1 UNK         0.3000 
    231 H231       -4.3071  -18.6591  -53.9707 H         1 UNK         0.0600 
    232 H232       -5.5660  -16.8540  -55.0845 H         1 UNK         0.0600 
    233 H233       -6.6252  -17.7480  -54.0072 H         1 UNK         0.0600 
    234 H234       -6.7131  -18.0097  -55.7487 H         1 UNK         0.0600 
    235 H235       -3.2050  -20.7332  -55.2751 H         1 UNK         0.3000 
    236 H236       -2.3217  -19.6238  -57.9189 H         1 UNK         0.0600 
    237 H237       -2.5614  -22.5609  -57.0899 H         1 UNK         0.0600 
    238 H238       -3.7179  -21.7181  -58.1169 H         1 UNK         0.0600 
    239 H239       -2.0645  -21.9514  -58.6633 H         1 UNK         0.0600 
    240 H240       -1.3786  -19.6608  -54.8717 H         1 UNK         0.3000 
    241 H241        0.4698  -19.5765  -53.7181 H         1 UNK         0.0600 
    242 H242        0.5518  -23.3598  -53.9464 H         1 UNK         0.3800 
    243 H243       -0.7305  -22.2105  -54.2815 H         1 UNK         0.3800 
    244 H244        2.0382  -19.5249  -56.3438 H         1 UNK         0.0800 
    245 H245        2.7642  -19.2897  -54.7889 H         1 UNK         0.0800 
    246 H246        2.4951  -15.6657  -54.1120 H         1 UNK         0.0800 
    247 H247        3.3909  -17.1545  -53.9890 H         1 UNK         0.0800 
@<TRIPOS>BOND
     1    1    2 1    
     2    1  127 1    
     3    1  128 1    
     4    1  129 1    
     5    2    3 2    
     6    2    4 am   BACKBONE|DICT|INTERRES
     7    4    5 1    
     8    4  130 1    
     9    5    6 1    
    10    5   65 1    
    11    5  131 1    
    12    6    7 1    
    13    6  132 1    
    14    6  133 1    
    15    7    8 1    
    16    8    9 1    
    17    8  134 1    
    18    8  135 1    
    19    9   10 ar   
    20    9   14 ar   
    21   10   11 ar   
    22   10  136 1    
    23   11   12 ar   
    24   11  126 1    
    25   12   13 ar   
    26   12  137 1    
    27   13   14 ar   
    28   13   15 1    
    29   14  138 1    
    30   15   16 1    
    31   15  139 1    
    32   15  140 1    
    33   16   17 1    
    34   17   18 1    
    35   17  141 1    
    36   17  142 1    
    37   18   19 1    
    38   18   67 1    
    39   18  143 1    
    40   19   20 am   BACKBONE|DICT|INTERRES
    41   19  144 1    
    42   20   21 2    
    43   20   22 1    
    44   22   23 1    
    45   22   24 1    
    46   22  145 1    
    47   23  146 1    
    48   23  147 1    
    49   23  148 1    
    50   24   25 am   BACKBONE|DICT|INTERRES
    51   24  149 1    
    52   25   26 2    
    53   25   27 1    
    54   27   28 1    
    55   27   29 1    
    56   27  150 1    
    57   28  151 1    
    58   28  152 1    
    59   28  153 1    
    60   29   30 am   BACKBONE|DICT|INTERRES
    61   29  154 1    
    62   30   31 2    
    63   30   32 1    
    64   32   33 1    
    65   32   34 1    
    66   32  155 1    
    67   33  156 1    
    68   33  157 1    
    69   33  158 1    
    70   34   35 am   BACKBONE|DICT|INTERRES
    71   34  159 1    
    72   35   36 2    
    73   35   37 1    
    74   37   38 1    
    75   37   39 1    
    76   37  160 1    
    77   38  161 1    
    78   38  162 1    
    79   38  163 1    
    80   39   40 am   BACKBONE|DICT|INTERRES
    81   39  164 1    
    82   40   41 2    
    83   40   42 1    
    84   42   43 1    
    85   42   44 1    
    86   42  165 1    
    87   43  166 1    
    88   43  167 1    
    89   43  168 1    
    90   44   45 am   BACKBONE|DICT|INTERRES
    91   44  169 1    
    92   45   46 2    
    93   45   47 1    
    94   47   48 1    
    95   47   49 1    
    96   47  170 1    
    97   48  171 1    
    98   48  172 1    
    99   48  173 1    
   100   49   50 am   BACKBONE|DICT|INTERRES
   101   49  174 1    
   102   50   51 2    
   103   50   52 1    
   104   52   53 1    
   105   52   54 1    
   106   52  175 1    
   107   53  176 1    
   108   53  177 1    
   109   53  178 1    
   110   54   55 am   BACKBONE|DICT|INTERRES
   111   54  179 1    
   112   55   56 2    
   113   55   57 1    
   114   57   58 1    
   115   57   59 1    
   116   57  180 1    
   117   58  181 1    
   118   58  182 1    
   119   58  183 1    
   120   59   60 am   BACKBONE|DICT|INTERRES
   121   59  184 1    
   122   60   61 2    
   123   60   62 1    
   124   62   63 1    
   125   62   64 1    
   126   62  185 1    
   127   63  186 1    
   128   63  187 1    
   129   63  188 1    
   130   64   65 am   BACKBONE|DICT|INTERRES
   131   64  189 1    
   132   65   66 2    
   133   67   68 2    
   134   67   69 am   BACKBONE|DICT|INTERRES
   135   69   70 1    
   136   69  190 1    
   137   70   71 1    
   138   70   72 1    
   139   70  191 1    
   140   71  192 1    
   141   71  193 1    
   142   71  194 1    
   143   72   73 2    
   144   72   74 am   BACKBONE|DICT|INTERRES
   145   74   75 1    
   146   74  195 1    
   147   75   76 1    
   148   75   77 1    
   149   75  196 1    
   150   76  197 1    
   151   76  198 1    
   152   76  199 1    
   153   77   78 2    
   154   77   79 am   BACKBONE|DICT|INTERRES
   155   79   80 1    
   156   79  200 1    
   157   80   81 1    
   158   80   82 1    
   159   80  201 1    
   160   81  202 1    
   161   81  203 1    
   162   81  204 1    
   163   82   83 2    
   164   82   84 am   BACKBONE|DICT|INTERRES
   165   84   85 1    
   166   84  205 1    
   167   85   86 1    
   168   85   87 1    
   169   85  206 1    
   170   86  207 1    
   171   86  208 1    
   172   86  209 1    
   173   87   88 2    
   174   87   89 am   BACKBONE|DICT|INTERRES
   175   89   90 1    
   176   89  210 1    
   177   90   91 1    
   178   90   92 1    
   179   90  211 1    
   180   91  212 1    
   181   91  213 1    
   182   91  214 1    
   183   92   93 2    
   184   92   94 am   BACKBONE|DICT|INTERRES
   185   94   95 1    
   186   94  215 1    
   187   95   96 1    
   188   95   97 1    
   189   95  216 1    
   190   96  217 1    
   191   96  218 1    
   192   96  219 1    
   193   97   98 2    
   194   97   99 am   BACKBONE|DICT|INTERRES
   195   99  100 1    
   196   99  220 1    
   197  100  101 1    
   198  100  102 1    
   199  100  221 1    
   200  101  222 1    
   201  101  223 1    
   202  101  224 1    
   203  102  103 2    
   204  102  104 am   BACKBONE|DICT|INTERRES
   205  104  105 1    
   206  104  225 1    
   207  105  106 1    
   208  105  107 1    
   209  105  226 1    
   210  106  227 1    
   211  106  228 1    
   212  106  229 1    
   213  107  108 2    
   214  107  109 am   BACKBONE|DICT|INTERRES
   215  109  110 1    
   216  109  230 1    
   217  110  111 1    
   218  110  112 1    
   219  110  231 1    
   220  111  232 1    
   221  111  233 1    
   222  111  234 1    
   223  112  113 2    
   224  112  114 am   BACKBONE|DICT|INTERRES
   225  114  115 1    
   226  114  235 1    
   227  115  116 1    
   228  115  117 1    
   229  115  236 1    
   230  116  237 1    
   231  116  238 1    
   232  116  239 1    
   233  117  118 2    
   234  117  119 am   BACKBONE|DICT|INTERRES
   235  119  120 1    
   236  119  240 1    
   237  120  121 1    
   238  120  124 1    
   239  120  241 1    
   240  121  122 am   BACKBONE|DICT|INTERRES
   241  121  123 2    
   242  122  242 1    
   243  122  243 1    
   244  124  125 1    
   245  124  244 1    
   246  124  245 1    
   247  125  126 1    
   248  126  246 1    
   249  126  247 1    
@<TRIPOS>SUBSTRUCTURE
     1 UNK         1 GROUP             0       ****    0 ROOT    
