@<TRIPOS>MOLECULE
3R540
247   249    1
SMALL
USER_CHARGES


@<TRIPOS>ATOM
      1 CA          5.0993  -11.7581  -48.6990 C.3       0 UNK        -0.1800 
      2 C           4.2610  -12.9971  -48.4206 C.2       0 UNK         0.5000 
      3 O           4.6861  -13.8668  -47.6607 O.2       0 UNK        -0.5000 
      4 N           3.0654  -13.0737  -49.0208 N.am      1 UNK        -0.5000 
      5 CA          2.1249  -14.1995  -48.9041 C.3       1 UNK         0.1400 
      6 C6          0.9627  -14.1028  -49.9263 C.3       23 UNK        -0.0398 
      7 S7          1.4611  -13.7647  -51.6534 S.3       23 UNK        -0.2404 
      8 C8          2.5139  -15.1922  -52.0776 C.3       23 UNK        -0.0205 
      9 C9          1.8535  -16.5324  -51.7853 C.ar      23 UNK        -0.0193 
     10 C10         0.6527  -16.8885  -52.4079 C.ar      23 UNK        -0.1150 
     11 C11         0.0397  -18.1115  -52.1197 C.ar      23 UNK        -0.0193 
     12 C12         0.6453  -18.9890  -51.2151 C.ar      23 UNK        -0.1150 
     13 C13         1.8498  -18.6460  -50.5928 C.ar      23 UNK        -0.0193 
     14 C14         2.4496  -17.4195  -50.8853 C.ar      23 UNK        -0.1150 
     15 C15         2.5090  -19.5952  -49.6034 C.3       23 UNK        -0.0205 
     16 S16         2.3232  -19.0335  -47.8787 S.3       23 UNK        -0.2404 
     17 C17         0.5270  -19.2244  -47.6293 C.3       23 UNK        -0.0398 
     18 CA          0.1594  -20.6682  -47.2162 C.3       11 UNK         0.1400 
     19 N           0.4915  -20.9601  -45.8204 N.am      11 UNK        -0.5000 
     20 C           0.4431  -22.1791  -45.2664 C.2       10 UNK         0.5000 
     21 O           0.1419  -23.2000  -45.8839 O.2       10 UNK        -0.5000 
     22 CA          0.7269  -22.2696  -43.7576 C.3       10 UNK         0.1400 
     23 CB          2.2339  -22.1807  -43.4749 C.3       10 UNK        -0.1800 
     24 N           0.0120  -21.2488  -42.9909 N.am      10 UNK        -0.5000 
     25 C          -1.3240  -21.1545  -42.9191 C.2       9 UNK         0.5000 
     26 O          -2.0963  -21.9426  -43.4656 O.2       9 UNK        -0.5000 
     27 CA         -1.8971  -19.9575  -42.1405 C.3       9 UNK         0.1400 
     28 CB         -1.8405  -20.2121  -40.6269 C.3       9 UNK        -0.1800 
     29 N          -1.2200  -18.6993  -42.4536 N.am      9 UNK        -0.5000 
     30 C          -1.2009  -18.1234  -43.6649 C.2       8 UNK         0.5000 
     31 O          -1.7754  -18.5790  -44.6530 O.2       8 UNK        -0.5000 
     32 CA         -0.3529  -16.8480  -43.8066 C.3       8 UNK         0.1400 
     33 CB         -1.0683  -15.6502  -43.1617 C.3       8 UNK        -0.1800 
     34 N           0.9778  -17.0005  -43.2194 N.am      8 UNK        -0.5000 
     35 C           1.8808  -17.9205  -43.5893 C.2       7 UNK         0.5000 
     36 O           1.7056  -18.7323  -44.4955 O.2       7 UNK        -0.5000 
     37 CA          3.1720  -17.9890  -42.7584 C.3       7 UNK         0.1400 
     38 CB          4.1584  -16.8856  -43.1735 C.3       7 UNK        -0.1800 
     39 N           2.8966  -17.9041  -41.3239 N.am      7 UNK        -0.5000 
     40 C           2.2511  -18.8470  -40.6211 C.2       6 UNK         0.5000 
     41 O           1.8532  -19.9082  -41.1006 O.2       6 UNK        -0.5000 
     42 CA          1.9664  -18.5303  -39.1422 C.3       6 UNK         0.1400 
     43 CB          3.1936  -18.8437  -38.2734 C.3       6 UNK        -0.1800 
     44 N           1.5686  -17.1371  -38.9381 N.am      6 UNK        -0.5000 
     45 C           0.4242  -16.6037  -39.3886 C.2       5 UNK         0.5000 
     46 O          -0.4390  -17.2426  -39.9902 O.2       5 UNK        -0.5000 
     47 CA          0.2438  -15.0884  -39.1767 C.3       5 UNK         0.1400 
     48 CB         -0.3306  -14.8005  -37.7817 C.3       5 UNK        -0.1800 
     49 N           1.4862  -14.3295  -39.3615 N.am      5 UNK        -0.5000 
     50 C           2.1612  -14.2679  -40.5157 C.2       4 UNK         0.5000 
     51 O           1.8112  -14.8582  -41.5421 O.2       4 UNK        -0.5000 
     52 CA          3.4592  -13.4502  -40.5243 C.3       4 UNK         0.1400 
     53 CB          4.6182  -14.2445  -39.8984 C.3       4 UNK        -0.1800 
     54 N           3.7658  -13.1501  -41.9147 N.am      4 UNK        -0.5000 
     55 C           4.4100  -12.0791  -42.3843 C.2       3 UNK         0.5000 
     56 O           4.9475  -11.2333  -41.6683 O.2       3 UNK        -0.5000 
     57 CA          4.4452  -11.9185  -43.9197 C.3       3 UNK         0.1400 
     58 CB          5.7897  -12.4112  -44.4766 C.3       3 UNK        -0.1800 
     59 N           3.3587  -12.6187  -44.6179 N.am      3 UNK        -0.5000 
     60 C           2.0537  -12.3274  -44.5053 C.2       2 UNK         0.5000 
     61 O           1.6193  -11.4010  -43.8197 O.2       2 UNK        -0.5000 
     62 CA          1.0941  -13.2103  -45.3192 C.3       2 UNK         0.1400 
     63 CB         -0.3656  -12.7179  -45.2968 C.3       2 UNK        -0.1800 
     64 N           1.5637  -13.2785  -46.6973 N.am      2 UNK        -0.5000 
     65 C           1.5449  -14.3636  -47.4800 C.2       1 UNK         0.5000 
     66 O           1.0886  -15.4511  -47.1284 O.2       1 UNK        -0.5000 
     67 C          -1.3132  -20.9773  -47.5392 C.2       11 UNK         0.5000 
     68 O          -1.5763  -21.5991  -48.5678 O.2       11 UNK        -0.5000 
     69 N          -2.2403  -20.5847  -46.6533 N.am      12 UNK        -0.5000 
     70 CA         -3.6690  -20.8763  -46.7799 C.3       12 UNK         0.1400 
     71 CB         -4.4550  -20.1495  -45.6794 C.3       12 UNK        -0.1800 
     72 C          -3.9731  -22.3840  -46.7626 C.2       12 UNK         0.5000 
     73 O          -4.7894  -22.8401  -47.5625 O.2       12 UNK        -0.5000 
     74 N          -3.2910  -23.1336  -45.8866 N.am      13 UNK        -0.5000 
     75 CA         -3.3731  -24.5911  -45.8170 C.3       13 UNK         0.1400 
     76 CB         -2.6681  -25.0900  -44.5463 C.3       13 UNK        -0.1800 
     77 C          -2.7983  -25.2706  -47.0734 C.2       13 UNK         0.5000 
     78 O          -3.4576  -26.1390  -47.6459 O.2       13 UNK        -0.5000 
     79 N          -1.5969  -24.8479  -47.4924 N.am      14 UNK        -0.5000 
     80 CA         -0.8785  -25.3840  -48.6504 C.3       14 UNK         0.1400 
     81 CB          0.5435  -24.8033  -48.6858 C.3       14 UNK        -0.1800 
     82 C          -1.5949  -25.1298  -49.9882 C.2       14 UNK         0.5000 
     83 O          -1.6550  -26.0313  -50.8249 O.2       14 UNK        -0.5000 
     84 N          -2.1336  -23.9162  -50.1609 N.am      15 UNK        -0.5000 
     85 CA         -2.8385  -23.4879  -51.3695 C.3       15 UNK         0.1400 
     86 CB         -2.6351  -21.9770  -51.5504 C.3       15 UNK        -0.1800 
     87 C          -4.3384  -23.8442  -51.3655 C.2       15 UNK         0.5000 
     88 O          -5.0275  -23.5058  -52.3291 O.2       15 UNK        -0.5000 
     89 N          -4.8223  -24.4893  -50.2924 N.am      16 UNK        -0.5000 
     90 CA         -6.2006  -24.9396  -50.0681 C.3       16 UNK         0.1400 
     91 CB         -6.5581  -26.0776  -51.0475 C.3       16 UNK        -0.1800 
     92 C          -7.2086  -23.7736  -50.1105 C.2       16 UNK         0.5000 
     93 O          -8.1408  -23.7839  -50.9135 O.2       16 UNK        -0.5000 
     94 N          -6.9588  -22.7518  -49.2798 N.am      17 UNK        -0.5000 
     95 CA         -7.6758  -21.4703  -49.2164 C.3       17 UNK         0.1400 
     96 CB         -9.1251  -21.6686  -48.7261 C.3       17 UNK        -0.1800 
     97 C          -7.5837  -20.6794  -50.5408 C.2       17 UNK         0.5000 
     98 O          -8.5342  -20.0023  -50.9341 O.2       17 UNK        -0.5000 
     99 N          -6.4263  -20.8140  -51.2036 N.am      18 UNK        -0.5000 
    100 CA        -6.0413  -20.2664  -52.5075 C.3       18 UNK         0.1400 
    101 CB        -6.1288  -18.7271  -52.5278 C.3       18 UNK        -0.1800 
    102 C         -6.7404  -20.9162  -53.7203 C.2       18 UNK         0.5000 
    103 O         -6.5157  -20.4678  -54.8475 O.2       18 UNK        -0.5000 
    104 N         -7.5287  -21.9797  -53.4969 N.am      19 UNK        -0.5000 
    105 CA        -8.2565  -22.7129  -54.5349 C.3       19 UNK         0.1400 
    106 CB        -9.2552  -23.6812  -53.8859 C.3       19 UNK        -0.1800 
    107 C         -7.3442  -23.4685  -55.5178 C.2       19 UNK         0.5000 
    108 O         -7.7613  -23.7101  -56.6514 O.2       19 UNK        -0.5000 
    109 N         -6.1083  -23.7905  -55.1075 N.am      20 UNK        -0.5000 
    110 CA        -5.0730  -24.4204  -55.9344 C.3       20 UNK         0.1400 
    111 CB        -4.0434  -25.0954  -55.0105 C.3       20 UNK        -0.1800 
    112 C         -4.4154  -23.4351  -56.9321 C.2       20 UNK         0.5000 
    113 O         -3.1900  -23.4132  -57.0583 O.2       20 UNK        -0.5000 
    114 N         -5.2454  -22.6309  -57.6140 N.am      21 UNK        -0.5000 
    115 CA        -4.9084  -21.6069  -58.6103 C.3       21 UNK         0.1400 
    116 CB        -4.3933  -22.2715  -59.9041 C.3       21 UNK        -0.1800 
    117 C         -3.9571  -20.5114  -58.0787 C.2       21 UNK         0.5000 
    118 O         -3.1175  -20.0100  -58.8295 O.2       21 UNK        -0.5000 
    119 N         -4.0993  -20.1681  -56.7922 N.am      22 UNK        -0.5000 
    120 CA        -3.2298  -19.2219  -56.0731 C.3       22 UNK         0.1400 
    121 C         -3.8641  -17.8133  -55.8786 C.2       22 UNK         0.5000 
    122 N         -5.1225  -17.5950  -56.2410 N.am      22 UNK        -0.7600 
    123 O         -3.2011  -16.8942  -55.4075 O.2       22 UNK        -0.5000 
    124 C124       -2.7532  -19.8436  -54.7335 C.3       23 UNK        -0.0398 
    125 S125       -1.0316  -19.4275  -54.2980 S.3       23 UNK        -0.2404 
    126 C126       -1.2851  -18.4781  -52.7687 C.3       23 UNK        -0.0205 
    127 H127        5.2305  -11.1804  -47.7842 H         1 UNK         0.0600 
    128 H128        4.6343  -11.1137  -49.4454 H         1 UNK         0.0600 
    129 H129        6.0842  -12.0464  -49.0662 H         1 UNK         0.0600 
    130 H130        2.7775  -12.3347  -49.6470 H         1 UNK         0.3000 
    131 H131        2.6873  -15.1106  -49.1143 H         1 UNK         0.0600 
    132 H132        0.3722  -15.0210  -49.9137 H         1 UNK         0.0800 
    133 H133        0.2747  -13.3058  -49.6378 H         1 UNK         0.0800 
    134 H134        3.4604  -15.0995  -51.5427 H         1 UNK         0.0800 
    135 H135        2.7595  -15.1442  -53.1392 H         1 UNK         0.0800 
    136 H136        0.1886  -16.2059  -53.1061 H         1 UNK         0.1150 
    137 H137        0.1739  -19.9358  -50.9908 H         1 UNK         0.1150 
    138 H138        3.3791  -17.1556  -50.4004 H         1 UNK         0.1150 
    139 H139        2.1058  -20.6035  -49.7071 H         1 UNK         0.0800 
    140 H140        3.5726  -19.6702  -49.8342 H         1 UNK         0.0800 
    141 H141        0.0132  -18.9221  -48.5419 H         1 UNK         0.0800 
    142 H142        0.2049  -18.5135  -46.8664 H         1 UNK         0.0800 
    143 H143        0.7468  -21.3551  -47.8288 H         1 UNK         0.0600 
    144 H144        0.7948  -20.1696  -45.2550 H         1 UNK         0.3000 
    145 H145        0.3771  -23.2455  -43.4145 H         1 UNK         0.0600 
    146 H146        2.4454  -22.3367  -42.4170 H         1 UNK         0.0600 
    147 H147        2.7812  -22.9421  -44.0319 H         1 UNK         0.0600 
    148 H148        2.6416  -21.2100  -43.7574 H         1 UNK         0.0600 
    149 H149        0.5827  -20.5801  -42.4827 H         1 UNK         0.3000 
    150 H150       -2.9452  -19.8486  -42.4264 H         1 UNK         0.0600 
    151 H151       -2.3491  -21.1414  -40.3672 H         1 UNK         0.0600 
    152 H152       -2.3283  -19.4088  -40.0745 H         1 UNK         0.0600 
    153 H153       -0.8134  -20.2871  -40.2687 H         1 UNK         0.0600 
    154 H154       -0.7466  -18.2357  -41.6839 H         1 UNK         0.3000 
    155 H155       -0.2208  -16.6410  -44.8707 H         1 UNK         0.0600 
    156 H156       -1.3232  -15.8418  -42.1195 H         1 UNK         0.0600 
    157 H157       -1.9954  -15.4228  -43.6889 H         1 UNK         0.0600 
    158 H158       -0.4498  -14.7551  -43.1837 H         1 UNK         0.0600 
    159 H159        1.2232  -16.3494  -42.4779 H         1 UNK         0.3000 
    160 H160        3.6445  -18.9539  -42.9540 H         1 UNK         0.0600 
    161 H161        3.7466  -15.8894  -43.0196 H         1 UNK         0.0600 
    162 H162        4.4116  -16.9719  -44.2310 H         1 UNK         0.0600 
    163 H163        5.0890  -16.9550  -42.6101 H         1 UNK         0.0600 
    164 H164        3.1450  -17.0431  -40.8624 H         1 UNK         0.3000 
    165 H165        1.1441  -19.1709  -38.8163 H         1 UNK         0.0600 
    166 H166        2.9761  -18.6937  -37.2157 H         1 UNK         0.0600 
    167 H167        3.5028  -19.8826  -38.3963 H         1 UNK         0.0600 
    168 H168        4.0456  -18.2144  -38.5339 H         1 UNK         0.0600 
    169 H169        2.2208  -16.5397  -38.4522 H         1 UNK         0.3000 
    170 H170       -0.4754  -14.7369  -39.9196 H         1 UNK         0.0600 
    171 H171       -1.2654  -15.3409  -37.6258 H         1 UNK         0.0600 
    172 H172        0.3581  -15.1007  -36.9911 H         1 UNK         0.0600 
    173 H173       -0.5457  -13.7393  -37.6553 H         1 UNK         0.0600 
    174 H174        1.8326  -13.8249  -38.5580 H         1 UNK         0.3000 
    175 H175        3.2943  -12.5232  -39.9714 H         1 UNK         0.0600 
    176 H176        4.7997  -15.1792  -40.4305 H         1 UNK         0.0600 
    177 H177        5.5432  -13.6679  -39.9149 H         1 UNK         0.0600 
    178 H178        4.4100  -14.4917  -38.8569 H         1 UNK         0.0600 
    179 H179        3.2971  -13.7614  -42.5703 H         1 UNK         0.3000 
    180 H180        4.3528  -10.8528  -44.1383 H         1 UNK         0.0600 
    181 H181        5.9233  -13.4816  -44.3146 H         1 UNK         0.0600 
    182 H182        6.6244  -11.8991  -43.9961 H         1 UNK         0.0600 
    183 H183        5.8680  -12.2221  -45.5470 H         1 UNK         0.0600 
    184 H184        3.6340  -13.3733  -45.2321 H         1 UNK         0.3000 
    185 H185        1.1351  -14.2026  -44.8657 H         1 UNK         0.0600 
    186 H186       -0.7385  -12.6280  -44.2760 H         1 UNK         0.0600 
    187 H187       -0.4656  -11.7406  -45.7700 H         1 UNK         0.0600 
    188 H188       -1.0215  -13.4131  -45.8209 H         1 UNK         0.0600 
    189 H189        1.9765  -12.4327  -47.0656 H         1 UNK         0.3000 
    190 H190       -1.9584  -20.0369  -45.8437 H         1 UNK         0.3000 
    191 H191       -4.0007  -20.4866  -47.7445 H         1 UNK         0.0600 
    192 H192       -4.1379  -20.4627  -44.6843 H         1 UNK         0.0600 
    193 H193       -5.5238  -20.3507  -45.7635 H         1 UNK         0.0600 
    194 H194       -4.3213  -19.0699  -45.7482 H         1 UNK         0.0600 
    195 H195       -2.6710  -22.6768  -45.2243 H         1 UNK         0.3000 
    196 H196       -4.4279  -24.8644  -45.7447 H         1 UNK         0.0600 
    197 H197       -2.7259  -26.1763  -44.4678 H         1 UNK         0.0600 
    198 H198       -3.1310  -24.6735  -43.6516 H         1 UNK         0.0600 
    199 H199       -1.6133  -24.8144  -44.5331 H         1 UNK         0.0600 
    200 H200       -1.1071  -24.1429  -46.9463 H         1 UNK         0.3000 
    201 H201       -0.7990  -26.4650  -48.5188 H         1 UNK         0.0600 
    202 H202        1.0969  -25.0612  -47.7827 H         1 UNK         0.0600 
    203 H203        0.5311  -23.7161  -48.7712 H         1 UNK         0.0600 
    204 H204        1.1062  -25.1942  -49.5344 H         1 UNK         0.0600 
    205 H205       -2.0078  -23.2089  -49.4395 H         1 UNK         0.3000 
    206 H206       -2.3934  -23.9851  -52.2334 H         1 UNK         0.0600 
    207 H207       -1.5783  -21.7123  -51.5120 H         1 UNK         0.0600 
    208 H208       -3.0075  -21.6563  -52.5208 H         1 UNK         0.0600 
    209 H209       -3.1545  -21.4014  -50.7835 H         1 UNK         0.0600 
    210 H210       -4.1761  -24.6868  -49.5399 H         1 UNK         0.3000 
    211 H211       -6.2348  -25.3465  -49.0563 H         1 UNK         0.0600 
    212 H212       -6.5636  -25.7374  -52.0838 H         1 UNK         0.0600 
    213 H213       -7.5480  -26.4808  -50.8314 H         1 UNK         0.0600 
    214 H214       -5.8476  -26.9005  -50.9696 H         1 UNK         0.0600 
    215 H215       -6.1530  -22.8327  -48.6577 H         1 UNK         0.3000 
    216 H216       -7.1559  -20.8696  -48.4687 H         1 UNK         0.0600 
    217 H217       -9.6087  -20.7089  -48.5405 H         1 UNK         0.0600 
    218 H218       -9.1513  -22.2300  -47.7923 H         1 UNK         0.0600 
    219 H219       -9.7327  -22.2032  -49.4568 H         1 UNK         0.0600 
    220 H220       -5.7514  -21.4451  -50.7965 H         1 UNK         0.3000 
    221 H221       -4.9921  -20.5288  -52.6143 H         1 UNK         0.0600 
    222 H222       -7.1607  -18.3776  -52.4956 H         1 UNK         0.0600 
    223 H223       -5.5974  -18.2899  -51.6826 H         1 UNK         0.0600 
    224 H224       -5.6809  -18.3207  -53.4344 H         1 UNK         0.0600 
    225 H225       -7.6210  -22.3312  -52.5516 H         1 UNK         0.3000 
    226 H226       -8.8244  -21.9815  -55.1136 H         1 UNK         0.0600 
    227 H227       -9.8995  -23.1693  -53.1708 H         1 UNK         0.0600 
    228 H228       -9.9001  -24.1365  -54.6384 H         1 UNK         0.0600 
    229 H229       -8.7454  -24.4911  -53.3630 H         1 UNK         0.0600 
    230 H230       -5.8389  -23.5571  -54.1556 H         1 UNK         0.3000 
    231 H231       -5.5423  -25.2060  -56.5299 H         1 UNK         0.0600 
    232 H232       -4.5264  -25.7684  -54.3016 H         1 UNK         0.0600 
    233 H233       -3.4762  -24.3586  -54.4414 H         1 UNK         0.0600 
    234 H234       -3.3294  -25.6868  -55.5846 H         1 UNK         0.0600 
    235 H235       -6.2366  -22.7572  -57.4341 H         1 UNK         0.3000 
    236 H236       -5.8434  -21.0996  -58.8515 H         1 UNK         0.0600 
    237 H237       -4.2674  -21.5370  -60.7004 H         1 UNK         0.0600 
    238 H238       -3.4296  -22.7584  -59.7516 H         1 UNK         0.0600 
    239 H239       -5.0946  -23.0228  -60.2673 H         1 UNK         0.0600 
    240 H240       -4.8518  -20.5803  -56.2529 H         1 UNK         0.3000 
    241 H241       -2.3423  -19.0464  -56.6836 H         1 UNK         0.0600 
    242 H242       -5.5214  -16.6775  -56.1213 H         1 UNK         0.3800 
    243 H243       -5.6877  -18.3440  -56.6087 H         1 UNK         0.3800 
    244 H244       -3.4232  -19.5752  -53.9181 H         1 UNK         0.0800 
    245 H245       -2.7864  -20.9327  -54.7948 H         1 UNK         0.0800 
    246 H246       -1.8866  -19.0613  -52.0697 H         1 UNK         0.0800 
    247 H247       -1.8580  -17.5767  -52.9925 H         1 UNK         0.0800 
@<TRIPOS>BOND
     1    1    2 1    
     2    1  127 1    
     3    1  128 1    
     4    1  129 1    
     5    2    3 2    
     6    2    4 am   BACKBONE|DICT|INTERRES
     7    4    5 1    
     8    4  130 1    
     9    5    6 1    
    10    5   65 1    
    11    5  131 1    
    12    6    7 1    
    13    6  132 1    
    14    6  133 1    
    15    7    8 1    
    16    8    9 1    
    17    8  134 1    
    18    8  135 1    
    19    9   10 ar   
    20    9   14 ar   
    21   10   11 ar   
    22   10  136 1    
    23   11   12 ar   
    24   11  126 1    
    25   12   13 ar   
    26   12  137 1    
    27   13   14 ar   
    28   13   15 1    
    29   14  138 1    
    30   15   16 1    
    31   15  139 1    
    32   15  140 1    
    33   16   17 1    
    34   17   18 1    
    35   17  141 1    
    36   17  142 1    
    37   18   19 1    
    38   18   67 1    
    39   18  143 1    
    40   19   20 am   BACKBONE|DICT|INTERRES
    41   19  144 1    
    42   20   21 2    
    43   20   22 1    
    44   22   23 1    
    45   22   24 1    
    46   22  145 1    
    47   23  146 1    
    48   23  147 1    
    49   23  148 1    
    50   24   25 am   BACKBONE|DICT|INTERRES
    51   24  149 1    
    52   25   26 2    
    53   25   27 1    
    54   27   28 1    
    55   27   29 1    
    56   27  150 1    
    57   28  151 1    
    58   28  152 1    
    59   28  153 1    
    60   29   30 am   BACKBONE|DICT|INTERRES
    61   29  154 1    
    62   30   31 2    
    63   30   32 1    
    64   32   33 1    
    65   32   34 1    
    66   32  155 1    
    67   33  156 1    
    68   33  157 1    
    69   33  158 1    
    70   34   35 am   BACKBONE|DICT|INTERRES
    71   34  159 1    
    72   35   36 2    
    73   35   37 1    
    74   37   38 1    
    75   37   39 1    
    76   37  160 1    
    77   38  161 1    
    78   38  162 1    
    79   38  163 1    
    80   39   40 am   BACKBONE|DICT|INTERRES
    81   39  164 1    
    82   40   41 2    
    83   40   42 1    
    84   42   43 1    
    85   42   44 1    
    86   42  165 1    
    87   43  166 1    
    88   43  167 1    
    89   43  168 1    
    90   44   45 am   BACKBONE|DICT|INTERRES
    91   44  169 1    
    92   45   46 2    
    93   45   47 1    
    94   47   48 1    
    95   47   49 1    
    96   47  170 1    
    97   48  171 1    
    98   48  172 1    
    99   48  173 1    
   100   49   50 am   BACKBONE|DICT|INTERRES
   101   49  174 1    
   102   50   51 2    
   103   50   52 1    
   104   52   53 1    
   105   52   54 1    
   106   52  175 1    
   107   53  176 1    
   108   53  177 1    
   109   53  178 1    
   110   54   55 am   BACKBONE|DICT|INTERRES
   111   54  179 1    
   112   55   56 2    
   113   55   57 1    
   114   57   58 1    
   115   57   59 1    
   116   57  180 1    
   117   58  181 1    
   118   58  182 1    
   119   58  183 1    
   120   59   60 am   BACKBONE|DICT|INTERRES
   121   59  184 1    
   122   60   61 2    
   123   60   62 1    
   124   62   63 1    
   125   62   64 1    
   126   62  185 1    
   127   63  186 1    
   128   63  187 1    
   129   63  188 1    
   130   64   65 am   BACKBONE|DICT|INTERRES
   131   64  189 1    
   132   65   66 2    
   133   67   68 2    
   134   67   69 am   BACKBONE|DICT|INTERRES
   135   69   70 1    
   136   69  190 1    
   137   70   71 1    
   138   70   72 1    
   139   70  191 1    
   140   71  192 1    
   141   71  193 1    
   142   71  194 1    
   143   72   73 2    
   144   72   74 am   BACKBONE|DICT|INTERRES
   145   74   75 1    
   146   74  195 1    
   147   75   76 1    
   148   75   77 1    
   149   75  196 1    
   150   76  197 1    
   151   76  198 1    
   152   76  199 1    
   153   77   78 2    
   154   77   79 am   BACKBONE|DICT|INTERRES
   155   79   80 1    
   156   79  200 1    
   157   80   81 1    
   158   80   82 1    
   159   80  201 1    
   160   81  202 1    
   161   81  203 1    
   162   81  204 1    
   163   82   83 2    
   164   82   84 am   BACKBONE|DICT|INTERRES
   165   84   85 1    
   166   84  205 1    
   167   85   86 1    
   168   85   87 1    
   169   85  206 1    
   170   86  207 1    
   171   86  208 1    
   172   86  209 1    
   173   87   88 2    
   174   87   89 am   BACKBONE|DICT|INTERRES
   175   89   90 1    
   176   89  210 1    
   177   90   91 1    
   178   90   92 1    
   179   90  211 1    
   180   91  212 1    
   181   91  213 1    
   182   91  214 1    
   183   92   93 2    
   184   92   94 am   BACKBONE|DICT|INTERRES
   185   94   95 1    
   186   94  215 1    
   187   95   96 1    
   188   95   97 1    
   189   95  216 1    
   190   96  217 1    
   191   96  218 1    
   192   96  219 1    
   193   97   98 2    
   194   97   99 am   BACKBONE|DICT|INTERRES
   195   99  100 1    
   196   99  220 1    
   197  100  101 1    
   198  100  102 1    
   199  100  221 1    
   200  101  222 1    
   201  101  223 1    
   202  101  224 1    
   203  102  103 2    
   204  102  104 am   BACKBONE|DICT|INTERRES
   205  104  105 1    
   206  104  225 1    
   207  105  106 1    
   208  105  107 1    
   209  105  226 1    
   210  106  227 1    
   211  106  228 1    
   212  106  229 1    
   213  107  108 2    
   214  107  109 am   BACKBONE|DICT|INTERRES
   215  109  110 1    
   216  109  230 1    
   217  110  111 1    
   218  110  112 1    
   219  110  231 1    
   220  111  232 1    
   221  111  233 1    
   222  111  234 1    
   223  112  113 2    
   224  112  114 am   BACKBONE|DICT|INTERRES
   225  114  115 1    
   226  114  235 1    
   227  115  116 1    
   228  115  117 1    
   229  115  236 1    
   230  116  237 1    
   231  116  238 1    
   232  116  239 1    
   233  117  118 2    
   234  117  119 am   BACKBONE|DICT|INTERRES
   235  119  120 1    
   236  119  240 1    
   237  120  121 1    
   238  120  124 1    
   239  120  241 1    
   240  121  122 am   BACKBONE|DICT|INTERRES
   241  121  123 2    
   242  122  242 1    
   243  122  243 1    
   244  124  125 1    
   245  124  244 1    
   246  124  245 1    
   247  125  126 1    
   248  126  246 1    
   249  126  247 1    
@<TRIPOS>SUBSTRUCTURE
     1 UNK         1 GROUP             0       ****    0 ROOT    
