@<TRIPOS>MOLECULE
3R540
247   249    1
SMALL
USER_CHARGES


@<TRIPOS>ATOM
      1 CA         -5.1048  -15.4489  -48.8926 C.3       0 UNK        -0.1800 
      2 C          -3.6871  -15.2300  -48.3831 C.2       0 UNK         0.5000 
      3 O          -3.2834  -15.8614  -47.4077 O.2       0 UNK        -0.5000 
      4 N          -2.9384  -14.3377  -49.0463 N.am      1 UNK        -0.5000 
      5 CA         -1.5353  -13.9918  -48.7653 C.3       1 UNK         0.1400 
      6 C6         -0.5400  -15.1706  -48.9559 C.3       23 UNK        -0.0398 
      7 S7         -0.7342  -15.9983  -50.5754 S.3       23 UNK        -0.2404 
      8 C8         -0.8749  -17.7456  -50.0831 C.3       23 UNK        -0.0205 
      9 C9          0.4748  -18.4401  -50.1328 C.ar      23 UNK        -0.0193 
     10 C10         0.7878  -19.3020  -51.1865 C.ar      23 UNK        -0.1150 
     11 C11         2.0359  -19.9290  -51.2453 C.ar      23 UNK        -0.0193 
     12 C12         2.9699  -19.6990  -50.2297 C.ar      23 UNK        -0.1150 
     13 C13         2.6628  -18.8468  -49.1647 C.ar      23 UNK        -0.0193 
     14 C14         1.4161  -18.2166  -49.1263 C.ar      23 UNK        -0.1150 
     15 C15         3.6746  -18.6003  -48.0545 C.3       23 UNK        -0.0205 
     16 S16         3.7187  -19.9618  -46.8441 S.3       23 UNK        -0.2404 
     17 C17         1.9934  -19.9962  -46.2538 C.3       23 UNK        -0.0398 
     18 CA          1.2214  -21.2154  -46.8048 C.3       11 UNK         0.1400 
     19 N           1.7418  -22.4747  -46.2664 N.am      11 UNK        -0.5000 
     20 C           1.4461  -23.6943  -46.7314 C.2       10 UNK         0.5000 
     21 O           0.7146  -23.8995  -47.6978 O.2       10 UNK        -0.5000 
     22 CA          2.0385  -24.8857  -45.9567 C.3       10 UNK         0.1400 
     23 CB          3.4733  -25.1735  -46.4230 C.3       10 UNK        -0.1800 
     24 N           2.0328  -24.6704  -44.5082 N.am      10 UNK        -0.5000 
     25 C           0.9232  -24.5930  -43.7594 C.2       9 UNK         0.5000 
     26 O          -0.2141  -24.7384  -44.2069 O.2       9 UNK        -0.5000 
     27 CA          1.1170  -24.2374  -42.2719 C.3       9 UNK         0.1400 
     28 CB          1.4139  -25.4992  -41.4482 C.3       9 UNK        -0.1800 
     29 N           2.1724  -23.2434  -42.0418 N.am      9 UNK        -0.5000 
     30 C           2.1610  -22.0015  -42.5434 C.2       8 UNK         0.5000 
     31 O           1.2639  -21.5768  -43.2748 O.2       8 UNK        -0.5000 
     32 CA          3.3816  -21.1149  -42.2327 C.3       8 UNK         0.1400 
     33 CB          4.5706  -21.5198  -43.1189 C.3       8 UNK        -0.1800 
     34 N           3.0800  -19.7037  -42.4758 N.am      8 UNK        -0.5000 
     35 C           2.3529  -18.9299  -41.6603 C.2       7 UNK         0.5000 
     36 O           2.0223  -19.2728  -40.5218 O.2       7 UNK        -0.5000 
     37 CA          1.9770  -17.5330  -42.2080 C.3       7 UNK         0.1400 
     38 CB          1.4712  -17.5829  -43.6658 C.3       7 UNK        -0.1800 
     39 N           1.0136  -16.8090  -41.3741 N.am      7 UNK        -0.5000 
     40 C          -0.2470  -17.1576  -41.0696 C.2       6 UNK         0.5000 
     41 O          -0.8003  -18.1877  -41.4567 O.2       6 UNK        -0.5000 
     42 CA         -1.0380  -16.1633  -40.1942 C.3       6 UNK         0.1400 
     43 CB         -0.9302  -16.5467  -38.7102 C.3       6 UNK        -0.1800 
     44 N          -0.5964  -14.7760  -40.3634 N.am      6 UNK        -0.5000 
     45 C          -0.7921  -14.0500  -41.4727 C.2       5 UNK         0.5000 
     46 O          -1.4495  -14.4464  -42.4368 O.2       5 UNK        -0.5000 
     47 CA         -0.1469  -12.6508  -41.5366 C.3       5 UNK         0.1400 
     48 CB          0.6177  -12.2290  -40.2606 C.3       5 UNK        -0.1800 
     49 N           0.7012  -12.5277  -42.7246 N.am      5 UNK        -0.5000 
     50 C           1.7996  -13.2414  -43.0221 C.2       4 UNK         0.5000 
     51 O           2.3002  -14.0666  -42.2559 O.2       4 UNK        -0.5000 
     52 CA          2.4514  -13.0139  -44.4046 C.3       4 UNK         0.1400 
     53 CB          2.5740  -14.3354  -45.1826 C.3       4 UNK        -0.1800 
     54 N           1.7169  -12.0526  -45.2303 N.am      4 UNK        -0.5000 
     55 C           1.8950  -10.7233  -45.2060 C.2       3 UNK         0.5000 
     56 O           2.7631  -10.1656  -44.5341 O.2       3 UNK        -0.5000 
     57 CA          0.9240   -9.8642  -46.0460 C.3       3 UNK         0.1400 
     58 CB          1.5621   -9.4970  -47.3943 C.3       3 UNK        -0.1800 
     59 N          -0.3702  -10.5059  -46.2937 N.am      3 UNK        -0.5000 
     60 C          -1.2494  -10.8677  -45.3487 C.2       2 UNK         0.5000 
     61 O          -1.1018  -10.6096  -44.1541 O.2       2 UNK        -0.5000 
     62 CA         -2.4706  -11.6985  -45.7935 C.3       2 UNK         0.1400 
     63 CB         -3.7266  -10.8159  -45.8500 C.3       2 UNK        -0.1800 
     64 N          -2.3258  -12.3983  -47.0764 N.am      2 UNK        -0.5000 
     65 C          -1.3799  -13.2970  -47.3925 C.2       1 UNK         0.5000 
     66 O          -0.4277  -13.5678  -46.6586 O.2       1 UNK        -0.5000 
     67 C          -0.2892  -21.0772  -46.5374 C.2       11 UNK         0.5000 
     68 O          -1.0317  -20.6849  -47.4366 O.2       11 UNK        -0.5000 
     69 N          -0.7232  -21.4447  -45.3236 N.am      12 UNK        -0.5000 
     70 CA         -2.1294  -21.4992  -44.9272 C.3       12 UNK         0.1400 
     71 CB         -2.2302  -21.7883  -43.4224 C.3       12 UNK        -0.1800 
     72 C          -2.9272  -22.5286  -45.7482 C.2       12 UNK         0.5000 
     73 O          -4.0228  -22.2131  -46.2113 O.2       12 UNK        -0.5000 
     74 N          -2.3451  -23.7172  -45.9645 N.am      13 UNK        -0.5000 
     75 CA         -2.8988  -24.7619  -46.8275 C.3       13 UNK         0.1400 
     76 CB         -2.0671  -26.0456  -46.6900 C.3       13 UNK        -0.1800 
     77 C          -2.9957  -24.3235  -48.3007 C.2       13 UNK         0.5000 
     78 O          -4.0231  -24.5603  -48.9358 O.2       13 UNK        -0.5000 
     79 N          -1.9478  -23.6563  -48.8051 N.am      14 UNK        -0.5000 
     80 CA         -1.8975  -23.0945  -50.1546 C.3       14 UNK         0.1400 
     81 CB         -0.4775  -22.6065  -50.4694 C.3       14 UNK        -0.1800 
     82 C          -2.9156  -21.9654  -50.3869 C.2       14 UNK         0.5000 
     83 O          -3.4107  -21.8422  -51.5043 O.2       14 UNK        -0.5000 
     84 N          -3.2146  -21.1743  -49.3477 N.am      15 UNK        -0.5000 
     85 CA         -4.2729  -20.1643  -49.3534 C.3       15 UNK         0.1400 
     86 CB         -4.0942  -19.2225  -48.1532 C.3       15 UNK        -0.1800 
     87 C          -5.6749  -20.7977  -49.3230 C.2       15 UNK         0.5000 
     88 O          -6.5551  -20.3689  -50.0708 O.2       15 UNK        -0.5000 
     89 N          -5.8548  -21.8078  -48.4590 N.am      16 UNK        -0.5000 
     90 CA         -7.1128  -22.5308  -48.2578 C.3       16 UNK         0.1400 
     91 CB         -6.9790  -23.4582  -47.0410 C.3       16 UNK        -0.1800 
     92 C          -7.5775  -23.3261  -49.4914 C.2       16 UNK         0.5000 
     93 O          -8.7821  -23.5091  -49.6724 O.2       16 UNK        -0.5000 
     94 N          -6.6305  -23.7530  -50.3361 N.am      17 UNK        -0.5000 
     95 CA         -6.8358  -24.4762  -51.5940 C.3       17 UNK         0.1400 
     96 CB         -5.5058  -25.1479  -51.9814 C.3       17 UNK        -0.1800 
     97 C          -7.4149  -23.6034  -52.7364 C.2       17 UNK         0.5000 
     98 O          -6.9423  -23.6895  -53.8707 O.2       17 UNK        -0.5000 
     99 N          -8.4448  -22.8038  -52.4207 N.am      18 UNK        -0.5000 
    100 CA        -9.1666  -21.8684  -53.2900 C.3       18 UNK         0.1400 
    101 CB        -9.9503  -22.6283  -54.3815 C.3       18 UNK        -0.1800 
    102 C         -8.2522  -20.7589  -53.8511 C.2       18 UNK         0.5000 
    103 O         -8.1938  -20.5614  -55.0668 O.2       18 UNK        -0.5000 
    104 N         -7.5649  -20.0623  -52.9323 N.am      19 UNK        -0.5000 
    105 CA        -6.5219  -19.0503  -53.1433 C.3       19 UNK         0.1400 
    106 CB        -6.9711  -17.9301  -54.1057 C.3       19 UNK        -0.1800 
    107 C         -5.1744  -19.6753  -53.5557 C.2       19 UNK         0.5000 
    108 O         -5.1237  -20.8500  -53.9191 O.2       19 UNK        -0.5000 
    109 N         -4.1133  -18.8599  -53.4476 N.am      20 UNK        -0.5000 
    110 CA        -2.6844  -19.1840  -53.5487 C.3       20 UNK         0.1400 
    111 CB        -1.9069  -17.8770  -53.7802 C.3       20 UNK        -0.1800 
    112 C         -2.3044  -20.2420  -54.6049 C.2       20 UNK         0.5000 
    113 O         -2.1364  -19.9094  -55.7803 O.2       20 UNK        -0.5000 
    114 N         -2.1660  -21.4951  -54.1510 N.am      21 UNK        -0.5000 
    115 CA        -1.8990  -22.6850  -54.9658 C.3       21 UNK         0.1400 
    116 CB        -1.8592  -23.9146  -54.0456 C.3       21 UNK        -0.1800 
    117 C         -0.6178  -22.6193  -55.8217 C.2       21 UNK         0.5000 
    118 O         -0.5663  -23.2504  -56.8782 O.2       21 UNK        -0.5000 
    119 N          0.3807  -21.8551  -55.3625 N.am      22 UNK        -0.5000 
    120 CA         1.6176  -21.5552  -56.1007 C.3       22 UNK         0.1400 
    121 C          1.4767  -20.4438  -57.1859 C.2       22 UNK         0.5000 
    122 N          0.3381  -19.7742  -57.3270 N.am      22 UNK        -0.7600 
    123 O          2.4191  -20.1960  -57.9336 O.2       22 UNK        -0.5000 
    124 C124        2.8129  -21.3023  -55.1441 C.3       23 UNK        -0.0398 
    125 S125        2.5504  -19.9338  -53.9612 S.3       23 UNK        -0.2404 
    126 C126        2.3657  -20.8566  -52.4041 C.3       23 UNK        -0.0205 
    127 H127       -5.8050  -15.4859  -48.0580 H         1 UNK         0.0600 
    128 H128       -5.1669  -16.3920  -49.4352 H         1 UNK         0.0600 
    129 H129       -5.4203  -14.6489  -49.5627 H         1 UNK         0.0600 
    130 H130       -3.3407  -13.8671  -49.8448 H         1 UNK         0.3000 
    131 H131       -1.2692  -13.2330  -49.5027 H         1 UNK         0.0600 
    132 H132        0.4883  -14.8116  -48.8896 H         1 UNK         0.0800 
    133 H133       -0.6560  -15.8930  -48.1472 H         1 UNK         0.0800 
    134 H134       -1.2921  -17.8307  -49.0807 H         1 UNK         0.0800 
    135 H135       -1.5842  -18.2443  -50.7430 H         1 UNK         0.0800 
    136 H136        0.0671  -19.4785  -51.9710 H         1 UNK         0.1150 
    137 H137        3.9351  -20.1844  -50.2629 H         1 UNK         0.1150 
    138 H138        1.1759  -17.5476  -48.3128 H         1 UNK         0.1150 
    139 H139        4.6684  -18.4812  -48.4884 H         1 UNK         0.0800 
    140 H140        3.4562  -17.6653  -47.5360 H         1 UNK         0.0800 
    141 H141        1.4983  -19.0606  -46.5140 H         1 UNK         0.0800 
    142 H142        2.0111  -20.0234  -45.1665 H         1 UNK         0.0800 
    143 H143        1.3500  -21.2376  -47.8893 H         1 UNK         0.0600 
    144 H144        2.3209  -22.4016  -45.4445 H         1 UNK         0.3000 
    145 H145        1.4255  -25.7630  -46.1736 H         1 UNK         0.0600 
    146 H146        3.8766  -26.0601  -45.9335 H         1 UNK         0.0600 
    147 H147        3.5043  -25.3545  -47.4983 H         1 UNK         0.0600 
    148 H148        4.1425  -24.3385  -46.2114 H         1 UNK         0.0600 
    149 H149        2.9276  -24.5420  -44.0596 H         1 UNK         0.3000 
    150 H150        0.1780  -23.8109  -41.9129 H         1 UNK         0.0600 
    151 H151        2.3621  -25.9553  -41.7353 H         1 UNK         0.0600 
    152 H152        0.6334  -26.2487  -41.5876 H         1 UNK         0.0600 
    153 H153        1.4582  -25.2734  -40.3826 H         1 UNK         0.0600 
    154 H154        2.9449  -23.5326  -41.4590 H         1 UNK         0.3000 
    155 H155        3.6573  -21.2495  -41.1846 H         1 UNK         0.0600 
    156 H156        4.3349  -21.4293  -44.1798 H         1 UNK         0.0600 
    157 H157        4.8656  -22.5537  -42.9360 H         1 UNK         0.0600 
    158 H158        5.4422  -20.8969  -42.9167 H         1 UNK         0.0600 
    159 H159        3.3220  -19.3502  -43.3886 H         1 UNK         0.3000 
    160 H160        2.8887  -16.9342  -42.1898 H         1 UNK         0.0600 
    161 H161        0.7154  -18.3575  -43.8050 H         1 UNK         0.0600 
    162 H162        2.2893  -17.7770  -44.3588 H         1 UNK         0.0600 
    163 H163        1.0251  -16.6335  -43.9611 H         1 UNK         0.0600 
    164 H164        1.3481  -15.9230  -41.0204 H         1 UNK         0.3000 
    165 H165       -2.0882  -16.2269  -40.4873 H         1 UNK         0.0600 
    166 H166       -1.5414  -15.8931  -38.0876 H         1 UNK         0.0600 
    167 H167       -1.2764  -17.5680  -38.5460 H         1 UNK         0.0600 
    168 H168        0.0986  -16.4882  -38.3529 H         1 UNK         0.0600 
    169 H169       -0.0495  -14.3776  -39.6140 H         1 UNK         0.3000 
    170 H170       -0.9681  -11.9460  -41.6729 H         1 UNK         0.0600 
    171 H171       -0.0443  -12.2098  -39.3940 H         1 UNK         0.0600 
    172 H172        1.4488  -12.8963  -40.0311 H         1 UNK         0.0600 
    173 H173        1.0257  -11.2241  -40.3699 H         1 UNK         0.0600 
    174 H174        0.3458  -11.8885  -43.4260 H         1 UNK         0.3000 
    175 H175        3.4608  -12.6392  -44.2240 H         1 UNK         0.0600 
    176 H176        1.5974  -14.7788  -45.3765 H         1 UNK         0.0600 
    177 H177        3.0676  -14.1833  -46.1425 H         1 UNK         0.0600 
    178 H178        3.1635  -15.0667  -44.6283 H         1 UNK         0.0600 
    179 H179        0.9677  -12.4406  -45.7968 H         1 UNK         0.3000 
    180 H180        0.7383   -8.9426  -45.4906 H         1 UNK         0.0600 
    181 H181        1.7490  -10.3817  -48.0045 H         1 UNK         0.0600 
    182 H182        2.5172   -8.9902  -47.2497 H         1 UNK         0.0600 
    183 H183        0.9219   -8.8235  -47.9642 H         1 UNK         0.0600 
    184 H184       -0.5724  -10.7606  -47.2489 H         1 UNK         0.3000 
    185 H185       -2.6253  -12.4624  -45.0286 H         1 UNK         0.0600 
    186 H186       -3.8881  -10.3022  -44.9012 H         1 UNK         0.0600 
    187 H187       -3.6470  -10.0541  -46.6265 H         1 UNK         0.0600 
    188 H188       -4.6185  -11.4098  -46.0504 H         1 UNK         0.0600 
    189 H189       -3.0651  -12.2450  -47.7468 H         1 UNK         0.3000 
    190 H190       -0.0389  -21.6991  -44.6153 H         1 UNK         0.3000 
    191 H191       -2.5651  -20.5154  -45.1137 H         1 UNK         0.0600 
    192 H192       -1.7087  -21.0277  -42.8403 H         1 UNK         0.0600 
    193 H193       -3.2706  -21.7935  -43.0955 H         1 UNK         0.0600 
    194 H194       -1.8003  -22.7567  -43.1670 H         1 UNK         0.0600 
    195 H195       -1.4642  -23.9249  -45.5038 H         1 UNK         0.3000 
    196 H196       -3.9106  -24.9778  -46.4790 H         1 UNK         0.0600 
    197 H197       -2.4777  -26.8447  -47.3084 H         1 UNK         0.0600 
    198 H198       -2.0608  -26.4018  -45.6597 H         1 UNK         0.0600 
    199 H199       -1.0324  -25.8918  -46.9961 H         1 UNK         0.0600 
    200 H200       -1.1094  -23.5540  -48.2403 H         1 UNK         0.3000 
    201 H201       -2.1396  -23.8979  -50.8533 H         1 UNK         0.0600 
    202 H202       -0.4294  -22.1876  -51.4742 H         1 UNK         0.0600 
    203 H203        0.2428  -23.4231  -50.4212 H         1 UNK         0.0600 
    204 H204       -0.1540  -21.8313  -49.7748 H         1 UNK         0.0600 
    205 H205       -2.6852  -21.2803  -48.4886 H         1 UNK         0.3000 
    206 H206       -4.1850  -19.5748  -50.2685 H         1 UNK         0.0600 
    207 H207       -3.1278  -18.7240  -48.1762 H         1 UNK         0.0600 
    208 H208       -4.8605  -18.4473  -48.1463 H         1 UNK         0.0600 
    209 H209       -4.1637  -19.7541  -47.2045 H         1 UNK         0.0600 
    210 H210       -5.0883  -22.0627  -47.8424 H         1 UNK         0.3000 
    211 H211       -7.8858  -21.7918  -48.0378 H         1 UNK         0.0600 
    212 H212       -6.1972  -24.2034  -47.1892 H         1 UNK         0.0600 
    213 H213       -7.9107  -23.9924  -46.8507 H         1 UNK         0.0600 
    214 H214       -6.7386  -22.8944  -46.1395 H         1 UNK         0.0600 
    215 H215       -5.6664  -23.5862  -50.0745 H         1 UNK         0.3000 
    216 H216       -7.5636  -25.2690  -51.4106 H         1 UNK         0.0600 
    217 H217       -5.6099  -25.7477  -52.8863 H         1 UNK         0.0600 
    218 H218       -5.1559  -25.8143  -51.1928 H         1 UNK         0.0600 
    219 H219       -4.7277  -24.4057  -52.1611 H         1 UNK         0.0600 
    220 H220       -8.7625  -22.8446  -51.4563 H         1 UNK         0.3000 
    221 H221       -9.8996  -21.3673  -52.6561 H         1 UNK         0.0600 
    222 H222       -9.2866  -23.1349  -55.0827 H         1 UNK         0.0600 
    223 H223      -10.6099  -23.3773  -53.9435 H         1 UNK         0.0600 
    224 H224      -10.5740  -21.9451  -54.9591 H         1 UNK         0.0600 
    225 H225       -7.6416  -20.3619  -51.9671 H         1 UNK         0.3000 
    226 H226       -6.3681  -18.5950  -52.1638 H         1 UNK         0.0600 
    227 H227       -7.9618  -17.5574  -53.8451 H         1 UNK         0.0600 
    228 H228       -6.2872  -17.0821  -54.0645 H         1 UNK         0.0600 
    229 H229       -6.9988  -18.2672  -55.1421 H         1 UNK         0.0600 
    230 H230       -4.3014  -17.9051  -53.1810 H         1 UNK         0.3000 
    231 H231       -2.3865  -19.5711  -52.5737 H         1 UNK         0.0600 
    232 H232       -2.1909  -17.4021  -54.7202 H         1 UNK         0.0600 
    233 H233       -0.8318  -18.0583  -53.8167 H         1 UNK         0.0600 
    234 H234       -2.0880  -17.1594  -52.9811 H         1 UNK         0.0600 
    235 H235       -2.4620  -21.6728  -53.1951 H         1 UNK         0.3000 
    236 H236       -2.7414  -22.7981  -55.6510 H         1 UNK         0.0600 
    237 H237       -1.0472  -23.8487  -53.3208 H         1 UNK         0.0600 
    238 H238       -2.7934  -24.0243  -53.4959 H         1 UNK         0.0600 
    239 H239       -1.7129  -24.8299  -54.6206 H         1 UNK         0.0600 
    240 H240        0.2448  -21.3472  -54.5023 H         1 UNK         0.3000 
    241 H241        1.8769  -22.4520  -56.6667 H         1 UNK         0.0600 
    242 H242       -0.4668  -19.9557  -56.7341 H         1 UNK         0.3800 
    243 H243        0.2719  -19.0672  -58.0414 H         1 UNK         0.3800 
    244 H244        3.0291  -22.2179  -54.5921 H         1 UNK         0.0800 
    245 H245        3.7208  -21.0931  -55.7123 H         1 UNK         0.0800 
    246 H246        1.5773  -21.6010  -52.5122 H         1 UNK         0.0800 
    247 H247        3.2856  -21.4082  -52.2034 H         1 UNK         0.0800 
@<TRIPOS>BOND
     1    1    2 1    
     2    1  127 1    
     3    1  128 1    
     4    1  129 1    
     5    2    3 2    
     6    2    4 am   BACKBONE|DICT|INTERRES
     7    4    5 1    
     8    4  130 1    
     9    5    6 1    
    10    5   65 1    
    11    5  131 1    
    12    6    7 1    
    13    6  132 1    
    14    6  133 1    
    15    7    8 1    
    16    8    9 1    
    17    8  134 1    
    18    8  135 1    
    19    9   10 ar   
    20    9   14 ar   
    21   10   11 ar   
    22   10  136 1    
    23   11   12 ar   
    24   11  126 1    
    25   12   13 ar   
    26   12  137 1    
    27   13   14 ar   
    28   13   15 1    
    29   14  138 1    
    30   15   16 1    
    31   15  139 1    
    32   15  140 1    
    33   16   17 1    
    34   17   18 1    
    35   17  141 1    
    36   17  142 1    
    37   18   19 1    
    38   18   67 1    
    39   18  143 1    
    40   19   20 am   BACKBONE|DICT|INTERRES
    41   19  144 1    
    42   20   21 2    
    43   20   22 1    
    44   22   23 1    
    45   22   24 1    
    46   22  145 1    
    47   23  146 1    
    48   23  147 1    
    49   23  148 1    
    50   24   25 am   BACKBONE|DICT|INTERRES
    51   24  149 1    
    52   25   26 2    
    53   25   27 1    
    54   27   28 1    
    55   27   29 1    
    56   27  150 1    
    57   28  151 1    
    58   28  152 1    
    59   28  153 1    
    60   29   30 am   BACKBONE|DICT|INTERRES
    61   29  154 1    
    62   30   31 2    
    63   30   32 1    
    64   32   33 1    
    65   32   34 1    
    66   32  155 1    
    67   33  156 1    
    68   33  157 1    
    69   33  158 1    
    70   34   35 am   BACKBONE|DICT|INTERRES
    71   34  159 1    
    72   35   36 2    
    73   35   37 1    
    74   37   38 1    
    75   37   39 1    
    76   37  160 1    
    77   38  161 1    
    78   38  162 1    
    79   38  163 1    
    80   39   40 am   BACKBONE|DICT|INTERRES
    81   39  164 1    
    82   40   41 2    
    83   40   42 1    
    84   42   43 1    
    85   42   44 1    
    86   42  165 1    
    87   43  166 1    
    88   43  167 1    
    89   43  168 1    
    90   44   45 am   BACKBONE|DICT|INTERRES
    91   44  169 1    
    92   45   46 2    
    93   45   47 1    
    94   47   48 1    
    95   47   49 1    
    96   47  170 1    
    97   48  171 1    
    98   48  172 1    
    99   48  173 1    
   100   49   50 am   BACKBONE|DICT|INTERRES
   101   49  174 1    
   102   50   51 2    
   103   50   52 1    
   104   52   53 1    
   105   52   54 1    
   106   52  175 1    
   107   53  176 1    
   108   53  177 1    
   109   53  178 1    
   110   54   55 am   BACKBONE|DICT|INTERRES
   111   54  179 1    
   112   55   56 2    
   113   55   57 1    
   114   57   58 1    
   115   57   59 1    
   116   57  180 1    
   117   58  181 1    
   118   58  182 1    
   119   58  183 1    
   120   59   60 am   BACKBONE|DICT|INTERRES
   121   59  184 1    
   122   60   61 2    
   123   60   62 1    
   124   62   63 1    
   125   62   64 1    
   126   62  185 1    
   127   63  186 1    
   128   63  187 1    
   129   63  188 1    
   130   64   65 am   BACKBONE|DICT|INTERRES
   131   64  189 1    
   132   65   66 2    
   133   67   68 2    
   134   67   69 am   BACKBONE|DICT|INTERRES
   135   69   70 1    
   136   69  190 1    
   137   70   71 1    
   138   70   72 1    
   139   70  191 1    
   140   71  192 1    
   141   71  193 1    
   142   71  194 1    
   143   72   73 2    
   144   72   74 am   BACKBONE|DICT|INTERRES
   145   74   75 1    
   146   74  195 1    
   147   75   76 1    
   148   75   77 1    
   149   75  196 1    
   150   76  197 1    
   151   76  198 1    
   152   76  199 1    
   153   77   78 2    
   154   77   79 am   BACKBONE|DICT|INTERRES
   155   79   80 1    
   156   79  200 1    
   157   80   81 1    
   158   80   82 1    
   159   80  201 1    
   160   81  202 1    
   161   81  203 1    
   162   81  204 1    
   163   82   83 2    
   164   82   84 am   BACKBONE|DICT|INTERRES
   165   84   85 1    
   166   84  205 1    
   167   85   86 1    
   168   85   87 1    
   169   85  206 1    
   170   86  207 1    
   171   86  208 1    
   172   86  209 1    
   173   87   88 2    
   174   87   89 am   BACKBONE|DICT|INTERRES
   175   89   90 1    
   176   89  210 1    
   177   90   91 1    
   178   90   92 1    
   179   90  211 1    
   180   91  212 1    
   181   91  213 1    
   182   91  214 1    
   183   92   93 2    
   184   92   94 am   BACKBONE|DICT|INTERRES
   185   94   95 1    
   186   94  215 1    
   187   95   96 1    
   188   95   97 1    
   189   95  216 1    
   190   96  217 1    
   191   96  218 1    
   192   96  219 1    
   193   97   98 2    
   194   97   99 am   BACKBONE|DICT|INTERRES
   195   99  100 1    
   196   99  220 1    
   197  100  101 1    
   198  100  102 1    
   199  100  221 1    
   200  101  222 1    
   201  101  223 1    
   202  101  224 1    
   203  102  103 2    
   204  102  104 am   BACKBONE|DICT|INTERRES
   205  104  105 1    
   206  104  225 1    
   207  105  106 1    
   208  105  107 1    
   209  105  226 1    
   210  106  227 1    
   211  106  228 1    
   212  106  229 1    
   213  107  108 2    
   214  107  109 am   BACKBONE|DICT|INTERRES
   215  109  110 1    
   216  109  230 1    
   217  110  111 1    
   218  110  112 1    
   219  110  231 1    
   220  111  232 1    
   221  111  233 1    
   222  111  234 1    
   223  112  113 2    
   224  112  114 am   BACKBONE|DICT|INTERRES
   225  114  115 1    
   226  114  235 1    
   227  115  116 1    
   228  115  117 1    
   229  115  236 1    
   230  116  237 1    
   231  116  238 1    
   232  116  239 1    
   233  117  118 2    
   234  117  119 am   BACKBONE|DICT|INTERRES
   235  119  120 1    
   236  119  240 1    
   237  120  121 1    
   238  120  124 1    
   239  120  241 1    
   240  121  122 am   BACKBONE|DICT|INTERRES
   241  121  123 2    
   242  122  242 1    
   243  122  243 1    
   244  124  125 1    
   245  124  244 1    
   246  124  245 1    
   247  125  126 1    
   248  126  246 1    
   249  126  247 1    
@<TRIPOS>SUBSTRUCTURE
     1 UNK         1 GROUP             0       ****    0 ROOT    
