@<TRIPOS>MOLECULE
3R540
247   249    1
SMALL
USER_CHARGES


@<TRIPOS>ATOM
      1 CA         -3.0866  -15.1880  -42.9351 C.3       0 UNK        -0.1800 
      2 C          -3.1350  -14.2604  -44.1379 C.2       0 UNK         0.5000 
      3 O          -3.8317  -13.2464  -44.1056 O.2       0 UNK        -0.5000 
      4 N          -2.3818  -14.5965  -45.1942 N.am      1 UNK        -0.5000 
      5 CA         -2.2613  -13.7928  -46.4214 C.3       1 UNK         0.1400 
      6 C6         -1.9061  -14.6707  -47.6565 C.3       23 UNK        -0.0398 
      7 S7         -3.0723  -14.3853  -49.0343 S.3       23 UNK        -0.2404 
      8 C8         -3.6894  -16.0637  -49.3739 C.3       23 UNK        -0.0205 
      9 C9         -2.8421  -16.7595  -50.4268 C.ar      23 UNK        -0.0193 
     10 C10        -3.2986  -16.8382  -51.7461 C.ar      23 UNK        -0.1150 
     11 C11        -2.5182  -17.4444  -52.7333 C.ar      23 UNK        -0.0193 
     12 C12        -1.2672  -17.9646  -52.3926 C.ar      23 UNK        -0.1150 
     13 C13        -0.8050  -17.9087  -51.0746 C.ar      23 UNK        -0.0193 
     14 C14        -1.5999  -17.3092  -50.0931 C.ar      23 UNK        -0.1150 
     15 C15         0.5661  -18.4703  -50.7304 C.3       23 UNK        -0.0205 
     16 S16         0.4669  -20.1733  -50.0964 S.3       23 UNK        -0.2404 
     17 C17         0.4157  -19.8876  -48.2947 C.3       23 UNK        -0.0398 
     18 CA         -0.5231  -20.8677  -47.5538 C.3       11 UNK         0.1400 
     19 N          -0.1393  -21.0337  -46.1502 N.am      11 UNK        -0.5000 
     20 C          -0.6448  -21.9629  -45.3267 C.2       10 UNK         0.5000 
     21 O          -1.4784  -22.8006  -45.6681 O.2       10 UNK        -0.5000 
     22 CA         -0.1842  -21.9127  -43.8599 C.3       10 UNK         0.1400 
     23 CB          1.2123  -22.5316  -43.7003 C.3       10 UNK        -0.1800 
     24 N          -0.1905  -20.5519  -43.3226 N.am      10 UNK        -0.5000 
     25 C          -1.2894  -19.7936  -43.2014 C.2       9 UNK         0.5000 
     26 O          -2.4226  -20.1817  -43.4842 O.2       9 UNK        -0.5000 
     27 CA         -1.0851  -18.3407  -42.7446 C.3       9 UNK         0.1400 
     28 CB         -0.8827  -18.2525  -41.2252 C.3       9 UNK        -0.1800 
     29 N           0.0342  -17.6977  -43.4310 N.am      9 UNK        -0.5000 
     30 C           0.0630  -17.4149  -44.7402 C.2       8 UNK         0.5000 
     31 O          -0.8969  -17.5634  -45.4948 O.2       8 UNK        -0.5000 
     32 CA          1.3900  -16.8923  -45.3114 C.3       8 UNK         0.1400 
     33 CB          1.4674  -15.3668  -45.1816 C.3       8 UNK        -0.1800 
     34 N           2.5502  -17.5050  -44.6654 N.am      8 UNK        -0.5000 
     35 C           2.9151  -18.7830  -44.8389 C.2       7 UNK         0.5000 
     36 O           2.3123  -19.5714  -45.5661 O.2       7 UNK        -0.5000 
     37 CA          4.1295  -19.2711  -44.0301 C.3       7 UNK         0.1400 
     38 CB          5.4405  -18.8565  -44.7142 C.3       7 UNK        -0.1800 
     39 N           4.1185  -18.7745  -42.6540 N.am      7 UNK        -0.5000 
     40 C           3.2061  -19.1204  -41.7353 C.2       6 UNK         0.5000 
     41 O           2.2913  -19.9162  -41.9450 O.2       6 UNK        -0.5000 
     42 CA          3.3046  -18.4219  -40.3678 C.3       6 UNK         0.1400 
     43 CB          4.2895  -19.1635  -39.4519 C.3       6 UNK        -0.1800 
     44 N           3.6887  -17.0095  -40.4551 N.am      6 UNK        -0.5000 
     45 C           2.9784  -16.0656  -41.0860 C.2       5 UNK         0.5000 
     46 O           1.9591  -16.2956  -41.7411 O.2       5 UNK        -0.5000 
     47 CA          3.4970  -14.6219  -40.9837 C.3       5 UNK         0.1400 
     48 CB          4.0586  -14.1458  -42.3317 C.3       5 UNK        -0.1800 
     49 N           2.4159  -13.7325  -40.5647 N.am      5 UNK        -0.5000 
     50 C           1.9317  -13.6741  -39.3167 C.2       4 UNK         0.5000 
     51 O           2.4233  -14.2975  -38.3736 O.2       4 UNK        -0.5000 
     52 CA          0.6803  -12.7993  -39.0865 C.3       4 UNK         0.1400 
     53 CB          0.5958  -12.2462  -37.6481 C.3       4 UNK        -0.1800 
     54 N           0.5017  -11.7229  -40.0683 N.am      4 UNK        -0.5000 
     55 C           1.2837  -10.6564  -40.2805 C.2       3 UNK         0.5000 
     56 O           2.3567  -10.4647  -39.7057 O.2       3 UNK        -0.5000 
     57 CA          0.7617   -9.6373  -41.3189 C.3       3 UNK         0.1400 
     58 CB          1.5138   -8.2955  -41.2525 C.3       3 UNK        -0.1800 
     59 N           0.8144  -10.1307  -42.6978 N.am      3 UNK        -0.5000 
     60 C           0.0568  -11.1019  -43.2223 C.2       2 UNK         0.5000 
     61 O          -0.7727  -11.7486  -42.5748 O.2       2 UNK        -0.5000 
     62 CA          0.2595  -11.3952  -44.7183 C.3       2 UNK         0.1400 
     63 CB          1.7102  -11.8018  -45.0344 C.3       2 UNK        -0.1800 
     64 N          -0.6428  -12.4736  -45.1050 N.am      2 UNK        -0.5000 
     65 C          -1.2918  -12.5929  -46.2683 C.2       1 UNK         0.5000 
     66 O          -1.1469  -11.8058  -47.2047 O.2       1 UNK        -0.5000 
     67 C          -2.0097  -20.4833  -47.7077 C.2       11 UNK         0.5000 
     68 O          -2.6903  -21.0572  -48.5548 O.2       11 UNK        -0.5000 
     69 N          -2.5074  -19.5730  -46.8561 N.am      12 UNK        -0.5000 
     70 CA         -3.9188  -19.1845  -46.8016 C.3       12 UNK         0.1400 
     71 CB         -4.0953  -17.9912  -45.8483 C.3       12 UNK        -0.1800 
     72 C          -4.8506  -20.3408  -46.3940 C.2       12 UNK         0.5000 
     73 O          -5.9239  -20.4855  -46.9798 O.2       12 UNK        -0.5000 
     74 N          -4.4233  -21.1431  -45.4092 N.am      13 UNK        -0.5000 
     75 CA         -5.1505  -22.3152  -44.9233 C.3       13 UNK         0.1400 
     76 CB         -4.5293  -22.7921  -43.6013 C.3       13 UNK        -0.1800 
     77 C          -5.1927  -23.4590  -45.9530 C.2       13 UNK         0.5000 
     78 O          -6.2525  -24.0524  -46.1578 O.2       13 UNK        -0.5000 
     79 N          -4.0439  -23.7478  -46.5781 N.am      14 UNK        -0.5000 
     80 CA         -3.8920  -24.7911  -47.5922 C.3       14 UNK         0.1400 
     81 CB         -2.3993  -25.1022  -47.7627 C.3       14 UNK        -0.1800 
     82 C          -4.5189  -24.4163  -48.9468 C.2       14 UNK         0.5000 
     83 O          -5.0250  -25.2989  -49.6421 O.2       14 UNK        -0.5000 
     84 N          -4.4604  -23.1248  -49.3025 N.am      15 UNK        -0.5000 
     85 CA         -4.9014  -22.5331  -50.5657 C.3       15 UNK         0.1400 
     86 CB         -6.4443  -22.5217  -50.6463 C.3       15 UNK        -0.1800 
     87 C          -4.1982  -23.2069  -51.7611 C.2       15 UNK         0.5000 
     88 O          -2.9684  -23.2902  -51.7653 O.2       15 UNK        -0.5000 
     89 N          -4.9753  -23.7216  -52.7222 N.am      16 UNK        -0.5000 
     90 CA         -4.5259  -24.4062  -53.9374 C.3       16 UNK         0.1400 
     91 CB         -5.7651  -24.7805  -54.7667 C.3       16 UNK        -0.1800 
     92 C          -3.6353  -25.6485  -53.7164 C.2       16 UNK         0.5000 
     93 O          -2.9754  -26.0788  -54.6619 O.2       16 UNK        -0.5000 
     94 N          -3.6217  -26.2067  -52.4968 N.am      17 UNK        -0.5000 
     95 CA         -2.7319  -27.3033  -52.1118 C.3       17 UNK         0.1400 
     96 CB         -3.2958  -28.0025  -50.8658 C.3       17 UNK        -0.1800 
     97 C          -1.2758  -26.8501  -51.8728 C.2       17 UNK         0.5000 
     98 O          -0.3743  -27.6839  -51.9698 O.2       17 UNK        -0.5000 
     99 N          -1.0654  -25.5615  -51.5664 N.am      18 UNK        -0.5000 
    100 CA         0.2543  -24.9589  -51.3582 C.3       18 UNK         0.1400 
    101 CB         0.2853  -24.2553  -49.9925 C.3       18 UNK        -0.1800 
    102 C          0.5946  -23.9580  -52.4725 C.2       18 UNK         0.5000 
    103 O          1.7306  -23.9386  -52.9491 O.2       18 UNK        -0.5000 
    104 N         -0.3897  -23.1393  -52.8576 N.am      19 UNK        -0.5000 
    105 CA        -0.2835  -22.1155  -53.8899 C.3       19 UNK         0.1400 
    106 CB        -1.4543  -21.1441  -53.7034 C.3       19 UNK        -0.1800 
    107 C         -0.3195  -22.7052  -55.3098 C.2       19 UNK         0.5000 
    108 O         -0.6556  -23.8766  -55.4977 O.2       19 UNK        -0.5000 
    109 N         -0.0475  -21.8512  -56.3043 N.am      20 UNK        -0.5000 
    110 CA        -0.1332  -22.1468  -57.7377 C.3       20 UNK         0.1400 
    111 CB         0.7299  -21.1254  -58.5008 C.3       20 UNK        -0.1800 
    112 C         -1.5928  -22.1962  -58.2505 C.2       20 UNK         0.5000 
    113 O         -1.9319  -21.5201  -59.2233 O.2       20 UNK        -0.5000 
    114 N         -2.4275  -22.9977  -57.5743 N.am      21 UNK        -0.5000 
    115 CA        -3.8322  -23.2983  -57.8691 C.3       21 UNK         0.1400 
    116 CB        -3.9381  -24.1379  -59.1593 C.3       21 UNK        -0.1800 
    117 C         -4.7669  -22.0669  -57.8757 C.2       21 UNK         0.5000 
    118 O         -5.7250  -22.0338  -58.6512 O.2       21 UNK        -0.5000 
    119 N         -4.4821  -21.0751  -57.0197 N.am      22 UNK        -0.5000 
    120 CA        -5.3170  -19.8748  -56.8471 C.3       22 UNK         0.1400 
    121 C         -6.6829  -20.1552  -56.1515 C.2       22 UNK         0.5000 
    122 N         -7.6630  -19.2784  -56.3266 N.am      22 UNK        -0.7600 
    123 O         -6.8606  -21.1423  -55.4404 O.2       22 UNK        -0.5000 
    124 C124       -4.5352  -18.7097  -56.1841 C.3       23 UNK        -0.0398 
    125 S125       -4.0464  -18.9898  -54.4478 S.3       23 UNK        -0.2404 
    126 C126       -3.0181  -17.5148  -54.1682 C.3       23 UNK        -0.0205 
    127 H127       -3.6682  -16.0891  -43.1286 H         1 UNK         0.0600 
    128 H128       -3.5007  -14.6973  -42.0540 H         1 UNK         0.0600 
    129 H129       -2.0580  -15.4673  -42.7076 H         1 UNK         0.0600 
    130 H130       -1.8573  -15.4614  -45.1766 H         1 UNK         0.3000 
    131 H131       -3.2410  -13.3408  -46.5918 H         1 UNK         0.0600 
    132 H132       -1.9188  -15.7279  -47.3925 H         1 UNK         0.0800 
    133 H133       -0.8932  -14.4890  -48.0213 H         1 UNK         0.0800 
    134 H134       -3.7204  -16.6548  -48.4610 H         1 UNK         0.0800 
    135 H135       -4.7231  -15.9884  -49.7148 H         1 UNK         0.0800 
    136 H136       -4.2601  -16.4200  -52.0093 H         1 UNK         0.1150 
    137 H137       -0.6492  -18.4150  -53.1555 H         1 UNK         0.1150 
    138 H138       -1.2451  -17.2535  -49.0749 H         1 UNK         0.1150 
    139 H139        1.1964  -18.4740  -51.6209 H         1 UNK         0.0800 
    140 H140        1.0727  -17.8232  -50.0129 H         1 UNK         0.0800 
    141 H141        1.4403  -20.0248  -47.9492 H         1 UNK         0.0800 
    142 H142        0.1615  -18.8524  -48.0639 H         1 UNK         0.0800 
    143 H143       -0.4017  -21.8522  -48.0111 H         1 UNK         0.0600 
    144 H144        0.5835  -20.4113  -45.8000 H         1 UNK         0.3000 
    145 H145       -0.8869  -22.5062  -43.2713 H         1 UNK         0.0600 
    146 H146        1.5053  -22.5749  -42.6512 H         1 UNK         0.0600 
    147 H147        1.2341  -23.5514  -44.0867 H         1 UNK         0.0600 
    148 H148        1.9716  -21.9607  -44.2350 H         1 UNK         0.0600 
    149 H149        0.7040  -20.1787  -43.0174 H         1 UNK         0.3000 
    150 H150       -1.9957  -17.7985  -42.9975 H         1 UNK         0.0600 
    151 H151       -1.7287  -18.6895  -40.6934 H         1 UNK         0.0600 
    152 H152       -0.7925  -17.2158  -40.9001 H         1 UNK         0.0600 
    153 H153        0.0150  -18.7814  -40.9057 H         1 UNK         0.0600 
    154 H154        0.8436  -17.4613  -42.8648 H         1 UNK         0.3000 
    155 H155        1.4202  -17.1442  -46.3737 H         1 UNK         0.0600 
    156 H156        2.4277  -14.9860  -45.5293 H         1 UNK         0.0600 
    157 H157        1.3245  -15.0404  -44.1510 H         1 UNK         0.0600 
    158 H158        0.6959  -14.8924  -45.7869 H         1 UNK         0.0600 
    159 H159        3.0603  -16.9368  -44.0060 H         1 UNK         0.3000 
    160 H160        4.0912  -20.3621  -43.9981 H         1 UNK         0.0600 
    161 H161        5.5524  -17.7722  -44.7523 H         1 UNK         0.0600 
    162 H162        5.4791  -19.2269  -45.7395 H         1 UNK         0.0600 
    163 H163        6.3046  -19.2650  -44.1899 H         1 UNK         0.0600 
    164 H164        4.8348  -18.1113  -42.3974 H         1 UNK         0.3000 
    165 H165        2.3156  -18.4654  -39.9072 H         1 UNK         0.0600 
    166 H166        5.3086  -19.1239  -39.8384 H         1 UNK         0.0600 
    167 H167        4.2933  -18.7366  -38.4488 H         1 UNK         0.0600 
    168 H168        4.0157  -20.2151  -39.3545 H         1 UNK         0.0600 
    169 H169        4.5134  -16.7375  -39.9397 H         1 UNK         0.3000 
    170 H170        4.2987  -14.5745  -40.2435 H         1 UNK         0.0600 
    171 H171        4.8936  -14.7715  -42.6490 H         1 UNK         0.0600 
    172 H172        3.3067  -14.1807  -43.1185 H         1 UNK         0.0600 
    173 H173        4.4265  -13.1217  -42.2659 H         1 UNK         0.0600 
    174 H174        1.9363  -13.2208  -41.2894 H         1 UNK         0.3000 
    175 H175       -0.1703  -13.4678  -39.2258 H         1 UNK         0.0600 
    176 H176       -0.3058  -11.6502  -37.5068 H         1 UNK         0.0600 
    177 H177        0.5640  -13.0550  -36.9171 H         1 UNK         0.0600 
    178 H178        1.4543  -11.6199  -37.4039 H         1 UNK         0.0600 
    179 H179       -0.3002  -11.8214  -40.6852 H         1 UNK         0.3000 
    180 H180       -0.2831   -9.4368  -41.0719 H         1 UNK         0.0600 
    181 H181        1.0664   -7.5590  -41.9204 H         1 UNK         0.0600 
    182 H182        1.4817   -7.8782  -40.2452 H         1 UNK         0.0600 
    183 H183        2.5629   -8.4062  -41.5296 H         1 UNK         0.0600 
    184 H184        1.4859   -9.6723  -43.2965 H         1 UNK         0.3000 
    185 H185        0.0066  -10.4873  -45.2698 H         1 UNK         0.0600 
    186 H186        1.8175  -12.1081  -46.0752 H         1 UNK         0.0600 
    187 H187        2.3994  -10.9729  -44.8719 H         1 UNK         0.0600 
    188 H188        2.0395  -12.6288  -44.4069 H         1 UNK         0.0600 
    189 H189       -0.8989  -13.0913  -44.3463 H         1 UNK         0.3000 
    190 H190       -1.8857  -19.1070  -46.2030 H         1 UNK         0.3000 
    191 H191       -4.2125  -18.8692  -47.8045 H         1 UNK         0.0600 
    192 H192       -5.1356  -17.6653  -45.8186 H         1 UNK         0.0600 
    193 H193       -3.4988  -17.1372  -46.1634 H         1 UNK         0.0600 
    194 H194       -3.8012  -18.2423  -44.8293 H         1 UNK         0.0600 
    195 H195       -3.5533  -20.9178  -44.9361 H         1 UNK         0.3000 
    196 H196       -6.1800  -22.0127  -44.7205 H         1 UNK         0.0600 
    197 H197       -5.0607  -23.6604  -43.2098 H         1 UNK         0.0600 
    198 H198       -4.5755  -22.0119  -42.8413 H         1 UNK         0.0600 
    199 H199       -3.4833  -23.0743  -43.7253 H         1 UNK         0.0600 
    200 H200       -3.1999  -23.2440  -46.3154 H         1 UNK         0.3000 
    201 H201       -4.3892  -25.6960  -47.2366 H         1 UNK         0.0600 
    202 H202       -1.9693  -25.4885  -46.8385 H         1 UNK         0.0600 
    203 H203       -1.8437  -24.2061  -48.0380 H         1 UNK         0.0600 
    204 H204       -2.2307  -25.8484  -48.5389 H         1 UNK         0.0600 
    205 H205       -3.9343  -22.4871  -48.7114 H         1 UNK         0.3000 
    206 H206       -4.5608  -21.4968  -50.5584 H         1 UNK         0.0600 
    207 H207       -6.8699  -22.0056  -49.7853 H         1 UNK         0.0600 
    208 H208       -6.7901  -21.9939  -51.5360 H         1 UNK         0.0600 
    209 H209       -6.8651  -23.5277  -50.6654 H         1 UNK         0.0600 
    210 H210       -5.9749  -23.6298  -52.6147 H         1 UNK         0.3000 
    211 H211       -3.9309  -23.6918  -54.5096 H         1 UNK         0.0600 
    212 H212       -6.4486  -25.4135  -54.1997 H         1 UNK         0.0600 
    213 H213       -5.4920  -25.3284  -55.6693 H         1 UNK         0.0600 
    214 H214       -6.3123  -23.8915  -55.0811 H         1 UNK         0.0600 
    215 H215       -4.1967  -25.8063  -51.7657 H         1 UNK         0.3000 
    216 H216       -2.7159  -28.0350  -52.9224 H         1 UNK         0.0600 
    217 H217       -2.6852  -28.8639  -50.5923 H         1 UNK         0.0600 
    218 H218       -4.3089  -28.3649  -51.0407 H         1 UNK         0.0600 
    219 H219       -3.3230  -27.3359  -50.0051 H         1 UNK         0.0600 
    220 H220       -1.8576  -24.9277  -51.5527 H         1 UNK         0.3000 
    221 H221        1.0345  -25.7227  -51.3576 H         1 UNK         0.0600 
    222 H222       -0.5048  -23.5077  -49.9087 H         1 UNK         0.0600 
    223 H223        0.1661  -24.9725  -49.1811 H         1 UNK         0.0600 
    224 H224        1.2363  -23.7447  -49.8345 H         1 UNK         0.0600 
    225 H225       -1.3032  -23.2217  -52.4176 H         1 UNK         0.3000 
    226 H226        0.6554  -21.5746  -53.7547 H         1 UNK         0.0600 
    227 H227       -1.4953  -20.7643  -52.6824 H         1 UNK         0.0600 
    228 H228       -1.3623  -20.2879  -54.3710 H         1 UNK         0.0600 
    229 H229       -2.4117  -21.6216  -53.9149 H         1 UNK         0.0600 
    230 H230        0.1863  -20.8974  -56.0695 H         1 UNK         0.3000 
    231 H231        0.2963  -23.1354  -57.9128 H         1 UNK         0.0600 
    232 H232        0.7430  -21.3431  -59.5695 H         1 UNK         0.0600 
    233 H233        1.7639  -21.1471  -58.1562 H         1 UNK         0.0600 
    234 H234        0.3554  -20.1086  -58.3760 H         1 UNK         0.0600 
    235 H235       -2.0235  -23.5024  -56.7891 H         1 UNK         0.3000 
    236 H236       -4.1766  -23.9261  -57.0488 H         1 UNK         0.0600 
    237 H237       -3.6544  -23.5614  -60.0403 H         1 UNK         0.0600 
    238 H238       -3.2944  -25.0164  -59.1116 H         1 UNK         0.0600 
    239 H239       -4.9570  -24.4946  -59.3145 H         1 UNK         0.0600 
    240 H240       -3.6970  -21.1705  -56.3944 H         1 UNK         0.3000 
    241 H241       -5.5641  -19.5353  -57.8552 H         1 UNK         0.0600 
    242 H242       -8.5493  -19.4432  -55.8751 H         1 UNK         0.3800 
    243 H243       -7.5491  -18.4597  -56.9041 H         1 UNK         0.3800 
    244 H244       -3.6357  -18.5042  -56.7662 H         1 UNK         0.0800 
    245 H245       -5.1264  -17.7935  -56.2259 H         1 UNK         0.0800 
    246 H246       -2.1739  -17.5255  -54.8595 H         1 UNK         0.0800 
    247 H247       -3.5964  -16.6194  -54.4014 H         1 UNK         0.0800 
@<TRIPOS>BOND
     1    1    2 1    
     2    1  127 1    
     3    1  128 1    
     4    1  129 1    
     5    2    3 2    
     6    2    4 am   BACKBONE|DICT|INTERRES
     7    4    5 1    
     8    4  130 1    
     9    5    6 1    
    10    5   65 1    
    11    5  131 1    
    12    6    7 1    
    13    6  132 1    
    14    6  133 1    
    15    7    8 1    
    16    8    9 1    
    17    8  134 1    
    18    8  135 1    
    19    9   10 ar   
    20    9   14 ar   
    21   10   11 ar   
    22   10  136 1    
    23   11   12 ar   
    24   11  126 1    
    25   12   13 ar   
    26   12  137 1    
    27   13   14 ar   
    28   13   15 1    
    29   14  138 1    
    30   15   16 1    
    31   15  139 1    
    32   15  140 1    
    33   16   17 1    
    34   17   18 1    
    35   17  141 1    
    36   17  142 1    
    37   18   19 1    
    38   18   67 1    
    39   18  143 1    
    40   19   20 am   BACKBONE|DICT|INTERRES
    41   19  144 1    
    42   20   21 2    
    43   20   22 1    
    44   22   23 1    
    45   22   24 1    
    46   22  145 1    
    47   23  146 1    
    48   23  147 1    
    49   23  148 1    
    50   24   25 am   BACKBONE|DICT|INTERRES
    51   24  149 1    
    52   25   26 2    
    53   25   27 1    
    54   27   28 1    
    55   27   29 1    
    56   27  150 1    
    57   28  151 1    
    58   28  152 1    
    59   28  153 1    
    60   29   30 am   BACKBONE|DICT|INTERRES
    61   29  154 1    
    62   30   31 2    
    63   30   32 1    
    64   32   33 1    
    65   32   34 1    
    66   32  155 1    
    67   33  156 1    
    68   33  157 1    
    69   33  158 1    
    70   34   35 am   BACKBONE|DICT|INTERRES
    71   34  159 1    
    72   35   36 2    
    73   35   37 1    
    74   37   38 1    
    75   37   39 1    
    76   37  160 1    
    77   38  161 1    
    78   38  162 1    
    79   38  163 1    
    80   39   40 am   BACKBONE|DICT|INTERRES
    81   39  164 1    
    82   40   41 2    
    83   40   42 1    
    84   42   43 1    
    85   42   44 1    
    86   42  165 1    
    87   43  166 1    
    88   43  167 1    
    89   43  168 1    
    90   44   45 am   BACKBONE|DICT|INTERRES
    91   44  169 1    
    92   45   46 2    
    93   45   47 1    
    94   47   48 1    
    95   47   49 1    
    96   47  170 1    
    97   48  171 1    
    98   48  172 1    
    99   48  173 1    
   100   49   50 am   BACKBONE|DICT|INTERRES
   101   49  174 1    
   102   50   51 2    
   103   50   52 1    
   104   52   53 1    
   105   52   54 1    
   106   52  175 1    
   107   53  176 1    
   108   53  177 1    
   109   53  178 1    
   110   54   55 am   BACKBONE|DICT|INTERRES
   111   54  179 1    
   112   55   56 2    
   113   55   57 1    
   114   57   58 1    
   115   57   59 1    
   116   57  180 1    
   117   58  181 1    
   118   58  182 1    
   119   58  183 1    
   120   59   60 am   BACKBONE|DICT|INTERRES
   121   59  184 1    
   122   60   61 2    
   123   60   62 1    
   124   62   63 1    
   125   62   64 1    
   126   62  185 1    
   127   63  186 1    
   128   63  187 1    
   129   63  188 1    
   130   64   65 am   BACKBONE|DICT|INTERRES
   131   64  189 1    
   132   65   66 2    
   133   67   68 2    
   134   67   69 am   BACKBONE|DICT|INTERRES
   135   69   70 1    
   136   69  190 1    
   137   70   71 1    
   138   70   72 1    
   139   70  191 1    
   140   71  192 1    
   141   71  193 1    
   142   71  194 1    
   143   72   73 2    
   144   72   74 am   BACKBONE|DICT|INTERRES
   145   74   75 1    
   146   74  195 1    
   147   75   76 1    
   148   75   77 1    
   149   75  196 1    
   150   76  197 1    
   151   76  198 1    
   152   76  199 1    
   153   77   78 2    
   154   77   79 am   BACKBONE|DICT|INTERRES
   155   79   80 1    
   156   79  200 1    
   157   80   81 1    
   158   80   82 1    
   159   80  201 1    
   160   81  202 1    
   161   81  203 1    
   162   81  204 1    
   163   82   83 2    
   164   82   84 am   BACKBONE|DICT|INTERRES
   165   84   85 1    
   166   84  205 1    
   167   85   86 1    
   168   85   87 1    
   169   85  206 1    
   170   86  207 1    
   171   86  208 1    
   172   86  209 1    
   173   87   88 2    
   174   87   89 am   BACKBONE|DICT|INTERRES
   175   89   90 1    
   176   89  210 1    
   177   90   91 1    
   178   90   92 1    
   179   90  211 1    
   180   91  212 1    
   181   91  213 1    
   182   91  214 1    
   183   92   93 2    
   184   92   94 am   BACKBONE|DICT|INTERRES
   185   94   95 1    
   186   94  215 1    
   187   95   96 1    
   188   95   97 1    
   189   95  216 1    
   190   96  217 1    
   191   96  218 1    
   192   96  219 1    
   193   97   98 2    
   194   97   99 am   BACKBONE|DICT|INTERRES
   195   99  100 1    
   196   99  220 1    
   197  100  101 1    
   198  100  102 1    
   199  100  221 1    
   200  101  222 1    
   201  101  223 1    
   202  101  224 1    
   203  102  103 2    
   204  102  104 am   BACKBONE|DICT|INTERRES
   205  104  105 1    
   206  104  225 1    
   207  105  106 1    
   208  105  107 1    
   209  105  226 1    
   210  106  227 1    
   211  106  228 1    
   212  106  229 1    
   213  107  108 2    
   214  107  109 am   BACKBONE|DICT|INTERRES
   215  109  110 1    
   216  109  230 1    
   217  110  111 1    
   218  110  112 1    
   219  110  231 1    
   220  111  232 1    
   221  111  233 1    
   222  111  234 1    
   223  112  113 2    
   224  112  114 am   BACKBONE|DICT|INTERRES
   225  114  115 1    
   226  114  235 1    
   227  115  116 1    
   228  115  117 1    
   229  115  236 1    
   230  116  237 1    
   231  116  238 1    
   232  116  239 1    
   233  117  118 2    
   234  117  119 am   BACKBONE|DICT|INTERRES
   235  119  120 1    
   236  119  240 1    
   237  120  121 1    
   238  120  124 1    
   239  120  241 1    
   240  121  122 am   BACKBONE|DICT|INTERRES
   241  121  123 2    
   242  122  242 1    
   243  122  243 1    
   244  124  125 1    
   245  124  244 1    
   246  124  245 1    
   247  125  126 1    
   248  126  246 1    
   249  126  247 1    
@<TRIPOS>SUBSTRUCTURE
     1 UNK         1 GROUP             0       ****    0 ROOT    
