@<TRIPOS>MOLECULE
3R540
247   249    1
SMALL
USER_CHARGES


@<TRIPOS>ATOM
      1 CA         -2.8504  -14.6218  -47.9898 C.3       0 UNK        -0.1800 
      2 C          -1.9372  -13.5159  -48.5004 C.2       0 UNK         0.5000 
      3 O          -2.4066  -12.4189  -48.8009 O.2       0 UNK        -0.5000 
      4 N          -0.6330  -13.8019  -48.5913 N.am      1 UNK        -0.5000 
      5 CA          0.4239  -12.8840  -49.0357 C.3       1 UNK         0.1400 
      6 C6          1.7439  -13.6238  -49.3962 C.3       23 UNK        -0.0398 
      7 S7          2.2110  -14.9705  -48.2450 S.3       23 UNK        -0.2404 
      8 C8          2.0171  -16.4622  -49.2829 C.3       23 UNK        -0.0205 
      9 C9          0.5587  -16.8130  -49.5574 C.ar      23 UNK        -0.0193 
     10 C10        -0.1118  -16.2355  -50.6401 C.ar      23 UNK        -0.1150 
     11 C11        -1.4545  -16.5261  -50.8873 C.ar      23 UNK        -0.0193 
     12 C12        -2.1186  -17.4395  -50.0665 C.ar      23 UNK        -0.1150 
     13 C13        -1.4514  -18.0674  -49.0115 C.ar      23 UNK        -0.0193 
     14 C14        -0.1171  -17.7345  -48.7490 C.ar      23 UNK        -0.1150 
     15 C15        -2.1792  -19.1065  -48.1697 C.3       23 UNK        -0.0205 
     16 S16        -2.4381  -20.6428  -49.1108 S.3       23 UNK        -0.2404 
     17 C17        -3.1304  -21.7731  -47.8545 C.3       23 UNK        -0.0398 
     18 CA         -2.0690  -22.7813  -47.3535 C.3       11 UNK         0.1400 
     19 N          -1.0037  -22.1283  -46.5890 N.am      11 UNK        -0.5000 
     20 C           0.1899  -22.6750  -46.3264 C.2       10 UNK         0.5000 
     21 O           0.5364  -23.7864  -46.7249 O.2       10 UNK        -0.5000 
     22 CA          1.1285  -21.8592  -45.4198 C.3       10 UNK         0.1400 
     23 CB          1.8818  -20.7968  -46.2337 C.3       10 UNK        -0.1800 
     24 N           0.4043  -21.2196  -44.3187 N.am      10 UNK        -0.5000 
     25 C          -0.1529  -21.8983  -43.3033 C.2       9 UNK         0.5000 
     26 O          -0.0657  -23.1181  -43.1799 O.2       9 UNK        -0.5000 
     27 CA         -0.9813  -21.1084  -42.2732 C.3       9 UNK         0.1400 
     28 CB         -0.1133  -20.7401  -41.0615 C.3       9 UNK        -0.1800 
     29 N          -1.6019  -19.9038  -42.8218 N.am      9 UNK        -0.5000 
     30 C          -2.5106  -19.8888  -43.8089 C.2       8 UNK         0.5000 
     31 O          -2.9495  -20.9087  -44.3431 O.2       8 UNK        -0.5000 
     32 CA         -2.9678  -18.5098  -44.3297 C.3       8 UNK         0.1400 
     33 CB         -4.2826  -18.0934  -43.6555 C.3       8 UNK        -0.1800 
     34 N          -1.9817  -17.4392  -44.1546 N.am      8 UNK        -0.5000 
     35 C          -0.7226  -17.4540  -44.6154 C.2       7 UNK         0.5000 
     36 O          -0.2518  -18.3719  -45.2864 O.2       7 UNK        -0.5000 
     37 CA          0.1816  -16.2720  -44.2187 C.3       7 UNK         0.1400 
     38 CB          0.0301  -15.1443  -45.2506 C.3       7 UNK        -0.1800 
     39 N          -0.0178  -15.7160  -42.8720 N.am      7 UNK        -0.5000 
     40 C          -0.1757  -16.3876  -41.7193 C.2       6 UNK         0.5000 
     41 O          -0.2959  -17.6100  -41.6424 O.2       6 UNK        -0.5000 
     42 CA         -0.1746  -15.5294  -40.4363 C.3       6 UNK         0.1400 
     43 CB         -0.3289  -16.3638  -39.1470 C.3       6 UNK        -0.1800 
     44 N           1.0078  -14.6636  -40.3613 N.am      6 UNK        -0.5000 
     45 C           2.2914  -15.0533  -40.3714 C.2       5 UNK         0.5000 
     46 O           2.6685  -16.2270  -40.3598 O.2       5 UNK        -0.5000 
     47 CA          3.3402  -13.9300  -40.4522 C.3       5 UNK         0.1400 
     48 CB          4.3308  -14.0023  -39.2793 C.3       5 UNK        -0.1800 
     49 N           4.0765  -14.0041  -41.7136 N.am      5 UNK        -0.5000 
     50 C           3.5334  -13.7992  -42.9194 C.2       4 UNK         0.5000 
     51 O           2.3537  -13.4835  -43.0973 O.2       4 UNK        -0.5000 
     52 CA          4.4556  -13.9895  -44.1344 C.3       4 UNK         0.1400 
     53 CB          4.1373  -15.3072  -44.8582 C.3       4 UNK        -0.1800 
     54 N           4.2671  -12.8777  -45.0591 N.am      4 UNK        -0.5000 
     55 C           4.8145  -11.6647  -44.9059 C.2       3 UNK         0.5000 
     56 O           5.6881  -11.4042  -44.0774 O.2       3 UNK        -0.5000 
     57 CA          4.2642  -10.5476  -45.8120 C.3       3 UNK         0.1400 
     58 CB          5.0297  -10.5019  -47.1429 C.3       3 UNK        -0.1800 
     59 N           2.8362  -10.7112  -46.0871 N.am      3 UNK        -0.5000 
     60 C           1.8499  -10.5969  -45.1886 C.2       2 UNK         0.5000 
     61 O           2.0348  -10.2292  -44.0279 O.2       2 UNK        -0.5000 
     62 CA          0.4193  -10.9712  -45.6363 C.3       2 UNK         0.1400 
     63 CB         -0.4256   -9.7093  -45.8953 C.3       2 UNK        -0.1800 
     64 N           0.3261  -11.9074  -46.7697 N.am      2 UNK        -0.5000 
     65 C           0.6882  -11.7265  -48.0493 C.2       1 UNK         0.5000 
     66 O           1.2380  -10.7064  -48.4647 O.2       1 UNK        -0.5000 
     67 C          -2.7015  -23.9340  -46.5456 C.2       11 UNK         0.5000 
     68 O          -2.9955  -24.9850  -47.1165 O.2       11 UNK        -0.5000 
     69 N          -2.8421  -23.7498  -45.2238 N.am      12 UNK        -0.5000 
     70 CA         -3.2844  -24.7889  -44.2914 C.3       12 UNK         0.1400 
     71 CB         -3.5432  -24.1741  -42.9087 C.3       12 UNK        -0.1800 
     72 C          -2.2876  -25.9608  -44.1939 C.2       12 UNK         0.5000 
     73 O          -2.7157  -27.1145  -44.1912 O.2       12 UNK        -0.5000 
     74 N          -0.9827  -25.6508  -44.1568 N.am      13 UNK        -0.5000 
     75 CA          0.1109  -26.6259  -44.1616 C.3       13 UNK         0.1400 
     76 CB          1.4368  -25.9216  -43.8368 C.3       13 UNK        -0.1800 
     77 C           0.2186  -27.3997  -45.4881 C.2       13 UNK         0.5000 
     78 O           0.4949  -28.5997  -45.4659 O.2       13 UNK        -0.5000 
     79 N          -0.0322  -26.7141  -46.6138 N.am      14 UNK        -0.5000 
     80 CA         -0.1424  -27.3174  -47.9456 C.3       14 UNK         0.1400 
     81 CB         -0.1633  -26.2084  -49.0095 C.3       14 UNK        -0.1800 
     82 C          -1.3800  -28.2264  -48.0920 C.2       14 UNK         0.5000 
     83 O          -1.3543  -29.1532  -48.9026 O.2       14 UNK        -0.5000 
     84 N          -2.4229  -27.9452  -47.2959 N.am      15 UNK        -0.5000 
     85 CA         -3.7032  -28.6503  -47.1990 C.3       15 UNK         0.1400 
     86 CB         -3.5025  -30.0724  -46.6355 C.3       15 UNK        -0.1800 
     87 C          -4.4931  -28.6220  -48.5219 C.2       15 UNK         0.5000 
     88 O          -5.0984  -29.6233  -48.9104 O.2       15 UNK        -0.5000 
     89 N          -4.4639  -27.4675  -49.1947 N.am      16 UNK        -0.5000 
     90 CA         -5.1041  -27.2229  -50.4798 C.3       16 UNK         0.1400 
     91 CB         -4.1785  -27.6995  -51.6139 C.3       16 UNK        -0.1800 
     92 C          -5.3996  -25.7255  -50.6114 C.2       16 UNK         0.5000 
     93 O          -4.7762  -24.9088  -49.9269 O.2       16 UNK        -0.5000 
     94 N          -6.3108  -25.3805  -51.5284 N.am      17 UNK        -0.5000 
     95 CA         -6.6963  -24.0098  -51.8732 C.3       17 UNK         0.1400 
     96 CB         -8.0864  -24.0365  -52.5344 C.3       17 UNK        -0.1800 
     97 C          -5.6361  -23.3076  -52.7502 C.2       17 UNK         0.5000 
     98 O          -5.9594  -22.7715  -53.8112 O.2       17 UNK        -0.5000 
     99 N          -4.3795  -23.3117  -52.2849 N.am      18 UNK        -0.5000 
    100 CA        -3.2102  -22.7288  -52.9502 C.3       18 UNK         0.1400 
    101 CB        -1.9477  -23.0945  -52.1554 C.3       18 UNK        -0.1800 
    102 C         -3.3131  -21.2060  -53.1660 C.2       18 UNK         0.5000 
    103 O         -2.6845  -20.6792  -54.0830 O.2       18 UNK        -0.5000 
    104 N         -4.1610  -20.5416  -52.3684 N.am      19 UNK        -0.5000 
    105 CA        -4.5405  -19.1355  -52.4958 C.3       19 UNK         0.1400 
    106 CB        -5.4860  -18.7763  -51.3392 C.3       19 UNK        -0.1800 
    107 C         -5.1949  -18.7796  -53.8464 C.2       19 UNK         0.5000 
    108 O         -5.1322  -17.6205  -54.2538 O.2       19 UNK        -0.5000 
    109 N         -5.7819  -19.7694  -54.5381 N.am      20 UNK        -0.5000 
    110 CA        -6.3565  -19.6147  -55.8768 C.3       20 UNK         0.1400 
    111 CB        -7.1309  -20.8881  -56.2472 C.3       20 UNK        -0.1800 
    112 C         -5.3072  -19.2881  -56.9591 C.2       20 UNK         0.5000 
    113 O         -5.6506  -18.6568  -57.9595 O.2       20 UNK        -0.5000 
    114 N         -4.0457  -19.6877  -56.7357 N.am      21 UNK        -0.5000 
    115 CA        -2.9156  -19.3892  -57.6186 C.3       21 UNK         0.1400 
    116 CB        -1.7582  -20.3487  -57.3008 C.3       21 UNK        -0.1800 
    117 C         -2.4446  -17.9231  -57.5274 C.2       21 UNK         0.5000 
    118 O         -1.7223  -17.4700  -58.4166 O.2       21 UNK        -0.5000 
    119 N         -2.8546  -17.2075  -56.4712 N.am      22 UNK        -0.5000 
    120 CA        -2.5381  -15.7887  -56.2411 C.3       22 UNK         0.1400 
    121 C         -3.3563  -14.7989  -57.1238 C.2       22 UNK         0.5000 
    122 N         -4.3715  -15.2370  -57.8602 N.am      22 UNK        -0.7600 
    123 O         -3.0581  -13.6077  -57.1474 O.2       22 UNK        -0.5000 
    124 C124       -2.6502  -15.4043  -54.7428 C.3       23 UNK        -0.0398 
    125 S125       -1.6579  -16.4728  -53.6455 S.3       23 UNK        -0.2404 
    126 C126       -2.1844  -15.8337  -52.0273 C.3       23 UNK        -0.0205 
    127 H127       -2.2846  -15.4910  -47.6535 H         1 UNK         0.0600 
    128 H128       -3.5291  -14.9420  -48.7802 H         1 UNK         0.0600 
    129 H129       -3.4456  -14.2616  -47.1509 H         1 UNK         0.0600 
    130 H130       -0.3121  -14.7347  -48.3704 H         1 UNK         0.3000 
    131 H131        0.0646  -12.4096  -49.9515 H         1 UNK         0.0600 
    132 H132        2.5827  -12.9276  -49.4568 H         1 UNK         0.0800 
    133 H133        1.6682  -14.0252  -50.4043 H         1 UNK         0.0800 
    134 H134        2.5044  -17.2977  -48.7780 H         1 UNK         0.0800 
    135 H135        2.5548  -16.3274  -50.2226 H         1 UNK         0.0800 
    136 H136        0.4008  -15.5472  -51.2947 H         1 UNK         0.1150 
    137 H137       -3.1549  -17.6732  -50.2512 H         1 UNK         0.1150 
    138 H138        0.3999  -18.2007  -47.9226 H         1 UNK         0.1150 
    139 H139       -1.6105  -19.3315  -47.2686 H         1 UNK         0.0800 
    140 H140       -3.1424  -18.7081  -47.8489 H         1 UNK         0.0800 
    141 H141       -3.9618  -22.3024  -48.3246 H         1 UNK         0.0800 
    142 H142       -3.5585  -21.2035  -47.0281 H         1 UNK         0.0800 
    143 H143       -1.6112  -23.2387  -48.2336 H         1 UNK         0.0600 
    144 H144       -1.2224  -21.2313  -46.1823 H         1 UNK         0.3000 
    145 H145        1.8639  -22.5442  -44.9926 H         1 UNK         0.0600 
    146 H146        2.5503  -20.2128  -45.6010 H         1 UNK         0.0600 
    147 H147        2.4901  -21.2620  -47.0102 H         1 UNK         0.0600 
    148 H148        1.1977  -20.1062  -46.7264 H         1 UNK         0.0600 
    149 H149        0.2596  -20.2182  -44.3864 H         1 UNK         0.3000 
    150 H150       -1.7857  -21.7565  -41.9236 H         1 UNK         0.0600 
    151 H151        0.2976  -21.6337  -40.5900 H         1 UNK         0.0600 
    152 H152       -0.6928  -20.2098  -40.3056 H         1 UNK         0.0600 
    153 H153        0.7262  -20.1051  -41.3472 H         1 UNK         0.0600 
    154 H154       -1.2571  -19.0194  -42.4547 H         1 UNK         0.3000 
    155 H155       -3.1531  -18.6132  -45.3992 H         1 UNK         0.0600 
    156 H156       -4.1526  -17.9395  -42.5835 H         1 UNK         0.0600 
    157 H157       -5.0491  -18.8584  -43.7873 H         1 UNK         0.0600 
    158 H158       -4.6711  -17.1694  -44.0841 H         1 UNK         0.0600 
    159 H159       -2.2671  -16.6534  -43.5896 H         1 UNK         0.3000 
    160 H160        1.2098  -16.6358  -44.2583 H         1 UNK         0.0600 
    161 H161       -0.9442  -14.6600  -45.1762 H         1 UNK         0.0600 
    162 H162        0.1254  -15.5331  -46.2643 H         1 UNK         0.0600 
    163 H163        0.7981  -14.3823  -45.1212 H         1 UNK         0.0600 
    164 H164        0.1256  -14.7180  -42.8017 H         1 UNK         0.3000 
    165 H165       -1.0414  -14.8706  -40.5056 H         1 UNK         0.0600 
    166 H166        0.4840  -17.0800  -39.0238 H         1 UNK         0.0600 
    167 H167       -0.3493  -15.7250  -38.2642 H         1 UNK         0.0600 
    168 H168       -1.2610  -16.9300  -39.1595 H         1 UNK         0.0600 
    169 H169        0.8178  -13.6718  -40.4009 H         1 UNK         0.3000 
    170 H170        2.8354  -12.9626  -40.4085 H         1 UNK         0.0600 
    171 H171        4.8995  -14.9329  -39.2862 H         1 UNK         0.0600 
    172 H172        5.0404  -13.1753  -39.3106 H         1 UNK         0.0600 
    173 H173        3.8071  -13.9449  -38.3243 H         1 UNK         0.0600 
    174 H174        5.0435  -14.2870  -41.6506 H         1 UNK         0.3000 
    175 H175        5.4964  -14.0165  -43.8048 H         1 UNK         0.0600 
    176 H176        3.1128  -15.3271  -45.2295 H         1 UNK         0.0600 
    177 H177        4.8014  -15.4595  -45.7091 H         1 UNK         0.0600 
    178 H178        4.2612  -16.1601  -44.1901 H         1 UNK         0.0600 
    179 H179        3.5238  -12.9800  -45.7333 H         1 UNK         0.3000 
    180 H180        4.4068   -9.5954  -45.2971 H         1 UNK         0.0600 
    181 H181        4.6881   -9.6749  -47.7656 H         1 UNK         0.0600 
    182 H182        4.9042  -11.4240  -47.7120 H         1 UNK         0.0600 
    183 H183        6.0982  -10.3619  -46.9740 H         1 UNK         0.0600 
    184 H184        2.5680  -10.9134  -47.0434 H         1 UNK         0.3000 
    185 H185       -0.0291  -11.4962  -44.7914 H         1 UNK         0.0600 
    186 H186       -1.4538   -9.9687  -46.1481 H         1 UNK         0.0600 
    187 H187       -0.4589   -9.0746  -45.0090 H         1 UNK         0.0600 
    188 H188       -0.0210   -9.1080  -46.7097 H         1 UNK         0.0600 
    189 H189       -0.0920  -12.7989  -46.5491 H         1 UNK         0.3000 
    190 H190       -2.6346  -22.8369  -44.8325 H         1 UNK         0.3000 
    191 H191       -4.2307  -25.1853  -44.6656 H         1 UNK         0.0600 
    192 H192       -4.0051  -24.9036  -42.2423 H         1 UNK         0.0600 
    193 H193       -4.2152  -23.3179  -42.9722 H         1 UNK         0.0600 
    194 H194       -2.6192  -23.8448  -42.4359 H         1 UNK         0.0600 
    195 H195       -0.7122  -24.6745  -44.0782 H         1 UNK         0.3000 
    196 H196       -0.0871  -27.3530  -43.3712 H         1 UNK         0.0600 
    197 H197        1.6711  -25.1469  -44.5673 H         1 UNK         0.0600 
    198 H198        1.4033  -25.4545  -42.8525 H         1 UNK         0.0600 
    199 H199        2.2657  -26.6305  -43.8312 H         1 UNK         0.0600 
    200 H200       -0.1647  -25.7100  -46.5555 H         1 UNK         0.3000 
    201 H201        0.7434  -27.9336  -48.1123 H         1 UNK         0.0600 
    202 H202       -0.1929  -26.6323  -50.0140 H         1 UNK         0.0600 
    203 H203       -1.0350  -25.5630  -48.9027 H         1 UNK         0.0600 
    204 H204        0.7272  -25.5827  -48.9464 H         1 UNK         0.0600 
    205 H205       -2.3454  -27.1206  -46.7142 H         1 UNK         0.3000 
    206 H206       -4.3010  -28.0926  -46.4769 H         1 UNK         0.0600 
    207 H207       -2.9524  -30.0463  -45.6947 H         1 UNK         0.0600 
    208 H208       -4.4610  -30.5531  -46.4372 H         1 UNK         0.0600 
    209 H209       -2.9532  -30.7104  -47.3284 H         1 UNK         0.0600 
    210 H210       -3.9956  -26.6616  -48.7935 H         1 UNK         0.3000 
    211 H211       -6.0524  -27.7627  -50.5250 H         1 UNK         0.0600 
    212 H212       -4.6284  -27.5247  -52.5919 H         1 UNK         0.0600 
    213 H213       -3.9768  -28.7682  -51.5376 H         1 UNK         0.0600 
    214 H214       -3.2206  -27.1780  -51.5936 H         1 UNK         0.0600 
    215 H215       -6.7461  -26.1096  -52.0754 H         1 UNK         0.3000 
    216 H216       -6.7809  -23.4296  -50.9518 H         1 UNK         0.0600 
    217 H217       -8.0764  -24.5964  -53.4704 H         1 UNK         0.0600 
    218 H218       -8.4338  -23.0270  -52.7586 H         1 UNK         0.0600 
    219 H219       -8.8270  -24.4931  -51.8776 H         1 UNK         0.0600 
    220 H220       -4.2181  -23.7741  -51.3949 H         1 UNK         0.3000 
    221 H221       -3.1331  -23.1856  -53.9388 H         1 UNK         0.0600 
    222 H222       -1.8065  -24.1748  -52.1170 H         1 UNK         0.0600 
    223 H223       -1.9970  -22.7297  -51.1299 H         1 UNK         0.0600 
    224 H224       -1.0561  -22.6661  -52.6151 H         1 UNK         0.0600 
    225 H225       -4.6204  -21.0654  -51.6391 H         1 UNK         0.3000 
    226 H226       -3.6290  -18.5432  -52.4077 H         1 UNK         0.0600 
    227 H227       -6.4332  -19.3119  -51.4155 H         1 UNK         0.0600 
    228 H228       -5.0460  -19.0185  -50.3718 H         1 UNK         0.0600 
    229 H229       -5.7110  -17.7090  -51.3378 H         1 UNK         0.0600 
    230 H230       -5.7885  -20.7075  -54.1521 H         1 UNK         0.3000 
    231 H231       -7.0639  -18.7834  -55.8430 H         1 UNK         0.0600 
    232 H232       -6.4706  -21.7537  -56.3153 H         1 UNK         0.0600 
    233 H233       -7.6265  -20.7771  -57.2125 H         1 UNK         0.0600 
    234 H234       -7.9015  -21.1120  -55.5092 H         1 UNK         0.0600 
    235 H235       -3.8242  -20.1636  -55.8688 H         1 UNK         0.3000 
    236 H236       -3.2290  -19.5695  -58.6490 H         1 UNK         0.0600 
    237 H237       -2.0794  -21.3894  -57.3489 H         1 UNK         0.0600 
    238 H238       -0.9442  -20.2261  -58.0164 H         1 UNK         0.0600 
    239 H239       -1.3467  -20.1676  -56.3075 H         1 UNK         0.0600 
    240 H240       -3.4583  -17.6406  -55.7848 H         1 UNK         0.3000 
    241 H241       -1.4949  -15.6414  -56.5277 H         1 UNK         0.0600 
    242 H242       -4.8884  -14.5856  -58.4300 H         1 UNK         0.3800 
    243 H243       -4.6290  -16.2126  -57.8542 H         1 UNK         0.3800 
    244 H244       -3.6915  -15.4389  -54.4194 H         1 UNK         0.0800 
    245 H245       -2.3191  -14.3752  -54.5917 H         1 UNK         0.0800 
    246 H246       -3.2636  -15.9586  -51.9242 H         1 UNK         0.0800 
    247 H247       -1.9903  -14.7610  -51.9784 H         1 UNK         0.0800 
@<TRIPOS>BOND
     1    1    2 1    
     2    1  127 1    
     3    1  128 1    
     4    1  129 1    
     5    2    3 2    
     6    2    4 am   BACKBONE|DICT|INTERRES
     7    4    5 1    
     8    4  130 1    
     9    5    6 1    
    10    5   65 1    
    11    5  131 1    
    12    6    7 1    
    13    6  132 1    
    14    6  133 1    
    15    7    8 1    
    16    8    9 1    
    17    8  134 1    
    18    8  135 1    
    19    9   10 ar   
    20    9   14 ar   
    21   10   11 ar   
    22   10  136 1    
    23   11   12 ar   
    24   11  126 1    
    25   12   13 ar   
    26   12  137 1    
    27   13   14 ar   
    28   13   15 1    
    29   14  138 1    
    30   15   16 1    
    31   15  139 1    
    32   15  140 1    
    33   16   17 1    
    34   17   18 1    
    35   17  141 1    
    36   17  142 1    
    37   18   19 1    
    38   18   67 1    
    39   18  143 1    
    40   19   20 am   BACKBONE|DICT|INTERRES
    41   19  144 1    
    42   20   21 2    
    43   20   22 1    
    44   22   23 1    
    45   22   24 1    
    46   22  145 1    
    47   23  146 1    
    48   23  147 1    
    49   23  148 1    
    50   24   25 am   BACKBONE|DICT|INTERRES
    51   24  149 1    
    52   25   26 2    
    53   25   27 1    
    54   27   28 1    
    55   27   29 1    
    56   27  150 1    
    57   28  151 1    
    58   28  152 1    
    59   28  153 1    
    60   29   30 am   BACKBONE|DICT|INTERRES
    61   29  154 1    
    62   30   31 2    
    63   30   32 1    
    64   32   33 1    
    65   32   34 1    
    66   32  155 1    
    67   33  156 1    
    68   33  157 1    
    69   33  158 1    
    70   34   35 am   BACKBONE|DICT|INTERRES
    71   34  159 1    
    72   35   36 2    
    73   35   37 1    
    74   37   38 1    
    75   37   39 1    
    76   37  160 1    
    77   38  161 1    
    78   38  162 1    
    79   38  163 1    
    80   39   40 am   BACKBONE|DICT|INTERRES
    81   39  164 1    
    82   40   41 2    
    83   40   42 1    
    84   42   43 1    
    85   42   44 1    
    86   42  165 1    
    87   43  166 1    
    88   43  167 1    
    89   43  168 1    
    90   44   45 am   BACKBONE|DICT|INTERRES
    91   44  169 1    
    92   45   46 2    
    93   45   47 1    
    94   47   48 1    
    95   47   49 1    
    96   47  170 1    
    97   48  171 1    
    98   48  172 1    
    99   48  173 1    
   100   49   50 am   BACKBONE|DICT|INTERRES
   101   49  174 1    
   102   50   51 2    
   103   50   52 1    
   104   52   53 1    
   105   52   54 1    
   106   52  175 1    
   107   53  176 1    
   108   53  177 1    
   109   53  178 1    
   110   54   55 am   BACKBONE|DICT|INTERRES
   111   54  179 1    
   112   55   56 2    
   113   55   57 1    
   114   57   58 1    
   115   57   59 1    
   116   57  180 1    
   117   58  181 1    
   118   58  182 1    
   119   58  183 1    
   120   59   60 am   BACKBONE|DICT|INTERRES
   121   59  184 1    
   122   60   61 2    
   123   60   62 1    
   124   62   63 1    
   125   62   64 1    
   126   62  185 1    
   127   63  186 1    
   128   63  187 1    
   129   63  188 1    
   130   64   65 am   BACKBONE|DICT|INTERRES
   131   64  189 1    
   132   65   66 2    
   133   67   68 2    
   134   67   69 am   BACKBONE|DICT|INTERRES
   135   69   70 1    
   136   69  190 1    
   137   70   71 1    
   138   70   72 1    
   139   70  191 1    
   140   71  192 1    
   141   71  193 1    
   142   71  194 1    
   143   72   73 2    
   144   72   74 am   BACKBONE|DICT|INTERRES
   145   74   75 1    
   146   74  195 1    
   147   75   76 1    
   148   75   77 1    
   149   75  196 1    
   150   76  197 1    
   151   76  198 1    
   152   76  199 1    
   153   77   78 2    
   154   77   79 am   BACKBONE|DICT|INTERRES
   155   79   80 1    
   156   79  200 1    
   157   80   81 1    
   158   80   82 1    
   159   80  201 1    
   160   81  202 1    
   161   81  203 1    
   162   81  204 1    
   163   82   83 2    
   164   82   84 am   BACKBONE|DICT|INTERRES
   165   84   85 1    
   166   84  205 1    
   167   85   86 1    
   168   85   87 1    
   169   85  206 1    
   170   86  207 1    
   171   86  208 1    
   172   86  209 1    
   173   87   88 2    
   174   87   89 am   BACKBONE|DICT|INTERRES
   175   89   90 1    
   176   89  210 1    
   177   90   91 1    
   178   90   92 1    
   179   90  211 1    
   180   91  212 1    
   181   91  213 1    
   182   91  214 1    
   183   92   93 2    
   184   92   94 am   BACKBONE|DICT|INTERRES
   185   94   95 1    
   186   94  215 1    
   187   95   96 1    
   188   95   97 1    
   189   95  216 1    
   190   96  217 1    
   191   96  218 1    
   192   96  219 1    
   193   97   98 2    
   194   97   99 am   BACKBONE|DICT|INTERRES
   195   99  100 1    
   196   99  220 1    
   197  100  101 1    
   198  100  102 1    
   199  100  221 1    
   200  101  222 1    
   201  101  223 1    
   202  101  224 1    
   203  102  103 2    
   204  102  104 am   BACKBONE|DICT|INTERRES
   205  104  105 1    
   206  104  225 1    
   207  105  106 1    
   208  105  107 1    
   209  105  226 1    
   210  106  227 1    
   211  106  228 1    
   212  106  229 1    
   213  107  108 2    
   214  107  109 am   BACKBONE|DICT|INTERRES
   215  109  110 1    
   216  109  230 1    
   217  110  111 1    
   218  110  112 1    
   219  110  231 1    
   220  111  232 1    
   221  111  233 1    
   222  111  234 1    
   223  112  113 2    
   224  112  114 am   BACKBONE|DICT|INTERRES
   225  114  115 1    
   226  114  235 1    
   227  115  116 1    
   228  115  117 1    
   229  115  236 1    
   230  116  237 1    
   231  116  238 1    
   232  116  239 1    
   233  117  118 2    
   234  117  119 am   BACKBONE|DICT|INTERRES
   235  119  120 1    
   236  119  240 1    
   237  120  121 1    
   238  120  124 1    
   239  120  241 1    
   240  121  122 am   BACKBONE|DICT|INTERRES
   241  121  123 2    
   242  122  242 1    
   243  122  243 1    
   244  124  125 1    
   245  124  244 1    
   246  124  245 1    
   247  125  126 1    
   248  126  246 1    
   249  126  247 1    
@<TRIPOS>SUBSTRUCTURE
     1 UNK         1 GROUP             0       ****    0 ROOT    
