@<TRIPOS>MOLECULE
3R540
247   249    1
SMALL
USER_CHARGES


@<TRIPOS>ATOM
      1 CA         -6.5118  -15.7226  -48.6450 C.3       0 UNK        -0.1800 
      2 C          -5.1685  -15.0837  -48.3317 C.2       0 UNK         0.5000 
      3 O          -5.1183  -13.9723  -47.8058 O.2       0 UNK        -0.5000 
      4 N          -4.0784  -15.7958  -48.6365 N.am      1 UNK        -0.5000 
      5 CA         -2.6875  -15.3486  -48.4680 C.3       1 UNK         0.1400 
      6 C6         -1.7256  -16.1366  -49.3905 C.3       23 UNK        -0.0398 
      7 S7         -2.0749  -15.8124  -51.1510 S.3       23 UNK        -0.2404 
      8 C8         -0.4238  -15.4282  -51.8115 C.3       23 UNK        -0.0205 
      9 C9          0.3414  -16.6793  -52.2228 C.ar      23 UNK        -0.0193 
     10 C10         0.4675  -17.0093  -53.5761 C.ar      23 UNK        -0.1150 
     11 C11         1.2314  -18.1106  -53.9738 C.ar      23 UNK        -0.0193 
     12 C12         1.8501  -18.9031  -53.0026 C.ar      23 UNK        -0.1150 
     13 C13         1.7195  -18.5943  -51.6456 C.ar      23 UNK        -0.0193 
     14 C14         0.9681  -17.4795  -51.2620 C.ar      23 UNK        -0.1150 
     15 C15         2.4207  -19.4433  -50.5973 C.3       23 UNK        -0.0205 
     16 S16         1.3675  -20.8195  -50.0459 S.3       23 UNK        -0.2404 
     17 C17         1.4392  -20.6045  -48.2347 C.3       23 UNK        -0.0398 
     18 CA          0.6630  -21.6933  -47.4541 C.3       11 UNK         0.1400 
     19 N           0.9464  -21.6423  -46.0178 N.am      11 UNK        -0.5000 
     20 C           0.5150  -22.5350  -45.1139 C.2       10 UNK         0.5000 
     21 O          -0.1208  -23.5493  -45.3998 O.2       10 UNK        -0.5000 
     22 CA          0.7850  -22.2092  -43.6335 C.3       10 UNK         0.1400 
     23 CB          2.2282  -22.5621  -43.2484 C.3       10 UNK        -0.1800 
     24 N           0.5044  -20.8089  -43.3075 N.am      10 UNK        -0.5000 
     25 C          -0.7089  -20.2467  -43.4055 C.2       9 UNK         0.5000 
     26 O          -1.7186  -20.8607  -43.7439 O.2       9 UNK        -0.5000 
     27 CA         -0.8206  -18.7421  -43.1154 C.3       9 UNK         0.1400 
     28 CB         -1.0042  -18.4929  -41.6125 C.3       9 UNK        -0.1800 
     29 N           0.3163  -17.9705  -43.6204 N.am      9 UNK        -0.5000 
     30 C           0.6349  -17.8494  -44.9176 C.2       8 UNK         0.5000 
     31 O          -0.0299  -18.3393  -45.8329 O.2       8 UNK        -0.5000 
     32 CA          1.9537  -17.1152  -45.2327 C.3       8 UNK         0.1400 
     33 CB          1.8851  -15.6194  -44.8847 C.3       8 UNK        -0.1800 
     34 N           3.0930  -17.6998  -44.5273 N.am      8 UNK        -0.5000 
     35 C           3.5413  -18.9529  -44.6792 C.2       7 UNK         0.5000 
     36 O           3.0675  -19.7590  -45.4784 O.2       7 UNK        -0.5000 
     37 CA          4.6938  -19.3906  -43.7541 C.3       7 UNK         0.1400 
     38 CB          6.0493  -19.0924  -44.4116 C.3       7 UNK        -0.1800 
     39 N           4.6599  -18.7784  -42.4215 N.am      7 UNK        -0.5000 
     40 C           3.6479  -18.8688  -41.5467 C.2       6 UNK         0.5000 
     41 O           2.5929  -19.4592  -41.7894 O.2       6 UNK        -0.5000 
     42 CA          3.8213  -18.1705  -40.1869 C.3       6 UNK         0.1400 
     43 CB          5.0013  -17.1771  -40.1226 C.3       6 UNK        -0.1800 
     44 N           2.5793  -17.4766  -39.8771 N.am      6 UNK        -0.5000 
     45 C           2.0704  -17.2534  -38.6648 C.2       5 UNK         0.5000 
     46 O           2.6207  -17.6012  -37.6181 O.2       5 UNK        -0.5000 
     47 CA          0.7297  -16.4863  -38.6337 C.3       5 UNK         0.1400 
     48 CB          0.1956  -16.2799  -37.2048 C.3       5 UNK        -0.1800 
     49 N           0.8233  -15.1801  -39.2928 N.am      5 UNK        -0.5000 
     50 C           0.8549  -14.9644  -40.6133 C.2       4 UNK         0.5000 
     51 O           0.8238  -15.8621  -41.4611 O.2       4 UNK        -0.5000 
     52 CA          0.9926  -13.5069  -41.0620 C.3       4 UNK         0.1400 
     53 CB          2.4745  -13.1282  -41.2277 C.3       4 UNK        -0.1800 
     54 N           0.2945  -13.3429  -42.3307 N.am      4 UNK        -0.5000 
     55 C          -0.2367  -12.2013  -42.7818 C.2       3 UNK         0.5000 
     56 O          -0.1735  -11.1328  -42.1720 O.2       3 UNK        -0.5000 
     57 CA         -0.9559  -12.2477  -44.1440 C.3       3 UNK         0.1400 
     58 CB         -0.0324  -11.7207  -45.2532 C.3       3 UNK        -0.1800 
     59 N          -1.4198  -13.5824  -44.5230 N.am      3 UNK        -0.5000 
     60 C          -2.4506  -14.2393  -43.9807 C.2       2 UNK         0.5000 
     61 O          -3.1361  -13.7850  -43.0634 O.2       2 UNK        -0.5000 
     62 CA         -2.7637  -15.6285  -44.5829 C.3       2 UNK         0.1400 
     63 CB         -3.9187  -16.3411  -43.8565 C.3       2 UNK        -0.1800 
     64 N          -3.0647  -15.5831  -46.0176 N.am      2 UNK        -0.5000 
     65 C          -2.1841  -15.3633  -47.0047 C.2       1 UNK         0.5000 
     66 O          -0.9889  -15.1636  -46.7908 O.2       1 UNK        -0.5000 
     67 C          -0.8525  -21.6236  -47.7231 C.2       11 UNK         0.5000 
     68 O          -1.3819  -22.4878  -48.4207 O.2       11 UNK        -0.5000 
     69 N          -1.5297  -20.6332  -47.1243 N.am      12 UNK        -0.5000 
     70 CA         -2.9748  -20.4439  -47.2459 C.3       12 UNK         0.1400 
     71 CB         -3.3785  -19.1315  -46.5646 C.3       12 UNK        -0.1800 
     72 C          -3.7995  -21.6278  -46.7050 C.2       12 UNK         0.5000 
     73 O          -4.8087  -21.9817  -47.3120 O.2       12 UNK        -0.5000 
     74 N          -3.3535  -22.2411  -45.6025 N.am      13 UNK        -0.5000 
     75 CA         -3.9572  -23.4448  -45.0344 C.3       13 UNK         0.1400 
     76 CB         -3.3832  -23.6994  -43.6321 C.3       13 UNK        -0.1800 
     77 C          -3.7695  -24.6782  -45.9363 C.2       13 UNK         0.5000 
     78 O          -4.7335  -25.4072  -46.1728 O.2       13 UNK        -0.5000 
     79 N          -2.5398  -24.8862  -46.4264 N.am      14 UNK        -0.5000 
     80 CA         -2.1640  -26.0306  -47.2566 C.3       14 UNK         0.1400 
     81 CB         -0.6323  -26.1214  -47.3371 C.3       14 UNK        -0.1800 
     82 C          -2.7742  -25.9882  -48.6682 C.2       14 UNK         0.5000 
     83 O          -3.2676  -27.0103  -49.1464 O.2       14 UNK        -0.5000 
     84 N          -2.7207  -24.8158  -49.3113 N.am      15 UNK        -0.5000 
     85 CA         -3.1300  -24.6135  -50.7019 C.3       15 UNK         0.1400 
     86 CB         -2.1609  -23.6188  -51.3570 C.3       15 UNK        -0.1800 
     87 C          -4.5885  -24.1423  -50.8522 C.2       15 UNK         0.5000 
     88 O          -5.0071  -23.8849  -51.9796 O.2       15 UNK        -0.5000 
     89 N          -5.3306  -24.0288  -49.7396 N.am      16 UNK        -0.5000 
     90 CA         -6.7335  -23.6049  -49.6475 C.3       16 UNK         0.1400 
     91 CB         -7.6653  -24.6314  -50.3251 C.3       16 UNK        -0.1800 
     92 C          -6.9323  -22.1685  -50.1734 C.2       16 UNK         0.5000 
     93 O          -7.4924  -21.9644  -51.2507 O.2       16 UNK        -0.5000 
     94 N          -6.4095  -21.2137  -49.3948 N.am      17 UNK        -0.5000 
     95 CA         -6.3098  -19.7632  -49.6039 C.3       17 UNK         0.1400 
     96 CB         -7.6121  -19.1391  -50.1442 C.3       17 UNK        -0.1800 
     97 C          -5.0833  -19.3430  -50.4338 C.2       17 UNK         0.5000 
     98 O          -4.6869  -18.1803  -50.3467 O.2       17 UNK        -0.5000 
     99 N          -4.4831  -20.2913  -51.1691 N.am      18 UNK        -0.5000 
    100 CA        -3.3503  -20.1283  -52.0815 C.3       18 UNK         0.1400 
    101 CB        -2.0694  -19.7009  -51.3307 C.3       18 UNK        -0.1800 
    102 C         -3.7320  -19.2288  -53.2723 C.2       18 UNK         0.5000 
    103 O         -4.5758  -19.6420  -54.0707 O.2       18 UNK        -0.5000 
    104 N         -3.1038  -18.0510  -53.3863 N.am      19 UNK        -0.5000 
    105 CA        -3.3102  -16.9726  -54.3632 C.3       19 UNK         0.1400 
    106 CB        -4.7277  -16.3813  -54.2420 C.3       19 UNK        -0.1800 
    107 C         -2.9723  -17.3458  -55.8185 C.2       19 UNK         0.5000 
    108 O         -2.1275  -16.6927  -56.4317 O.2       19 UNK        -0.5000 
    109 N         -3.6370  -18.3823  -56.3331 N.am      20 UNK        -0.5000 
    110 CA        -3.4285  -18.9725  -57.6526 C.3       20 UNK         0.1400 
    111 CB        -4.6485  -18.6678  -58.5362 C.3       20 UNK        -0.1800 
    112 C         -3.1862  -20.4900  -57.5642 C.2       20 UNK         0.5000 
    113 O         -2.5997  -21.0512  -58.4905 O.2       20 UNK        -0.5000 
    114 N         -3.6263  -21.1359  -56.4713 N.am      21 UNK        -0.5000 
    115 CA        -3.3906  -22.5581  -56.2135 C.3       21 UNK         0.1400 
    116 CB        -4.3775  -23.0550  -55.1477 C.3       21 UNK        -0.1800 
    117 C         -1.9366  -22.8232  -55.7855 C.2       21 UNK         0.5000 
    118 O         -1.3186  -23.7644  -56.2813 O.2       21 UNK        -0.5000 
    119 N         -1.4271  -21.9661  -54.8903 N.am      22 UNK        -0.5000 
    120 CA        -0.0237  -21.8094  -54.4525 C.3       22 UNK         0.1400 
    121 C          0.6906  -23.0448  -53.8205 C.2       22 UNK         0.5000 
    122 N          0.1361  -24.2469  -53.8665 N.am      22 UNK        -0.7600 
    123 O          1.7703  -22.9008  -53.2550 O.2       22 UNK        -0.5000 
    124 C124        0.8535  -21.1734  -55.5624 C.3       23 UNK        -0.0398 
    125 S125        0.2069  -19.5585  -56.1219 S.3       23 UNK        -0.2404 
    126 C126        1.4383  -18.3988  -55.4542 C.3       23 UNK        -0.0205 
    127 H127       -6.5284  -16.7608  -48.3140 H         1 UNK         0.0600 
    128 H128       -7.3203  -15.1938  -48.1400 H         1 UNK         0.0600 
    129 H129       -6.7005  -15.6951  -49.7182 H         1 UNK         0.0600 
    130 H130       -4.1963  -16.6777  -49.1287 H         1 UNK         0.3000 
    131 H131       -2.6416  -14.3006  -48.7721 H         1 UNK         0.0600 
    132 H132       -1.7974  -17.2070  -49.1949 H         1 UNK         0.0800 
    133 H133       -0.6890  -15.8632  -49.1919 H         1 UNK         0.0800 
    134 H134       -0.5493  -14.7707  -52.6731 H         1 UNK         0.0800 
    135 H135        0.1550  -14.8546  -51.0864 H         1 UNK         0.0800 
    136 H136       -0.0024  -16.3894  -54.3271 H         1 UNK         0.1150 
    137 H137        2.4482  -19.7527  -53.2999 H         1 UNK         0.1150 
    138 H138        0.8853  -17.2303  -50.2145 H         1 UNK         0.1150 
    139 H139        3.3487  -19.8497  -51.0024 H         1 UNK         0.0800 
    140 H140        2.7098  -18.8180  -49.7513 H         1 UNK         0.0800 
    141 H141        1.0792  -19.6068  -47.9774 H         1 UNK         0.0800 
    142 H142        2.4908  -20.6322  -47.9466 H         1 UNK         0.0800 
    143 H143        1.0105  -22.6671  -47.8058 H         1 UNK         0.0600 
    144 H144        1.5012  -20.8527  -45.6989 H         1 UNK         0.3000 
    145 H145        0.1159  -22.8259  -43.0299 H         1 UNK         0.0600 
    146 H146        2.4314  -22.3226  -42.2044 H         1 UNK         0.0600 
    147 H147        2.4142  -23.6284  -43.3814 H         1 UNK         0.0600 
    148 H148        2.9493  -22.0278  -43.8646 H         1 UNK         0.0600 
    149 H149        1.2784  -20.2480  -42.9620 H         1 UNK         0.3000 
    150 H150       -1.7188  -18.3902  -43.6236 H         1 UNK         0.0600 
    151 H151       -1.8082  -19.1089  -41.2075 H         1 UNK         0.0600 
    152 H152       -1.2692  -17.4543  -41.4169 H         1 UNK         0.0600 
    153 H153       -0.0972  -18.7265  -41.0540 H         1 UNK         0.0600 
    154 H154        0.8978  -17.5215  -42.9253 H         1 UNK         0.3000 
    155 H155        2.1323  -17.2086  -46.3060 H         1 UNK         0.0600 
    156 H156        1.0134  -15.1436  -45.3256 H         1 UNK         0.0600 
    157 H157        2.7610  -15.0915  -45.2619 H         1 UNK         0.0600 
    158 H158        1.8403  -15.4532  -43.8100 H         1 UNK         0.0600 
    159 H159        3.5471  -17.1169  -43.8406 H         1 UNK         0.3000 
    160 H160        4.6171  -20.4699  -43.6181 H         1 UNK         0.0600 
    161 H161        6.1155  -19.5551  -45.3974 H         1 UNK         0.0600 
    162 H162        6.8729  -19.4851  -43.8149 H         1 UNK         0.0600 
    163 H163        6.2078  -18.0210  -44.5405 H         1 UNK         0.0600 
    164 H164        5.4853  -18.2671  -42.1444 H         1 UNK         0.3000 
    165 H165        3.9856  -18.9604  -39.4513 H         1 UNK         0.0600 
    166 H166        5.0589  -16.7031  -39.1426 H         1 UNK         0.0600 
    167 H167        5.9560  -17.6786  -40.2850 H         1 UNK         0.0600 
    168 H168        4.9028  -16.3838  -40.8649 H         1 UNK         0.0600 
    169 H169        2.0398  -17.1557  -40.6751 H         1 UNK         0.3000 
    170 H170       -0.0005  -17.0942  -39.1706 H         1 UNK         0.0600 
    171 H171        0.0706  -17.2343  -36.6917 H         1 UNK         0.0600 
    172 H172        0.8721  -15.6694  -36.6054 H         1 UNK         0.0600 
    173 H173       -0.7783  -15.7902  -37.2151 H         1 UNK         0.0600 
    174 H174        0.9012  -14.3858  -38.6742 H         1 UNK         0.3000 
    175 H175        0.5321  -12.8659  -40.3072 H         1 UNK         0.0600 
    176 H176        3.0205  -13.2617  -40.2930 H         1 UNK         0.0600 
    177 H177        2.9630  -13.7430  -41.9848 H         1 UNK         0.0600 
    178 H178        2.5857  -12.0845  -41.5220 H         1 UNK         0.0600 
    179 H179        0.1654  -14.1965  -42.8564 H         1 UNK         0.3000 
    180 H180       -1.8251  -11.5899  -44.0795 H         1 UNK         0.0600 
    181 H181        0.8492  -12.3516  -45.3748 H         1 UNK         0.0600 
    182 H182        0.3139  -10.7110  -45.0285 H         1 UNK         0.0600 
    183 H183       -0.5503  -11.6801  -46.2117 H         1 UNK         0.0600 
    184 H184       -0.9587  -14.0223  -45.3155 H         1 UNK         0.3000 
    185 H185       -1.8654  -16.2308  -44.4492 H         1 UNK         0.0600 
    186 H186       -4.0824  -17.3421  -44.2531 H         1 UNK         0.0600 
    187 H187       -3.7042  -16.4484  -42.7923 H         1 UNK         0.0600 
    188 H188       -4.8542  -15.7883  -43.9508 H         1 UNK         0.0600 
    189 H189       -4.0364  -15.6745  -46.2743 H         1 UNK         0.3000 
    190 H190       -1.0225  -19.9562  -46.5624 H         1 UNK         0.3000 
    191 H191       -3.1984  -20.3531  -48.3102 H         1 UNK         0.0600 
    192 H192       -3.1459  -19.1499  -45.5002 H         1 UNK         0.0600 
    193 H193       -4.4476  -18.9431  -46.6684 H         1 UNK         0.0600 
    194 H194       -2.8526  -18.2874  -47.0079 H         1 UNK         0.0600 
    195 H195       -2.5595  -21.8470  -45.1040 H         1 UNK         0.3000 
    196 H196       -5.0300  -23.2682  -44.9308 H         1 UNK         0.0600 
    197 H197       -2.3023  -23.8407  -43.6576 H         1 UNK         0.0600 
    198 H198       -3.8221  -24.5923  -43.1854 H         1 UNK         0.0600 
    199 H199       -3.5939  -22.8641  -42.9641 H         1 UNK         0.0600 
    200 H200       -1.7910  -24.2490  -46.1690 H         1 UNK         0.3000 
    201 H201       -2.5278  -26.9359  -46.7660 H         1 UNK         0.0600 
    202 H202       -0.1934  -26.2518  -46.3478 H         1 UNK         0.0600 
    203 H203       -0.1991  -25.2225  -47.7782 H         1 UNK         0.0600 
    204 H204       -0.3206  -26.9709  -47.9460 H         1 UNK         0.0600 
    205 H205       -2.2836  -24.0161  -48.8543 H         1 UNK         0.3000 
    206 H206       -3.0456  -25.5562  -51.2465 H         1 UNK         0.0600 
    207 H207       -2.2366  -22.6355  -50.8986 H         1 UNK         0.0600 
    208 H208       -2.3671  -23.5073  -52.4218 H         1 UNK         0.0600 
    209 H209       -1.1274  -23.9509  -51.2586 H         1 UNK         0.0600 
    210 H210       -4.8751  -24.2248  -48.8586 H         1 UNK         0.3000 
    211 H211       -6.9835  -23.5931  -48.5852 H         1 UNK         0.0600 
    212 H212       -7.4873  -24.7041  -51.3983 H         1 UNK         0.0600 
    213 H213       -8.7110  -24.3542  -50.1877 H         1 UNK         0.0600 
    214 H214       -7.5330  -25.6247  -49.8964 H         1 UNK         0.0600 
    215 H215       -5.9137  -21.5385  -48.5627 H         1 UNK         0.3000 
    216 H216       -6.1482  -19.3489  -48.6078 H         1 UNK         0.0600 
    217 H217       -7.5607  -18.0510  -50.1214 H         1 UNK         0.0600 
    218 H218       -8.4734  -19.4367  -49.5462 H         1 UNK         0.0600 
    219 H219       -7.8026  -19.4212  -51.1796 H         1 UNK         0.0600 
    220 H220       -4.9333  -21.1955  -51.1976 H         1 UNK         0.3000 
    221 H221       -3.1624  -21.1140  -52.5055 H         1 UNK         0.0600 
    222 H222       -2.1707  -18.7249  -50.8644 H         1 UNK         0.0600 
    223 H223       -1.8179  -20.4066  -50.5401 H         1 UNK         0.0600 
    224 H224       -1.2122  -19.6557  -52.0032 H         1 UNK         0.0600 
    225 H225       -2.4340  -17.8218  -52.6637 H         1 UNK         0.3000 
    226 H226       -2.6110  -16.1843  -54.0819 H         1 UNK         0.0600 
    227 H227       -4.9160  -16.0263  -53.2284 H         1 UNK         0.0600 
    228 H228       -4.8536  -15.5314  -54.9136 H         1 UNK         0.0600 
    229 H229       -5.5005  -17.1097  -54.4885 H         1 UNK         0.0600 
    230 H230       -4.2843  -18.8553  -55.7095 H         1 UNK         0.3000 
    231 H231       -2.5428  -18.5392  -58.1220 H         1 UNK         0.0600 
    232 H232       -4.5246  -19.0901  -59.5343 H         1 UNK         0.0600 
    233 H233       -4.7897  -17.5932  -58.6533 H         1 UNK         0.0600 
    234 H234       -5.5644  -19.0825  -58.1136 H         1 UNK         0.0600 
    235 H235       -4.1118  -20.6233  -55.7450 H         1 UNK         0.3000 
    236 H236       -3.5779  -23.1179  -57.1325 H         1 UNK         0.0600 
    237 H237       -4.2807  -22.5002  -54.2147 H         1 UNK         0.0600 
    238 H238       -5.4082  -22.9534  -55.4875 H         1 UNK         0.0600 
    239 H239       -4.2131  -24.1090  -54.9200 H         1 UNK         0.0600 
    240 H240       -2.0410  -21.2304  -54.5831 H         1 UNK         0.3000 
    241 H241       -0.0728  -21.0908  -53.6339 H         1 UNK         0.0600 
    242 H242        0.6091  -25.0324  -53.4501 H         1 UNK         0.3800 
    243 H243       -0.6694  -24.3905  -54.4607 H         1 UNK         0.3800 
    244 H244        0.9020  -21.8373  -56.4268 H         1 UNK         0.0800 
    245 H245        1.8837  -21.0495  -55.2264 H         1 UNK         0.0800 
    246 H246        2.4457  -18.7779  -55.6318 H         1 UNK         0.0800 
    247 H247        1.3691  -17.4676  -56.0187 H         1 UNK         0.0800 
@<TRIPOS>BOND
     1    1    2 1    
     2    1  127 1    
     3    1  128 1    
     4    1  129 1    
     5    2    3 2    
     6    2    4 am   BACKBONE|DICT|INTERRES
     7    4    5 1    
     8    4  130 1    
     9    5    6 1    
    10    5   65 1    
    11    5  131 1    
    12    6    7 1    
    13    6  132 1    
    14    6  133 1    
    15    7    8 1    
    16    8    9 1    
    17    8  134 1    
    18    8  135 1    
    19    9   10 ar   
    20    9   14 ar   
    21   10   11 ar   
    22   10  136 1    
    23   11   12 ar   
    24   11  126 1    
    25   12   13 ar   
    26   12  137 1    
    27   13   14 ar   
    28   13   15 1    
    29   14  138 1    
    30   15   16 1    
    31   15  139 1    
    32   15  140 1    
    33   16   17 1    
    34   17   18 1    
    35   17  141 1    
    36   17  142 1    
    37   18   19 1    
    38   18   67 1    
    39   18  143 1    
    40   19   20 am   BACKBONE|DICT|INTERRES
    41   19  144 1    
    42   20   21 2    
    43   20   22 1    
    44   22   23 1    
    45   22   24 1    
    46   22  145 1    
    47   23  146 1    
    48   23  147 1    
    49   23  148 1    
    50   24   25 am   BACKBONE|DICT|INTERRES
    51   24  149 1    
    52   25   26 2    
    53   25   27 1    
    54   27   28 1    
    55   27   29 1    
    56   27  150 1    
    57   28  151 1    
    58   28  152 1    
    59   28  153 1    
    60   29   30 am   BACKBONE|DICT|INTERRES
    61   29  154 1    
    62   30   31 2    
    63   30   32 1    
    64   32   33 1    
    65   32   34 1    
    66   32  155 1    
    67   33  156 1    
    68   33  157 1    
    69   33  158 1    
    70   34   35 am   BACKBONE|DICT|INTERRES
    71   34  159 1    
    72   35   36 2    
    73   35   37 1    
    74   37   38 1    
    75   37   39 1    
    76   37  160 1    
    77   38  161 1    
    78   38  162 1    
    79   38  163 1    
    80   39   40 am   BACKBONE|DICT|INTERRES
    81   39  164 1    
    82   40   41 2    
    83   40   42 1    
    84   42   43 1    
    85   42   44 1    
    86   42  165 1    
    87   43  166 1    
    88   43  167 1    
    89   43  168 1    
    90   44   45 am   BACKBONE|DICT|INTERRES
    91   44  169 1    
    92   45   46 2    
    93   45   47 1    
    94   47   48 1    
    95   47   49 1    
    96   47  170 1    
    97   48  171 1    
    98   48  172 1    
    99   48  173 1    
   100   49   50 am   BACKBONE|DICT|INTERRES
   101   49  174 1    
   102   50   51 2    
   103   50   52 1    
   104   52   53 1    
   105   52   54 1    
   106   52  175 1    
   107   53  176 1    
   108   53  177 1    
   109   53  178 1    
   110   54   55 am   BACKBONE|DICT|INTERRES
   111   54  179 1    
   112   55   56 2    
   113   55   57 1    
   114   57   58 1    
   115   57   59 1    
   116   57  180 1    
   117   58  181 1    
   118   58  182 1    
   119   58  183 1    
   120   59   60 am   BACKBONE|DICT|INTERRES
   121   59  184 1    
   122   60   61 2    
   123   60   62 1    
   124   62   63 1    
   125   62   64 1    
   126   62  185 1    
   127   63  186 1    
   128   63  187 1    
   129   63  188 1    
   130   64   65 am   BACKBONE|DICT|INTERRES
   131   64  189 1    
   132   65   66 2    
   133   67   68 2    
   134   67   69 am   BACKBONE|DICT|INTERRES
   135   69   70 1    
   136   69  190 1    
   137   70   71 1    
   138   70   72 1    
   139   70  191 1    
   140   71  192 1    
   141   71  193 1    
   142   71  194 1    
   143   72   73 2    
   144   72   74 am   BACKBONE|DICT|INTERRES
   145   74   75 1    
   146   74  195 1    
   147   75   76 1    
   148   75   77 1    
   149   75  196 1    
   150   76  197 1    
   151   76  198 1    
   152   76  199 1    
   153   77   78 2    
   154   77   79 am   BACKBONE|DICT|INTERRES
   155   79   80 1    
   156   79  200 1    
   157   80   81 1    
   158   80   82 1    
   159   80  201 1    
   160   81  202 1    
   161   81  203 1    
   162   81  204 1    
   163   82   83 2    
   164   82   84 am   BACKBONE|DICT|INTERRES
   165   84   85 1    
   166   84  205 1    
   167   85   86 1    
   168   85   87 1    
   169   85  206 1    
   170   86  207 1    
   171   86  208 1    
   172   86  209 1    
   173   87   88 2    
   174   87   89 am   BACKBONE|DICT|INTERRES
   175   89   90 1    
   176   89  210 1    
   177   90   91 1    
   178   90   92 1    
   179   90  211 1    
   180   91  212 1    
   181   91  213 1    
   182   91  214 1    
   183   92   93 2    
   184   92   94 am   BACKBONE|DICT|INTERRES
   185   94   95 1    
   186   94  215 1    
   187   95   96 1    
   188   95   97 1    
   189   95  216 1    
   190   96  217 1    
   191   96  218 1    
   192   96  219 1    
   193   97   98 2    
   194   97   99 am   BACKBONE|DICT|INTERRES
   195   99  100 1    
   196   99  220 1    
   197  100  101 1    
   198  100  102 1    
   199  100  221 1    
   200  101  222 1    
   201  101  223 1    
   202  101  224 1    
   203  102  103 2    
   204  102  104 am   BACKBONE|DICT|INTERRES
   205  104  105 1    
   206  104  225 1    
   207  105  106 1    
   208  105  107 1    
   209  105  226 1    
   210  106  227 1    
   211  106  228 1    
   212  106  229 1    
   213  107  108 2    
   214  107  109 am   BACKBONE|DICT|INTERRES
   215  109  110 1    
   216  109  230 1    
   217  110  111 1    
   218  110  112 1    
   219  110  231 1    
   220  111  232 1    
   221  111  233 1    
   222  111  234 1    
   223  112  113 2    
   224  112  114 am   BACKBONE|DICT|INTERRES
   225  114  115 1    
   226  114  235 1    
   227  115  116 1    
   228  115  117 1    
   229  115  236 1    
   230  116  237 1    
   231  116  238 1    
   232  116  239 1    
   233  117  118 2    
   234  117  119 am   BACKBONE|DICT|INTERRES
   235  119  120 1    
   236  119  240 1    
   237  120  121 1    
   238  120  124 1    
   239  120  241 1    
   240  121  122 am   BACKBONE|DICT|INTERRES
   241  121  123 2    
   242  122  242 1    
   243  122  243 1    
   244  124  125 1    
   245  124  244 1    
   246  124  245 1    
   247  125  126 1    
   248  126  246 1    
   249  126  247 1    
@<TRIPOS>SUBSTRUCTURE
     1 UNK         1 GROUP             0       ****    0 ROOT    
