@<TRIPOS>MOLECULE
3R540
247   249    1
SMALL
USER_CHARGES


@<TRIPOS>ATOM
      1 CA         -2.2238  -17.3199  -48.2869 C.3       0 UNK        -0.1800 
      2 C          -1.9035  -15.8980  -48.7205 C.2       0 UNK         0.5000 
      3 O          -2.6506  -14.9786  -48.3892 O.2       0 UNK        -0.5000 
      4 N          -0.7873  -15.7046  -49.4382 N.am      1 UNK        -0.5000 
      5 CA         -0.3236  -14.4092  -49.9627 C.3       1 UNK         0.1400 
      6 C6          0.9248  -14.5643  -50.8655 C.3       23 UNK        -0.0398 
      7 S7          0.5376  -15.3584  -52.4604 S.3       23 UNK        -0.2404 
      8 C8          1.5568  -16.8725  -52.4102 C.3       23 UNK        -0.0205 
      9 C9          0.9440  -18.0157  -51.6068 C.ar      23 UNK        -0.0193 
     10 C10        -0.4254  -18.2909  -51.6780 C.ar      23 UNK        -0.1150 
     11 C11        -0.9726  -19.3814  -51.0015 C.ar      23 UNK        -0.0193 
     12 C12        -0.1376  -20.2175  -50.2614 C.ar      23 UNK        -0.1150 
     13 C13         1.2320  -19.9526  -50.1670 C.ar      23 UNK        -0.0193 
     14 C14         1.7659  -18.8487  -50.8396 C.ar      23 UNK        -0.1150 
     15 C15         2.1338  -20.8781  -49.3611 C.3       23 UNK        -0.0205 
     16 S16         2.4468  -20.2762  -47.6666 S.3       23 UNK        -0.2404 
     17 C17         0.7622  -20.0081  -47.0184 C.3       23 UNK        -0.0398 
     18 CA         -0.0380  -21.3122  -46.8034 C.3       11 UNK         0.1400 
     19 N           0.6010  -22.1972  -45.8291 N.am      11 UNK        -0.5000 
     20 C           0.2341  -23.4607  -45.5792 C.2       10 UNK         0.5000 
     21 O          -0.6785  -24.0329  -46.1742 O.2       10 UNK        -0.5000 
     22 CA          0.9640  -24.1805  -44.4296 C.3       10 UNK         0.1400 
     23 CB          2.1621  -24.9704  -44.9739 C.3       10 UNK        -0.1800 
     24 N           1.4260  -23.2687  -43.3796 N.am      10 UNK        -0.5000 
     25 C           0.6589  -22.4287  -42.6711 C.2       9 UNK         0.5000 
     26 O          -0.5670  -22.3726  -42.7790 O.2       9 UNK        -0.5000 
     27 CA          1.3861  -21.4142  -41.7742 C.3       9 UNK         0.1400 
     28 CB          1.7499  -22.0117  -40.4024 C.3       9 UNK        -0.1800 
     29 N           2.5319  -20.7888  -42.4498 N.am      9 UNK        -0.5000 
     30 C           3.7386  -21.3022  -42.7345 C.2       8 UNK         0.5000 
     31 O           4.0817  -22.4384  -42.4063 O.2       8 UNK        -0.5000 
     32 CA          4.7030  -20.4470  -43.5863 C.3       8 UNK         0.1400 
     33 CB          5.1992  -21.2413  -44.8071 C.3       8 UNK        -0.1800 
     34 N           4.1103  -19.1983  -44.0690 N.am      8 UNK        -0.5000 
     35 C           3.9955  -18.0622  -43.3695 C.2       7 UNK         0.5000 
     36 O           4.4001  -17.9274  -42.2143 O.2       7 UNK        -0.5000 
     37 CA          3.2847  -16.8819  -44.0672 C.3       7 UNK         0.1400 
     38 CB          3.1798  -17.0409  -45.6016 C.3       7 UNK        -0.1800 
     39 N           1.9622  -16.6167  -43.4890 N.am      7 UNK        -0.5000 
     40 C           0.9474  -17.4808  -43.3384 C.2       6 UNK         0.5000 
     41 O           1.0041  -18.6586  -43.6938 O.2       6 UNK        -0.5000 
     42 CA         -0.3662  -16.9646  -42.7130 C.3       6 UNK         0.1400 
     43 CB         -0.8172  -17.8562  -41.5389 C.3       6 UNK        -0.1800 
     44 N          -0.3928  -15.5478  -42.3233 N.am      6 UNK        -0.5000 
     45 C           0.3104  -14.9339  -41.3573 C.2       5 UNK         0.5000 
     46 O           1.2121  -15.4759  -40.7191 O.2       5 UNK        -0.5000 
     47 CA         -0.0481  -13.4654  -41.0439 C.3       5 UNK         0.1400 
     48 CB          1.0082  -12.5079  -41.6129 C.3       5 UNK        -0.1800 
     49 N          -1.3701  -13.0753  -41.5404 N.am      5 UNK        -0.5000 
     50 C          -2.5260  -13.4625  -40.9806 C.2       4 UNK         0.5000 
     51 O          -2.5887  -14.1174  -39.9394 O.2       4 UNK        -0.5000 
     52 CA         -3.8348  -13.0765  -41.7001 C.3       4 UNK         0.1400 
     53 CB         -4.4962  -11.8783  -41.0017 C.3       4 UNK        -0.1800 
     54 N          -3.6918  -12.7693  -43.1263 N.am      4 UNK        -0.5000 
     55 C          -3.2563  -13.6097  -44.0750 C.2       3 UNK         0.5000 
     56 O          -2.8551  -14.7516  -43.8414 O.2       3 UNK        -0.5000 
     57 CA         -3.2427  -13.0923  -45.5290 C.3       3 UNK         0.1400 
     58 CB         -3.7904  -11.6575  -45.7053 C.3       3 UNK        -0.1800 
     59 N          -1.9134  -13.2081  -46.1314 N.am      3 UNK        -0.5000 
     60 C          -0.7717  -12.6584  -45.6882 C.2       2 UNK         0.5000 
     61 O          -0.7053  -11.9555  -44.6783 O.2       2 UNK        -0.5000 
     62 CA          0.5200  -12.9459  -46.4836 C.3       2 UNK         0.1400 
     63 CB          1.5776  -13.6060  -45.5885 C.3       2 UNK        -0.1800 
     64 N           0.3020  -13.7991  -47.6552 N.am      2 UNK        -0.5000 
     65 C          -0.0566  -13.3517  -48.8664 C.2       1 UNK         0.5000 
     66 O          -0.1963  -12.1579  -49.1349 O.2       1 UNK        -0.5000 
     67 C          -1.5067  -20.9831  -46.4609 C.2       11 UNK         0.5000 
     68 O          -2.2760  -20.6980  -47.3775 O.2       11 UNK        -0.5000 
     69 N          -1.8715  -21.0420  -45.1735 N.am      12 UNK        -0.5000 
     70 CA         -3.2457  -20.8850  -44.7046 C.3       12 UNK         0.1400 
     71 CB         -3.2519  -20.0107  -43.4412 C.3       12 UNK        -0.1800 
     72 C          -3.8905  -22.2516  -44.4206 C.2       12 UNK         0.5000 
     73 O          -5.0517  -22.4561  -44.7748 O.2       12 UNK        -0.5000 
     74 N          -3.1388  -23.1539  -43.7724 N.am      13 UNK        -0.5000 
     75 CA         -3.6289  -24.4492  -43.2994 C.3       13 UNK         0.1400 
     76 CB         -2.6351  -25.0268  -42.2802 C.3       13 UNK        -0.1800 
     77 C          -3.9059  -25.4642  -44.4233 C.2       13 UNK         0.5000 
     78 O          -4.8889  -26.2011  -44.3323 O.2       13 UNK        -0.5000 
     79 N          -3.0434  -25.4931  -45.4471 N.am      14 UNK        -0.5000 
     80 CA         -3.1533  -26.3871  -46.6011 C.3       14 UNK         0.1400 
     81 CB         -1.8551  -27.1984  -46.7500 C.3       14 UNK        -0.1800 
     82 C          -3.4494  -25.5990  -47.8854 C.2       14 UNK         0.5000 
     83 O          -4.2793  -26.0420  -48.6798 O.2       14 UNK        -0.5000 
     84 N          -2.7731  -24.4511  -48.0595 N.am      15 UNK        -0.5000 
     85 CA         -2.8722  -23.5341  -49.2040 C.3       15 UNK         0.1400 
     86 CB         -4.2562  -22.8559  -49.2328 C.3       15 UNK        -0.1800 
     87 C          -2.4869  -24.2100  -50.5390 C.2       15 UNK         0.5000 
     88 O          -3.1415  -24.0126  -51.5637 O.2       15 UNK        -0.5000 
     89 N          -1.4242  -25.0241  -50.4823 N.am      16 UNK        -0.5000 
     90 CA         -0.9879  -25.9377  -51.5406 C.3       16 UNK         0.1400 
     91 CB         -0.0025  -26.9455  -50.9263 C.3       16 UNK        -0.1800 
     92 C          -0.3711  -25.2663  -52.7851 C.2       16 UNK         0.5000 
     93 O          -0.1662  -25.9519  -53.7877 O.2       16 UNK        -0.5000 
     94 N          -0.0696  -23.9615  -52.7122 N.am      17 UNK        -0.5000 
     95 CA          0.5337  -23.1870  -53.8020 C.3       17 UNK         0.1400 
     96 CB          0.9782  -21.8181  -53.2670 C.3       17 UNK        -0.1800 
     97 C          -0.3880  -23.0076  -55.0249 C.2       17 UNK         0.5000 
     98 O           0.1181  -22.8535  -56.1371 O.2       17 UNK        -0.5000 
     99 N          -1.7110  -23.0300  -54.7951 N.am      18 UNK        -0.5000 
    100 CA        -2.7868  -22.8849  -55.7852 C.3       18 UNK         0.1400 
    101 CB        -2.8233  -24.1045  -56.7295 C.3       18 UNK        -0.1800 
    102 C         -2.7625  -21.5365  -56.5422 C.2       18 UNK         0.5000 
    103 O         -3.1733  -21.4654  -57.7025 O.2       18 UNK        -0.5000 
    104 N         -2.2891  -20.4864  -55.8612 N.am      19 UNK        -0.5000 
    105 CA        -2.3141  -19.0982  -56.3140 C.3       19 UNK         0.1400 
    106 CB        -1.2855  -18.3092  -55.4869 C.3       19 UNK        -0.1800 
    107 C         -3.7190  -18.4878  -56.1491 C.2       19 UNK         0.5000 
    108 O         -4.5744  -19.0693  -55.4781 O.2       19 UNK        -0.5000 
    109 N         -3.9247  -17.2896  -56.7121 N.am      20 UNK        -0.5000 
    110 CA        -5.1760  -16.5266  -56.6070 C.3       20 UNK         0.1400 
    111 CB        -5.0650  -15.2549  -57.4614 C.3       20 UNK        -0.1800 
    112 C         -5.5688  -16.1713  -55.1568 C.2       20 UNK         0.5000 
    113 O         -6.7583  -16.1020  -54.8453 O.2       20 UNK        -0.5000 
    114 N         -4.5620  -15.9977  -54.2891 N.am      21 UNK        -0.5000 
    115 CA        -4.7216  -15.7591  -52.8541 C.3       21 UNK         0.1400 
    116 CB        -3.3959  -15.2235  -52.2914 C.3       21 UNK        -0.1800 
    117 C         -5.1811  -17.0021  -52.0623 C.2       21 UNK         0.5000 
    118 O         -5.6245  -16.8492  -50.9240 O.2       21 UNK        -0.5000 
    119 N         -5.0651  -18.2015  -52.6515 N.am      22 UNK        -0.5000 
    120 CA        -5.4821  -19.4741  -52.0372 C.3       22 UNK         0.1400 
    121 C         -7.0165  -19.7349  -52.1089 C.2       22 UNK         0.5000 
    122 N         -7.8002  -18.9377  -52.8265 N.am      22 UNK        -0.7600 
    123 O         -7.5083  -20.6757  -51.4923 O.2       22 UNK        -0.5000 
    124 C124       -4.6965  -20.6856  -52.6111 C.3       23 UNK        -0.0398 
    125 S125       -2.8680  -20.5824  -52.5820 S.3       23 UNK        -0.2404 
    126 C126       -2.4639  -19.6508  -51.0749 C.3       23 UNK        -0.0205 
    127 H127       -2.3038  -17.3752  -47.2012 H         1 UNK         0.0600 
    128 H128       -1.4550  -18.0212  -48.6043 H         1 UNK         0.0600 
    129 H129       -3.1740  -17.6384  -48.7156 H         1 UNK         0.0600 
    130 H130       -0.2268  -16.5027  -49.7028 H         1 UNK         0.3000 
    131 H131       -1.1344  -14.0072  -50.5739 H         1 UNK         0.0600 
    132 H132        1.3529  -13.5892  -51.1069 H         1 UNK         0.0800 
    133 H133        1.7097  -15.1161  -50.3456 H         1 UNK         0.0800 
    134 H134        2.5527  -16.6248  -52.0396 H         1 UNK         0.0800 
    135 H135        1.6922  -17.2232  -53.4340 H         1 UNK         0.0800 
    136 H136       -1.0708  -17.6639  -52.2730 H         1 UNK         0.1150 
    137 H137       -0.5620  -21.0732  -49.7612 H         1 UNK         0.1150 
    138 H138        2.8277  -18.6540  -50.7824 H         1 UNK         0.1150 
    139 H139        1.7074  -21.8810  -49.3174 H         1 UNK         0.0800 
    140 H140        3.0909  -20.9870  -49.8731 H         1 UNK         0.0800 
    141 H141        0.2414  -19.3255  -47.6888 H         1 UNK         0.0800 
    142 H142        0.8470  -19.4713  -46.0758 H         1 UNK         0.0800 
    143 H143       -0.0640  -21.8627  -47.7432 H         1 UNK         0.0600 
    144 H144        1.3610  -21.8024  -45.2962 H         1 UNK         0.3000 
    145 H145        0.2628  -24.8847  -43.9808 H         1 UNK         0.0600 
    146 H146        2.6436  -25.5488  -44.1852 H         1 UNK         0.0600 
    147 H147        1.8485  -25.6738  -45.7466 H         1 UNK         0.0600 
    148 H148        2.9130  -24.3116  -45.4125 H         1 UNK         0.0600 
    149 H149        2.4252  -23.2374  -43.2041 H         1 UNK         0.3000 
    150 H150        0.6827  -20.6017  -41.5913 H         1 UNK         0.0600 
    151 H151        0.8508  -22.3219  -39.8686 H         1 UNK         0.0600 
    152 H152        2.2631  -21.2805  -39.7779 H         1 UNK         0.0600 
    153 H153        2.3900  -22.8896  -40.4894 H         1 UNK         0.0600 
    154 H154        2.3178  -19.8785  -42.8458 H         1 UNK         0.3000 
    155 H155        5.5649  -20.2106  -42.9592 H         1 UNK         0.0600 
    156 H156        5.7273  -22.1458  -44.5024 H         1 UNK         0.0600 
    157 H157        5.8934  -20.6519  -45.4064 H         1 UNK         0.0600 
    158 H158        4.3739  -21.5452  -45.4523 H         1 UNK         0.0600 
    159 H159        3.7232  -19.2210  -45.0017 H         1 UNK         0.3000 
    160 H160        3.8947  -15.9992  -43.8695 H         1 UNK         0.0600 
    161 H161        4.1554  -17.2393  -46.0474 H         1 UNK         0.0600 
    162 H162        2.8007  -16.1350  -46.0688 H         1 UNK         0.0600 
    163 H163        2.5118  -17.8508  -45.8867 H         1 UNK         0.0600 
    164 H164        1.8376  -15.6978  -43.0907 H         1 UNK         0.3000 
    165 H165       -1.1168  -17.0604  -43.4988 H         1 UNK         0.0600 
    166 H166       -1.7711  -17.5197  -41.1327 H         1 UNK         0.0600 
    167 H167       -0.9514  -18.8888  -41.8596 H         1 UNK         0.0600 
    168 H168       -0.0881  -17.8605  -40.7282 H         1 UNK         0.0600 
    169 H169       -1.1177  -15.0093  -42.7871 H         1 UNK         0.3000 
    170 H170       -0.0423  -13.3585  -39.9571 H         1 UNK         0.0600 
    171 H171        2.0059  -12.7631  -41.2533 H         1 UNK         0.0600 
    172 H172        1.0319  -12.5394  -42.7002 H         1 UNK         0.0600 
    173 H173        0.8086  -11.4790  -41.3134 H         1 UNK         0.0600 
    174 H174       -1.3974  -12.5447  -42.4018 H         1 UNK         0.3000 
    175 H175       -4.5075  -13.9327  -41.6177 H         1 UNK         0.0600 
    176 H176       -3.8822  -10.9801  -41.0785 H         1 UNK         0.0600 
    177 H177       -5.4722  -11.6574  -41.4343 H         1 UNK         0.0600 
    178 H178       -4.6520  -12.0795  -39.9408 H         1 UNK         0.0600 
    179 H179       -3.9702  -11.8412  -43.4101 H         1 UNK         0.3000 
    180 H180       -3.8926  -13.7635  -46.0922 H         1 UNK         0.0600 
    181 H181       -3.1969  -10.9182  -45.1663 H         1 UNK         0.0600 
    182 H182       -4.8210  -11.5812  -45.3566 H         1 UNK         0.0600 
    183 H183       -3.7907  -11.3718  -46.7574 H         1 UNK         0.0600 
    184 H184       -1.8801  -13.7898  -46.9620 H         1 UNK         0.3000 
    185 H185        0.9167  -11.9822  -46.8095 H         1 UNK         0.0600 
    186 H186        1.8659  -12.9465  -44.7711 H         1 UNK         0.0600 
    187 H187        1.2071  -14.5343  -45.1549 H         1 UNK         0.0600 
    188 H188        2.4859  -13.8238  -46.1499 H         1 UNK         0.0600 
    189 H189        0.3834  -14.7954  -47.5150 H         1 UNK         0.3000 
    190 H190       -1.1865  -21.3096  -44.4775 H         1 UNK         0.3000 
    191 H191       -3.8521  -20.3798  -45.4596 H         1 UNK         0.0600 
    192 H192       -2.8391  -19.0232  -43.6468 H         1 UNK         0.0600 
    193 H193       -4.2677  -19.8674  -43.0707 H         1 UNK         0.0600 
    194 H194       -2.6690  -20.4588  -42.6357 H         1 UNK         0.0600 
    195 H195       -2.2032  -22.8911  -43.4737 H         1 UNK         0.3000 
    196 H196       -4.5727  -24.2754  -42.7779 H         1 UNK         0.0600 
    197 H197       -3.0007  -25.9686  -41.8689 H         1 UNK         0.0600 
    198 H198       -2.4852  -24.3433  -41.4442 H         1 UNK         0.0600 
    199 H199       -1.6626  -25.2218  -42.7303 H         1 UNK         0.0600 
    200 H200       -2.2681  -24.8391  -45.4611 H         1 UNK         0.3000 
    201 H201       -3.9707  -27.0974  -46.4611 H         1 UNK         0.0600 
    202 H202       -1.6621  -27.7954  -45.8587 H         1 UNK         0.0600 
    203 H203       -0.9877  -26.5597  -46.9171 H         1 UNK         0.0600 
    204 H204       -1.9211  -27.8863  -47.5939 H         1 UNK         0.0600 
    205 H205       -2.0736  -24.2088  -47.3622 H         1 UNK         0.3000 
    206 H206       -2.1284  -22.7562  -49.0387 H         1 UNK         0.0600 
    207 H207       -4.4979  -22.4169  -48.2645 H         1 UNK         0.0600 
    208 H208       -4.2779  -22.0495  -49.9625 H         1 UNK         0.0600 
    209 H209       -5.0497  -23.5568  -49.4928 H         1 UNK         0.0600 
    210 H210       -0.9492  -25.1171  -49.5965 H         1 UNK         0.3000 
    211 H211       -1.8656  -26.4898  -51.8834 H         1 UNK         0.0600 
    212 H212        0.3171  -27.6834  -51.6634 H         1 UNK         0.0600 
    213 H213       -0.4596  -27.4927  -50.1014 H         1 UNK         0.0600 
    214 H214        0.8930  -26.4512  -50.5474 H         1 UNK         0.0600 
    215 H215       -0.2738  -23.4688  -51.8564 H         1 UNK         0.3000 
    216 H216        1.4235  -23.7233  -54.1387 H         1 UNK         0.0600 
    217 H217        1.4949  -21.2454  -54.0381 H         1 UNK         0.0600 
    218 H218        1.6644  -21.9223  -52.4266 H         1 UNK         0.0600 
    219 H219        0.1274  -21.2225  -52.9386 H         1 UNK         0.0600 
    220 H220       -2.0153  -23.1511  -53.8376 H         1 UNK         0.3000 
    221 H221       -3.7168  -22.8859  -55.2149 H         1 UNK         0.0600 
    222 H222       -1.9508  -24.1369  -57.3825 H         1 UNK         0.0600 
    223 H223       -2.8554  -25.0373  -56.1664 H         1 UNK         0.0600 
    224 H224       -3.7081  -24.0809  -57.3667 H         1 UNK         0.0600 
    225 H225       -2.0370  -20.6324  -54.8937 H         1 UNK         0.3000 
    226 H226       -2.0343  -19.0588  -57.3686 H         1 UNK         0.0600 
    227 H227       -0.2931  -18.7548  -55.5594 H         1 UNK         0.0600 
    228 H228       -1.2019  -17.2779  -55.8313 H         1 UNK         0.0600 
    229 H229       -1.5616  -18.2822  -54.4332 H         1 UNK         0.0600 
    230 H230       -3.1805  -16.8617  -57.2441 H         1 UNK         0.3000 
    231 H231       -5.9761  -17.1457  -57.0181 H         1 UNK         0.0600 
    232 H232       -4.2580  -14.6072  -57.1165 H         1 UNK         0.0600 
    233 H233       -5.9892  -14.6766  -57.4231 H         1 UNK         0.0600 
    234 H234       -4.8787  -15.4970  -58.5079 H         1 UNK         0.0600 
    235 H235       -3.6167  -16.0746  -54.6333 H         1 UNK         0.3000 
    236 H236       -5.4833  -14.9885  -52.7187 H         1 UNK         0.0600 
    237 H237       -3.0871  -14.3110  -52.8016 H         1 UNK         0.0600 
    238 H238       -3.4906  -14.9841  -51.2317 H         1 UNK         0.0600 
    239 H239       -2.5925  -15.9522  -52.3921 H         1 UNK         0.0600 
    240 H240       -4.7344  -18.2671  -53.6075 H         1 UNK         0.3000 
    241 H241       -5.2567  -19.4216  -50.9709 H         1 UNK         0.0600 
    242 H242       -8.7917  -19.1155  -52.8601 H         1 UNK         0.3800 
    243 H243       -7.4117  -18.1609  -53.3401 H         1 UNK         0.3800 
    244 H244       -4.9751  -21.5980  -52.0827 H         1 UNK         0.0800 
    245 H245       -4.9911  -20.8596  -53.6465 H         1 UNK         0.0800 
    246 H246       -2.9851  -18.6956  -51.0584 H         1 UNK         0.0800 
    247 H247       -2.7964  -20.2023  -50.1949 H         1 UNK         0.0800 
@<TRIPOS>BOND
     1    1    2 1    
     2    1  127 1    
     3    1  128 1    
     4    1  129 1    
     5    2    3 2    
     6    2    4 am   BACKBONE|DICT|INTERRES
     7    4    5 1    
     8    4  130 1    
     9    5    6 1    
    10    5   65 1    
    11    5  131 1    
    12    6    7 1    
    13    6  132 1    
    14    6  133 1    
    15    7    8 1    
    16    8    9 1    
    17    8  134 1    
    18    8  135 1    
    19    9   10 ar   
    20    9   14 ar   
    21   10   11 ar   
    22   10  136 1    
    23   11   12 ar   
    24   11  126 1    
    25   12   13 ar   
    26   12  137 1    
    27   13   14 ar   
    28   13   15 1    
    29   14  138 1    
    30   15   16 1    
    31   15  139 1    
    32   15  140 1    
    33   16   17 1    
    34   17   18 1    
    35   17  141 1    
    36   17  142 1    
    37   18   19 1    
    38   18   67 1    
    39   18  143 1    
    40   19   20 am   BACKBONE|DICT|INTERRES
    41   19  144 1    
    42   20   21 2    
    43   20   22 1    
    44   22   23 1    
    45   22   24 1    
    46   22  145 1    
    47   23  146 1    
    48   23  147 1    
    49   23  148 1    
    50   24   25 am   BACKBONE|DICT|INTERRES
    51   24  149 1    
    52   25   26 2    
    53   25   27 1    
    54   27   28 1    
    55   27   29 1    
    56   27  150 1    
    57   28  151 1    
    58   28  152 1    
    59   28  153 1    
    60   29   30 am   BACKBONE|DICT|INTERRES
    61   29  154 1    
    62   30   31 2    
    63   30   32 1    
    64   32   33 1    
    65   32   34 1    
    66   32  155 1    
    67   33  156 1    
    68   33  157 1    
    69   33  158 1    
    70   34   35 am   BACKBONE|DICT|INTERRES
    71   34  159 1    
    72   35   36 2    
    73   35   37 1    
    74   37   38 1    
    75   37   39 1    
    76   37  160 1    
    77   38  161 1    
    78   38  162 1    
    79   38  163 1    
    80   39   40 am   BACKBONE|DICT|INTERRES
    81   39  164 1    
    82   40   41 2    
    83   40   42 1    
    84   42   43 1    
    85   42   44 1    
    86   42  165 1    
    87   43  166 1    
    88   43  167 1    
    89   43  168 1    
    90   44   45 am   BACKBONE|DICT|INTERRES
    91   44  169 1    
    92   45   46 2    
    93   45   47 1    
    94   47   48 1    
    95   47   49 1    
    96   47  170 1    
    97   48  171 1    
    98   48  172 1    
    99   48  173 1    
   100   49   50 am   BACKBONE|DICT|INTERRES
   101   49  174 1    
   102   50   51 2    
   103   50   52 1    
   104   52   53 1    
   105   52   54 1    
   106   52  175 1    
   107   53  176 1    
   108   53  177 1    
   109   53  178 1    
   110   54   55 am   BACKBONE|DICT|INTERRES
   111   54  179 1    
   112   55   56 2    
   113   55   57 1    
   114   57   58 1    
   115   57   59 1    
   116   57  180 1    
   117   58  181 1    
   118   58  182 1    
   119   58  183 1    
   120   59   60 am   BACKBONE|DICT|INTERRES
   121   59  184 1    
   122   60   61 2    
   123   60   62 1    
   124   62   63 1    
   125   62   64 1    
   126   62  185 1    
   127   63  186 1    
   128   63  187 1    
   129   63  188 1    
   130   64   65 am   BACKBONE|DICT|INTERRES
   131   64  189 1    
   132   65   66 2    
   133   67   68 2    
   134   67   69 am   BACKBONE|DICT|INTERRES
   135   69   70 1    
   136   69  190 1    
   137   70   71 1    
   138   70   72 1    
   139   70  191 1    
   140   71  192 1    
   141   71  193 1    
   142   71  194 1    
   143   72   73 2    
   144   72   74 am   BACKBONE|DICT|INTERRES
   145   74   75 1    
   146   74  195 1    
   147   75   76 1    
   148   75   77 1    
   149   75  196 1    
   150   76  197 1    
   151   76  198 1    
   152   76  199 1    
   153   77   78 2    
   154   77   79 am   BACKBONE|DICT|INTERRES
   155   79   80 1    
   156   79  200 1    
   157   80   81 1    
   158   80   82 1    
   159   80  201 1    
   160   81  202 1    
   161   81  203 1    
   162   81  204 1    
   163   82   83 2    
   164   82   84 am   BACKBONE|DICT|INTERRES
   165   84   85 1    
   166   84  205 1    
   167   85   86 1    
   168   85   87 1    
   169   85  206 1    
   170   86  207 1    
   171   86  208 1    
   172   86  209 1    
   173   87   88 2    
   174   87   89 am   BACKBONE|DICT|INTERRES
   175   89   90 1    
   176   89  210 1    
   177   90   91 1    
   178   90   92 1    
   179   90  211 1    
   180   91  212 1    
   181   91  213 1    
   182   91  214 1    
   183   92   93 2    
   184   92   94 am   BACKBONE|DICT|INTERRES
   185   94   95 1    
   186   94  215 1    
   187   95   96 1    
   188   95   97 1    
   189   95  216 1    
   190   96  217 1    
   191   96  218 1    
   192   96  219 1    
   193   97   98 2    
   194   97   99 am   BACKBONE|DICT|INTERRES
   195   99  100 1    
   196   99  220 1    
   197  100  101 1    
   198  100  102 1    
   199  100  221 1    
   200  101  222 1    
   201  101  223 1    
   202  101  224 1    
   203  102  103 2    
   204  102  104 am   BACKBONE|DICT|INTERRES
   205  104  105 1    
   206  104  225 1    
   207  105  106 1    
   208  105  107 1    
   209  105  226 1    
   210  106  227 1    
   211  106  228 1    
   212  106  229 1    
   213  107  108 2    
   214  107  109 am   BACKBONE|DICT|INTERRES
   215  109  110 1    
   216  109  230 1    
   217  110  111 1    
   218  110  112 1    
   219  110  231 1    
   220  111  232 1    
   221  111  233 1    
   222  111  234 1    
   223  112  113 2    
   224  112  114 am   BACKBONE|DICT|INTERRES
   225  114  115 1    
   226  114  235 1    
   227  115  116 1    
   228  115  117 1    
   229  115  236 1    
   230  116  237 1    
   231  116  238 1    
   232  116  239 1    
   233  117  118 2    
   234  117  119 am   BACKBONE|DICT|INTERRES
   235  119  120 1    
   236  119  240 1    
   237  120  121 1    
   238  120  124 1    
   239  120  241 1    
   240  121  122 am   BACKBONE|DICT|INTERRES
   241  121  123 2    
   242  122  242 1    
   243  122  243 1    
   244  124  125 1    
   245  124  244 1    
   246  124  245 1    
   247  125  126 1    
   248  126  246 1    
   249  126  247 1    
@<TRIPOS>SUBSTRUCTURE
     1 UNK         1 GROUP             0       ****    0 ROOT    
