@<TRIPOS>MOLECULE
3R540
247   249    1
SMALL
USER_CHARGES


@<TRIPOS>ATOM
      1 CA          2.9163  -11.9492  -43.5563 C.3       0 UNK        -0.1800 
      2 C           1.4193  -12.1013  -43.3292 C.2       0 UNK         0.5000 
      3 O           0.8061  -11.2383  -42.7005 O.2       0 UNK        -0.5000 
      4 N           0.8297  -13.1912  -43.8378 N.am      1 UNK        -0.5000 
      5 CA         -0.6167  -13.4301  -43.8384 C.3       1 UNK         0.1400 
      6 C6         -0.9687  -14.9225  -44.0895 C.3       23 UNK        -0.0398 
      7 S7         -0.3337  -15.6523  -45.6453 S.3       23 UNK        -0.2404 
      8 C8         -0.7234  -17.4063  -45.3378 C.3       23 UNK        -0.0205 
      9 C9         -0.6031  -18.2601  -46.5930 C.ar      23 UNK        -0.0193 
     10 C10        -1.7094  -18.4350  -47.4304 C.ar      23 UNK        -0.1150 
     11 C11        -1.6276  -19.2394  -48.5715 C.ar      23 UNK        -0.0193 
     12 C12        -0.4184  -19.8713  -48.8685 C.ar      23 UNK        -0.1150 
     13 C13         0.7015  -19.7000  -48.0507 C.ar      23 UNK        -0.0193 
     14 C14         0.5989  -18.9030  -46.9043 C.ar      23 UNK        -0.1150 
     15 C15         2.0313  -20.3319  -48.4449 C.3       23 UNK        -0.0205 
     16 S16         1.9767  -22.1488  -48.4969 S.3       23 UNK        -0.2404 
     17 C17         1.9217  -22.5376  -46.7175 C.3       23 UNK        -0.0398 
     18 CA          0.8275  -23.5536  -46.3200 C.3       11 UNK         0.1400 
     19 N           0.9845  -23.9773  -44.9282 N.am      11 UNK        -0.5000 
     20 C           0.3230  -24.9878  -44.3473 C.2       10 UNK         0.5000 
     21 O          -0.4639  -25.7265  -44.9383 O.2       10 UNK        -0.5000 
     22 CA          0.5437  -25.1594  -42.8336 C.3       10 UNK         0.1400 
     23 CB          1.8157  -25.9749  -42.5584 C.3       10 UNK        -0.1800 
     24 N           0.6289  -23.8721  -42.1392 N.am      10 UNK        -0.5000 
     25 C          -0.3949  -23.0146  -42.0195 C.2       9 UNK         0.5000 
     26 O          -1.5279  -23.2454  -42.4387 O.2       9 UNK        -0.5000 
     27 CA         -0.0947  -21.6573  -41.3601 C.3       9 UNK         0.1400 
     28 CB         -0.2613  -21.7491  -39.8362 C.3       9 UNK        -0.1800 
     29 N           1.2404  -21.1418  -41.6733 N.am      9 UNK        -0.5000 
     30 C           1.6408  -20.7563  -42.8921 C.2       8 UNK         0.5000 
     31 O           0.9404  -20.8471  -43.9019 O.2       8 UNK        -0.5000 
     32 CA          3.0704  -20.1896  -42.9982 C.3       8 UNK         0.1400 
     33 CB          3.9273  -21.0084  -43.9759 C.3       8 UNK        -0.1800 
     34 N           3.0946  -18.7857  -43.4078 N.am      8 UNK        -0.5000 
     35 C           2.5458  -17.7691  -42.7335 C.2       7 UNK         0.5000 
     36 O           1.9240  -17.9099  -41.6801 O.2       7 UNK        -0.5000 
     37 CA          2.7175  -16.3456  -43.2991 C.3       7 UNK         0.1400 
     38 CB          3.7922  -15.5799  -42.5028 C.3       7 UNK        -0.1800 
     39 N           2.9543  -16.2363  -44.7489 N.am      7 UNK        -0.5000 
     40 C           4.0464  -16.5664  -45.4557 C.2       6 UNK         0.5000 
     41 O           5.0006  -17.1856  -44.9870 O.2       6 UNK        -0.5000 
     42 CA          4.0857  -16.1300  -46.9350 C.3       6 UNK         0.1400 
     43 CB          3.9206  -17.3266  -47.8798 C.3       6 UNK        -0.1800 
     44 N           3.0634  -15.1348  -47.2657 N.am      6 UNK        -0.5000 
     45 C           3.2190  -13.8087  -47.1607 C.2       5 UNK         0.5000 
     46 O           4.2565  -13.2801  -46.7603 O.2       5 UNK        -0.5000 
     47 CA          2.0031  -12.9260  -47.5191 C.3       5 UNK         0.1400 
     48 CB          2.4022  -11.6388  -48.2695 C.3       5 UNK        -0.1800 
     49 N           0.9167  -13.6402  -48.2086 N.am      5 UNK        -0.5000 
     50 C           0.9394  -14.1595  -49.4459 C.2       4 UNK         0.5000 
     51 O           1.9033  -14.0681  -50.2061 O.2       4 UNK        -0.5000 
     52 CA         -0.2953  -14.9582  -49.9091 C.3       4 UNK         0.1400 
     53 CB          0.0652  -16.4434  -50.0753 C.3       4 UNK        -0.1800 
     54 N          -1.4523  -14.8636  -49.0143 N.am      4 UNK        -0.5000 
     55 C          -2.3425  -13.8617  -49.0210 C.2       3 UNK         0.5000 
     56 O          -2.2073  -12.8440  -49.7002 O.2       3 UNK        -0.5000 
     57 CA         -3.6181  -14.0470  -48.1693 C.3       3 UNK         0.1400 
     58 CB         -3.8960  -15.5097  -47.7765 C.3       3 UNK        -0.1800 
     59 N          -3.5426  -13.2684  -46.9421 N.am      3 UNK        -0.5000 
     60 C          -3.7522  -11.9532  -46.8136 C.2       2 UNK         0.5000 
     61 O          -4.1585  -11.2256  -47.7201 O.2       2 UNK        -0.5000 
     62 CA         -3.4653  -11.3504  -45.4202 C.3       2 UNK         0.1400 
     63 CB         -4.7793  -11.0618  -44.6772 C.3       2 UNK        -0.1800 
     64 N          -2.6147  -12.1939  -44.5678 N.am      2 UNK        -0.5000 
     65 C          -1.3336  -12.4874  -44.8302 C.2       1 UNK         0.5000 
     66 O          -0.7390  -12.0750  -45.8276 O.2       1 UNK        -0.5000 
     67 C          -0.5933  -23.0144  -46.5728 C.2       11 UNK         0.5000 
     68 O          -1.2131  -23.3999  -47.5640 O.2       11 UNK        -0.5000 
     69 N          -1.0951  -22.1870  -45.6443 N.am      12 UNK        -0.5000 
     70 CA         -2.4490  -21.6364  -45.6656 C.3       12 UNK         0.1400 
     71 CB         -2.6011  -20.6042  -44.5382 C.3       12 UNK        -0.1800 
     72 C          -3.5366  -22.7208  -45.5608 C.2       12 UNK         0.5000 
     73 O          -4.5094  -22.6821  -46.3131 O.2       12 UNK        -0.5000 
     74 N          -3.3405  -23.6823  -44.6474 N.am      13 UNK        -0.5000 
     75 CA         -4.2361  -24.8187  -44.4281 C.3       13 UNK         0.1400 
     76 CB         -3.8037  -25.5738  -43.1620 C.3       13 UNK        -0.1800 
     77 C          -4.3022  -25.7728  -45.6344 C.2       13 UNK         0.5000 
     78 O          -5.3895  -26.2302  -45.9889 O.2       13 UNK        -0.5000 
     79 N          -3.1437  -26.0443  -46.2490 N.am      14 UNK        -0.5000 
     80 CA         -3.0200  -26.8852  -47.4399 C.3       14 UNK         0.1400 
     81 CB         -1.5657  -27.3686  -47.5479 C.3       14 UNK        -0.1800 
     82 C          -3.4372  -26.1737  -48.7420 C.2       14 UNK         0.5000 
     83 O          -3.7221  -26.8555  -49.7272 O.2       14 UNK        -0.5000 
     84 N          -3.4203  -24.8313  -48.7350 N.am      15 UNK        -0.5000 
     85 CA         -3.5237  -23.9282  -49.8882 C.3       15 UNK         0.1400 
     86 CB         -4.9161  -24.0179  -50.5463 C.3       15 UNK        -0.1800 
     87 C          -2.3649  -24.1479  -50.8861 C.2       15 UNK         0.5000 
     88 O          -2.5624  -24.0871  -52.1013 O.2       15 UNK        -0.5000 
     89 N          -1.1689  -24.4242  -50.3456 N.am      16 UNK        -0.5000 
     90 CA         -0.0060  -24.9417  -51.0737 C.3       16 UNK         0.1400 
     91 CB          1.0083  -25.5164  -50.0732 C.3       16 UNK        -0.1800 
     92 C           0.6542  -23.9487  -52.0502 C.2       16 UNK         0.5000 
     93 O           1.4674  -24.3717  -52.8732 O.2       16 UNK        -0.5000 
     94 N           0.2707  -22.6658  -51.9859 N.am      17 UNK        -0.5000 
     95 CA          0.6087  -21.6567  -52.9935 C.3       17 UNK         0.1400 
     96 CB          0.2701  -20.2561  -52.4582 C.3       17 UNK        -0.1800 
     97 C          -0.0933  -21.8958  -54.3472 C.2       17 UNK         0.5000 
     98 O           0.4001  -21.4079  -55.3646 O.2       17 UNK        -0.5000 
     99 N          -1.2189  -22.6327  -54.3338 N.am      18 UNK        -0.5000 
    100 CA        -2.0626  -22.9879  -55.4812 C.3       18 UNK         0.1400 
    101 CB        -1.3279  -23.9808  -56.4059 C.3       18 UNK        -0.1800 
    102 C         -2.6050  -21.7491  -56.2256 C.2       18 UNK         0.5000 
    103 O         -2.6071  -21.7102  -57.4579 O.2       18 UNK        -0.5000 
    104 N         -3.0356  -20.7493  -55.4491 N.am      19 UNK        -0.5000 
    105 CA        -3.5352  -19.4626  -55.9170 C.3       19 UNK         0.1400 
    106 CB        -2.4493  -18.3981  -55.6844 C.3       19 UNK        -0.1800 
    107 C         -4.8150  -19.1032  -55.1524 C.2       19 UNK         0.5000 
    108 O         -5.0255  -19.5890  -54.0375 O.2       19 UNK        -0.5000 
    109 N         -5.6151  -18.2084  -55.7475 N.am      20 UNK        -0.5000 
    110 CA        -6.9086  -17.7221  -55.2481 C.3       20 UNK         0.1400 
    111 CB        -7.5769  -16.8917  -56.3564 C.3       20 UNK        -0.1800 
    112 C         -6.8501  -16.9232  -53.9270 C.2       20 UNK         0.5000 
    113 O         -7.9001  -16.5797  -53.3821 O.2       20 UNK        -0.5000 
    114 N         -5.6366  -16.6526  -53.4263 N.am      21 UNK        -0.5000 
    115 CA        -5.3620  -16.1141  -52.0945 C.3       21 UNK         0.1400 
    116 CB        -3.8489  -15.8826  -51.9645 C.3       21 UNK        -0.1800 
    117 C         -5.8652  -17.0297  -50.9587 C.2       21 UNK         0.5000 
    118 O         -6.2736  -16.5227  -49.9141 O.2       21 UNK        -0.5000 
    119 N         -5.8490  -18.3460  -51.1999 N.am      22 UNK        -0.5000 
    120 CA        -6.4513  -19.3755  -50.3455 C.3       22 UNK         0.1400 
    121 C         -7.6870  -20.0034  -51.0465 C.2       22 UNK         0.5000 
    122 N         -8.6373  -20.5226  -50.2808 N.am      22 UNK        -0.7600 
    123 O         -7.7885  -20.0545  -52.2703 O.2       22 UNK        -0.5000 
    124 C124       -5.4169  -20.4674  -49.9753 C.3       23 UNK        -0.0398 
    125 S125       -4.3180  -19.9523  -48.6157 S.3       23 UNK        -0.2404 
    126 C126       -2.8248  -19.4098  -49.5018 C.3       23 UNK        -0.0205 
    127 H127        3.3074  -12.7231  -44.2157 H         1 UNK         0.0600 
    128 H128        3.4488  -12.0053  -42.6070 H         1 UNK         0.0600 
    129 H129        3.1297  -10.9824  -44.0121 H         1 UNK         0.0600 
    130 H130        1.3773  -13.8481  -44.3677 H         1 UNK         0.3000 
    131 H131       -0.9847  -13.1799  -42.8408 H         1 UNK         0.0600 
    132 H132       -2.0508  -15.0627  -44.0649 H         1 UNK         0.0800 
    133 H133       -0.5892  -15.5168  -43.2576 H         1 UNK         0.0800 
    134 H134       -0.0660  -17.7957  -44.5588 H         1 UNK         0.0800 
    135 H135       -1.7387  -17.4833  -44.9458 H         1 UNK         0.0800 
    136 H136       -2.6492  -17.9680  -47.1824 H         1 UNK         0.1150 
    137 H137       -0.3417  -20.4986  -49.7422 H         1 UNK         0.1150 
    138 H138        1.4536  -18.7762  -46.2552 H         1 UNK         0.1150 
    139 H139        2.3160  -19.9610  -49.4303 H         1 UNK         0.0800 
    140 H140        2.8265  -20.0310  -47.7625 H         1 UNK         0.0800 
    141 H141        1.7943  -21.6141  -46.1558 H         1 UNK         0.0800 
    142 H142        2.9032  -22.9261  -46.4431 H         1 UNK         0.0800 
    143 H143        0.9536  -24.4437  -46.9397 H         1 UNK         0.0600 
    144 H144        1.5673  -23.3957  -44.3460 H         1 UNK         0.3000 
    145 H145       -0.3097  -25.7096  -42.4315 H         1 UNK         0.0600 
    146 H146        1.9408  -26.1615  -41.4917 H         1 UNK         0.0600 
    147 H147        1.7705  -26.9457  -43.0539 H         1 UNK         0.0600 
    148 H148        2.7101  -25.4642  -42.9174 H         1 UNK         0.0600 
    149 H149        1.5261  -23.6115  -41.7574 H         1 UNK         0.3000 
    150 H150       -0.8258  -20.9398  -41.7389 H         1 UNK         0.0600 
    151 H151        0.4639  -22.4313  -39.3909 H         1 UNK         0.0600 
    152 H152       -1.2566  -22.1103  -39.5736 H         1 UNK         0.0600 
    153 H153       -0.1374  -20.7729  -39.3668 H         1 UNK         0.0600 
    154 H154        1.8669  -21.0162  -40.8914 H         1 UNK         0.3000 
    155 H155        3.5393  -20.2534  -42.0142 H         1 UNK         0.0600 
    156 H156        3.6309  -20.8383  -45.0102 H         1 UNK         0.0600 
    157 H157        3.8496  -22.0778  -43.7755 H         1 UNK         0.0600 
    158 H158        4.9800  -20.7385  -43.8897 H         1 UNK         0.0600 
    159 H159        3.6452  -18.5550  -44.2252 H         1 UNK         0.3000 
    160 H160        1.7683  -15.8415  -43.1211 H         1 UNK         0.0600 
    161 H161        4.7644  -16.0706  -42.5569 H         1 UNK         0.0600 
    162 H162        3.5219  -15.5142  -41.4481 H         1 UNK         0.0600 
    163 H163        3.9137  -14.5627  -42.8692 H         1 UNK         0.0600 
    164 H164        2.1948  -15.8291  -45.2743 H         1 UNK         0.3000 
    165 H165        5.0768  -15.7059  -47.1099 H         1 UNK         0.0600 
    166 H166        4.1741  -17.0506  -48.9035 H         1 UNK         0.0600 
    167 H167        4.5700  -18.1561  -47.5967 H         1 UNK         0.0600 
    168 H168        2.8940  -17.6846  -47.8843 H         1 UNK         0.0600 
    169 H169        2.1839  -15.4820  -47.6183 H         1 UNK         0.3000 
    170 H170        1.5967  -12.6147  -46.5595 H         1 UNK         0.0600 
    171 H171        3.0730  -11.0270  -47.6654 H         1 UNK         0.0600 
    172 H172        2.9159  -11.8536  -49.2065 H         1 UNK         0.0600 
    173 H173        1.5271  -11.0295  -48.4958 H         1 UNK         0.0600 
    174 H174        0.0692  -13.7560  -47.6689 H         1 UNK         0.3000 
    175 H175       -0.5792  -14.5714  -50.8901 H         1 UNK         0.0600 
    176 H176        0.3771  -16.8870  -49.1299 H         1 UNK         0.0600 
    177 H177       -0.7809  -17.0165  -50.4546 H         1 UNK         0.0600 
    178 H178        0.8847  -16.5750  -50.7830 H         1 UNK         0.0600 
    179 H179       -1.6169  -15.6577  -48.4127 H         1 UNK         0.3000 
    180 H180       -4.4595  -13.6951  -48.7699 H         1 UNK         0.0600 
    181 H181       -3.2012  -15.8535  -47.0114 H         1 UNK         0.0600 
    182 H182       -3.8271  -16.1839  -48.6308 H         1 UNK         0.0600 
    183 H183       -4.9028  -15.6154  -47.3717 H         1 UNK         0.0600 
    184 H184       -3.2076  -13.7587  -46.1278 H         1 UNK         0.3000 
    185 H185       -2.9470  -10.4024  -45.5793 H         1 UNK         0.0600 
    186 H186       -5.4262  -10.4092  -45.2650 H         1 UNK         0.0600 
    187 H187       -5.3354  -11.9777  -44.4735 H         1 UNK         0.0600 
    188 H188       -4.5943  -10.5611  -43.7266 H         1 UNK         0.0600 
    189 H189       -3.0459  -12.5575  -43.7297 H         1 UNK         0.3000 
    190 H190       -0.4915  -21.8790  -44.8893 H         1 UNK         0.3000 
    191 H191       -2.5704  -21.1253  -46.6200 H         1 UNK         0.0600 
    192 H192       -1.7704  -19.9012  -44.5308 H         1 UNK         0.0600 
    193 H193       -3.5194  -20.0295  -44.6628 H         1 UNK         0.0600 
    194 H194       -2.6390  -21.0750  -43.5562 H         1 UNK         0.0600 
    195 H195       -2.5428  -23.6050  -44.0221 H         1 UNK         0.3000 
    196 H196       -5.2406  -24.4242  -44.2615 H         1 UNK         0.0600 
    197 H197       -4.4628  -26.4205  -42.9666 H         1 UNK         0.0600 
    198 H198       -3.8381  -24.9258  -42.2860 H         1 UNK         0.0600 
    199 H199       -2.7880  -25.9606  -43.2514 H         1 UNK         0.0600 
    200 H200       -2.2810  -25.6748  -45.8616 H         1 UNK         0.3000 
    201 H201       -3.6618  -27.7608  -47.3218 H         1 UNK         0.0600 
    202 H202       -1.4211  -27.9962  -48.4283 H         1 UNK         0.0600 
    203 H203       -1.2817  -27.9592  -46.6767 H         1 UNK         0.0600 
    204 H204       -0.8727  -26.5299  -47.6214 H         1 UNK         0.0600 
    205 H205       -3.1218  -24.3814  -47.8779 H         1 UNK         0.3000 
    206 H206       -3.4043  -22.9176  -49.4948 H         1 UNK         0.0600 
    207 H207       -5.7081  -23.8686  -49.8125 H         1 UNK         0.0600 
    208 H208       -5.0347  -23.2544  -51.3156 H         1 UNK         0.0600 
    209 H209       -5.0800  -24.9840  -51.0240 H         1 UNK         0.0600 
    210 H210       -1.0842  -24.3506  -49.3365 H         1 UNK         0.3000 
    211 H211       -0.3586  -25.7726  -51.6883 H         1 UNK         0.0600 
    212 H212        1.3264  -24.7723  -49.3469 H         1 UNK         0.0600 
    213 H213        1.9017  -25.8819  -50.5810 H         1 UNK         0.0600 
    214 H214        0.5853  -26.3584  -49.5265 H         1 UNK         0.0600 
    215 H215       -0.3907  -22.4062  -51.2704 H         1 UNK         0.3000 
    216 H216        1.6850  -21.6987  -53.1736 H         1 UNK         0.0600 
    217 H217        0.4555  -19.4921  -53.2145 H         1 UNK         0.0600 
    218 H218        0.8908  -20.0050  -51.5988 H         1 UNK         0.0600 
    219 H219       -0.7770  -20.1753  -52.1648 H         1 UNK         0.0600 
    220 H220       -1.5390  -23.0048  -53.4448 H         1 UNK         0.3000 
    221 H221       -2.9330  -23.5029  -55.0721 H         1 UNK         0.0600 
    222 H222       -0.4658  -23.5219  -56.8907 H         1 UNK         0.0600 
    223 H223       -0.9760  -24.8493  -55.8490 H         1 UNK         0.0600 
    224 H224       -1.9897  -24.3462  -57.1919 H         1 UNK         0.0600 
    225 H225       -3.0762  -20.8854  -54.4483 H         1 UNK         0.3000 
    226 H226       -3.7757  -19.5088  -56.9813 H         1 UNK         0.0600 
    227 H227       -1.5342  -18.6487  -56.2216 H         1 UNK         0.0600 
    228 H228       -2.7736  -17.4181  -56.0362 H         1 UNK         0.0600 
    229 H229       -2.1977  -18.3035  -54.6269 H         1 UNK         0.0600 
    230 H230       -5.3357  -17.8442  -56.6473 H         1 UNK         0.3000 
    231 H231       -7.5332  -18.5965  -55.0537 H         1 UNK         0.0600 
    232 H232       -6.9880  -16.0081  -56.6055 H         1 UNK         0.0600 
    233 H233       -8.5670  -16.5506  -56.0509 H         1 UNK         0.0600 
    234 H234       -7.7067  -17.4781  -57.2663 H         1 UNK         0.0600 
    235 H235       -4.8380  -16.9667  -53.9558 H         1 UNK         0.3000 
    236 H236       -5.8732  -15.1536  -52.0036 H         1 UNK         0.0600 
    237 H237       -3.4917  -15.1667  -52.7050 H         1 UNK         0.0600 
    238 H238       -3.6027  -15.4823  -50.9835 H         1 UNK         0.0600 
    239 H239       -3.2850  -16.8079  -52.0904 H         1 UNK         0.0600 
    240 H240       -5.5723  -18.6671  -52.1211 H         1 UNK         0.3000 
    241 H241       -6.8177  -18.9213  -49.4226 H         1 UNK         0.0600 
    242 H242       -8.5814  -20.4996  -49.2742 H         1 UNK         0.3800 
    243 H243       -9.4415  -20.9430  -50.7204 H         1 UNK         0.3800 
    244 H244       -5.9196  -21.3688  -49.6210 H         1 UNK         0.0800 
    245 H245       -4.8357  -20.7710  -50.8474 H         1 UNK         0.0800 
    246 H246       -2.5949  -20.1336  -50.2847 H         1 UNK         0.0800 
    247 H247       -3.0283  -18.4617  -50.0005 H         1 UNK         0.0800 
@<TRIPOS>BOND
     1    1    2 1    
     2    1  127 1    
     3    1  128 1    
     4    1  129 1    
     5    2    3 2    
     6    2    4 am   BACKBONE|DICT|INTERRES
     7    4    5 1    
     8    4  130 1    
     9    5    6 1    
    10    5   65 1    
    11    5  131 1    
    12    6    7 1    
    13    6  132 1    
    14    6  133 1    
    15    7    8 1    
    16    8    9 1    
    17    8  134 1    
    18    8  135 1    
    19    9   10 ar   
    20    9   14 ar   
    21   10   11 ar   
    22   10  136 1    
    23   11   12 ar   
    24   11  126 1    
    25   12   13 ar   
    26   12  137 1    
    27   13   14 ar   
    28   13   15 1    
    29   14  138 1    
    30   15   16 1    
    31   15  139 1    
    32   15  140 1    
    33   16   17 1    
    34   17   18 1    
    35   17  141 1    
    36   17  142 1    
    37   18   19 1    
    38   18   67 1    
    39   18  143 1    
    40   19   20 am   BACKBONE|DICT|INTERRES
    41   19  144 1    
    42   20   21 2    
    43   20   22 1    
    44   22   23 1    
    45   22   24 1    
    46   22  145 1    
    47   23  146 1    
    48   23  147 1    
    49   23  148 1    
    50   24   25 am   BACKBONE|DICT|INTERRES
    51   24  149 1    
    52   25   26 2    
    53   25   27 1    
    54   27   28 1    
    55   27   29 1    
    56   27  150 1    
    57   28  151 1    
    58   28  152 1    
    59   28  153 1    
    60   29   30 am   BACKBONE|DICT|INTERRES
    61   29  154 1    
    62   30   31 2    
    63   30   32 1    
    64   32   33 1    
    65   32   34 1    
    66   32  155 1    
    67   33  156 1    
    68   33  157 1    
    69   33  158 1    
    70   34   35 am   BACKBONE|DICT|INTERRES
    71   34  159 1    
    72   35   36 2    
    73   35   37 1    
    74   37   38 1    
    75   37   39 1    
    76   37  160 1    
    77   38  161 1    
    78   38  162 1    
    79   38  163 1    
    80   39   40 am   BACKBONE|DICT|INTERRES
    81   39  164 1    
    82   40   41 2    
    83   40   42 1    
    84   42   43 1    
    85   42   44 1    
    86   42  165 1    
    87   43  166 1    
    88   43  167 1    
    89   43  168 1    
    90   44   45 am   BACKBONE|DICT|INTERRES
    91   44  169 1    
    92   45   46 2    
    93   45   47 1    
    94   47   48 1    
    95   47   49 1    
    96   47  170 1    
    97   48  171 1    
    98   48  172 1    
    99   48  173 1    
   100   49   50 am   BACKBONE|DICT|INTERRES
   101   49  174 1    
   102   50   51 2    
   103   50   52 1    
   104   52   53 1    
   105   52   54 1    
   106   52  175 1    
   107   53  176 1    
   108   53  177 1    
   109   53  178 1    
   110   54   55 am   BACKBONE|DICT|INTERRES
   111   54  179 1    
   112   55   56 2    
   113   55   57 1    
   114   57   58 1    
   115   57   59 1    
   116   57  180 1    
   117   58  181 1    
   118   58  182 1    
   119   58  183 1    
   120   59   60 am   BACKBONE|DICT|INTERRES
   121   59  184 1    
   122   60   61 2    
   123   60   62 1    
   124   62   63 1    
   125   62   64 1    
   126   62  185 1    
   127   63  186 1    
   128   63  187 1    
   129   63  188 1    
   130   64   65 am   BACKBONE|DICT|INTERRES
   131   64  189 1    
   132   65   66 2    
   133   67   68 2    
   134   67   69 am   BACKBONE|DICT|INTERRES
   135   69   70 1    
   136   69  190 1    
   137   70   71 1    
   138   70   72 1    
   139   70  191 1    
   140   71  192 1    
   141   71  193 1    
   142   71  194 1    
   143   72   73 2    
   144   72   74 am   BACKBONE|DICT|INTERRES
   145   74   75 1    
   146   74  195 1    
   147   75   76 1    
   148   75   77 1    
   149   75  196 1    
   150   76  197 1    
   151   76  198 1    
   152   76  199 1    
   153   77   78 2    
   154   77   79 am   BACKBONE|DICT|INTERRES
   155   79   80 1    
   156   79  200 1    
   157   80   81 1    
   158   80   82 1    
   159   80  201 1    
   160   81  202 1    
   161   81  203 1    
   162   81  204 1    
   163   82   83 2    
   164   82   84 am   BACKBONE|DICT|INTERRES
   165   84   85 1    
   166   84  205 1    
   167   85   86 1    
   168   85   87 1    
   169   85  206 1    
   170   86  207 1    
   171   86  208 1    
   172   86  209 1    
   173   87   88 2    
   174   87   89 am   BACKBONE|DICT|INTERRES
   175   89   90 1    
   176   89  210 1    
   177   90   91 1    
   178   90   92 1    
   179   90  211 1    
   180   91  212 1    
   181   91  213 1    
   182   91  214 1    
   183   92   93 2    
   184   92   94 am   BACKBONE|DICT|INTERRES
   185   94   95 1    
   186   94  215 1    
   187   95   96 1    
   188   95   97 1    
   189   95  216 1    
   190   96  217 1    
   191   96  218 1    
   192   96  219 1    
   193   97   98 2    
   194   97   99 am   BACKBONE|DICT|INTERRES
   195   99  100 1    
   196   99  220 1    
   197  100  101 1    
   198  100  102 1    
   199  100  221 1    
   200  101  222 1    
   201  101  223 1    
   202  101  224 1    
   203  102  103 2    
   204  102  104 am   BACKBONE|DICT|INTERRES
   205  104  105 1    
   206  104  225 1    
   207  105  106 1    
   208  105  107 1    
   209  105  226 1    
   210  106  227 1    
   211  106  228 1    
   212  106  229 1    
   213  107  108 2    
   214  107  109 am   BACKBONE|DICT|INTERRES
   215  109  110 1    
   216  109  230 1    
   217  110  111 1    
   218  110  112 1    
   219  110  231 1    
   220  111  232 1    
   221  111  233 1    
   222  111  234 1    
   223  112  113 2    
   224  112  114 am   BACKBONE|DICT|INTERRES
   225  114  115 1    
   226  114  235 1    
   227  115  116 1    
   228  115  117 1    
   229  115  236 1    
   230  116  237 1    
   231  116  238 1    
   232  116  239 1    
   233  117  118 2    
   234  117  119 am   BACKBONE|DICT|INTERRES
   235  119  120 1    
   236  119  240 1    
   237  120  121 1    
   238  120  124 1    
   239  120  241 1    
   240  121  122 am   BACKBONE|DICT|INTERRES
   241  121  123 2    
   242  122  242 1    
   243  122  243 1    
   244  124  125 1    
   245  124  244 1    
   246  124  245 1    
   247  125  126 1    
   248  126  246 1    
   249  126  247 1    
@<TRIPOS>SUBSTRUCTURE
     1 UNK         1 GROUP             0       ****    0 ROOT    
