@<TRIPOS>MOLECULE
3R540
247   249    1
SMALL
USER_CHARGES


@<TRIPOS>ATOM
      1 CA          5.4100  -15.8277  -47.3609 C.3       0 UNK        -0.1800 
      2 C           3.9704  -15.3417  -47.2913 C.2       0 UNK         0.5000 
      3 O           3.2794  -15.6131  -46.3106 O.2       0 UNK        -0.5000 
      4 N           3.5087  -14.6208  -48.3213 N.am      1 UNK        -0.5000 
      5 CA          2.1447  -14.0940  -48.4482 C.3       1 UNK         0.1400 
      6 C6          1.7589  -13.8767  -49.9345 C.3       23 UNK        -0.0398 
      7 S7         -0.0424  -13.9812  -50.2368 S.3       23 UNK        -0.2404 
      8 C8         -0.4219  -15.7503  -49.9842 C.3       23 UNK        -0.0205 
      9 C9          0.5262  -16.6691  -50.7386 C.ar      23 UNK        -0.0193 
     10 C10         0.3769  -16.8565  -52.1156 C.ar      23 UNK        -0.1150 
     11 C11         1.2727  -17.6643  -52.8224 C.ar      23 UNK        -0.0193 
     12 C12         2.3251  -18.2809  -52.1390 C.ar      23 UNK        -0.1150 
     13 C13         2.4884  -18.0950  -50.7634 C.ar      23 UNK        -0.0193 
     14 C14         1.5756  -17.3021  -50.0643 C.ar      23 UNK        -0.1150 
     15 C15         3.6812  -18.7127  -50.0504 C.3       23 UNK        -0.0205 
     16 S16         3.3984  -20.4597  -49.6412 S.3       23 UNK        -0.2404 
     17 C17         2.4901  -20.3110  -48.0685 C.3       23 UNK        -0.0398 
     18 CA          2.1103  -21.6968  -47.4911 C.3       11 UNK         0.1400 
     19 N           1.9947  -21.6734  -46.0308 N.am      11 UNK        -0.5000 
     20 C           1.9615  -22.7680  -45.2563 C.2       10 UNK         0.5000 
     21 O           2.1038  -23.9143  -45.6822 O.2       10 UNK        -0.5000 
     22 CA          1.6958  -22.5505  -43.7555 C.3       10 UNK         0.1400 
     23 CB          3.0012  -22.2309  -43.0118 C.3       10 UNK        -0.1800 
     24 N           0.7181  -21.4921  -43.5032 N.am      10 UNK        -0.5000 
     25 C          -0.5701  -21.5380  -43.8691 C.2       9 UNK         0.5000 
     26 O          -1.0913  -22.5105  -44.4142 O.2       9 UNK        -0.5000 
     27 CA         -1.4033  -20.2658  -43.6323 C.3       9 UNK         0.1400 
     28 CB         -1.9137  -20.2039  -42.1849 C.3       9 UNK        -0.1800 
     29 N          -0.6591  -19.0448  -43.9442 N.am      9 UNK        -0.5000 
     30 C          -0.2435  -18.6981  -45.1709 C.2       8 UNK         0.5000 
     31 O          -0.4610  -19.3619  -46.1834 O.2       8 UNK        -0.5000 
     32 CA          0.6096  -17.4244  -45.2706 C.3       8 UNK         0.1400 
     33 CB         -0.2681  -16.1650  -45.2866 C.3       8 UNK        -0.1800 
     34 N           1.5757  -17.3373  -44.1773 N.am      8 UNK        -0.5000 
     35 C           2.6568  -18.1254  -44.0787 C.2       7 UNK         0.5000 
     36 O           2.9378  -19.0067  -44.8916 O.2       7 UNK        -0.5000 
     37 CA          3.5433  -17.9342  -42.8334 C.3       7 UNK         0.1400 
     38 CB          4.5425  -16.7898  -43.0626 C.3       7 UNK        -0.1800 
     39 N           2.7752  -17.6682  -41.6149 N.am      7 UNK        -0.5000 
     40 C           1.8307  -18.4734  -41.1076 C.2       6 UNK         0.5000 
     41 O           1.5578  -19.5772  -41.5761 O.2       6 UNK        -0.5000 
     42 CA          1.0207  -17.9561  -39.9032 C.3       6 UNK         0.1400 
     43 CB          1.5046  -18.6258  -38.6085 C.3       6 UNK        -0.1800 
     44 N           1.0348  -16.5010  -39.7211 N.am      6 UNK        -0.5000 
     45 C           0.5993  -15.5919  -40.6035 C.2       5 UNK         0.5000 
     46 O           0.2152  -15.8639  -41.7454 O.2       5 UNK        -0.5000 
     47 CA          0.6643  -14.1278  -40.1324 C.3       5 UNK         0.1400 
     48 CB          2.0913  -13.5781  -40.2861 C.3       5 UNK        -0.1800 
     49 N          -0.2664  -13.2715  -40.8681 N.am      5 UNK        -0.5000 
     50 C          -1.5977  -13.2923  -40.7066 C.2       4 UNK         0.5000 
     51 O          -2.1814  -14.0106  -39.8940 O.2       4 UNK        -0.5000 
     52 CA         -2.4096  -12.3616  -41.6151 C.3       4 UNK         0.1400 
     53 CB         -2.2523  -10.8919  -41.1765 C.3       4 UNK        -0.1800 
     54 N          -2.0013  -12.5456  -43.0063 N.am      4 UNK        -0.5000 
     55 C          -2.6734  -12.1075  -44.0780 C.2       3 UNK         0.5000 
     56 O          -3.7425  -11.4986  -44.0071 O.2       3 UNK        -0.5000 
     57 CA         -2.0533  -12.4174  -45.4597 C.3       3 UNK         0.1400 
     58 CB         -2.4876  -11.4150  -46.5491 C.3       3 UNK        -0.1800 
     59 N          -0.5907  -12.5520  -45.4430 N.am      3 UNK        -0.5000 
     60 C           0.3166  -11.6267  -45.0896 C.2       2 UNK         0.5000 
     61 O           0.0368  -10.5009  -44.6782 O.2       2 UNK        -0.5000 
     62 CA          1.7959  -12.0431  -45.2056 C.3       2 UNK         0.1400 
     63 CB          2.2959  -12.5992  -43.8651 C.3       2 UNK        -0.1800 
     64 N           2.0290  -13.0507  -46.2405 N.am      2 UNK        -0.5000 
     65 C           1.9258  -12.8481  -47.5593 C.2       1 UNK         0.5000 
     66 O           1.6870  -11.7479  -48.0595 O.2       1 UNK        -0.5000 
     67 C           0.8356  -22.2605  -48.1554 C.2       11 UNK         0.5000 
     68 O           0.9378  -23.0496  -49.0955 O.2       11 UNK        -0.5000 
     69 N          -0.3376  -21.8597  -47.6427 N.am      12 UNK        -0.5000 
     70 CA         -1.6474  -22.3207  -48.0971 C.3       12 UNK         0.1400 
     71 CB         -2.7480  -21.4869  -47.4215 C.3       12 UNK        -0.1800 
     72 C          -1.8716  -23.8211  -47.8426 C.2       12 UNK         0.5000 
     73 O          -2.3132  -24.5292  -48.7501 O.2       12 UNK        -0.5000 
     74 N          -1.5617  -24.2619  -46.6150 N.am      13 UNK        -0.5000 
     75 CA         -1.7041  -25.6245  -46.0979 C.3       13 UNK         0.1400 
     76 CB         -0.6935  -26.5605  -46.7972 C.3       13 UNK        -0.1800 
     77 C          -3.1604  -26.1414  -46.1622 C.2       13 UNK         0.5000 
     78 O          -4.1009  -25.3465  -46.2420 O.2       13 UNK        -0.5000 
     79 N          -3.3309  -27.4702  -46.1355 N.am      14 UNK        -0.5000 
     80 CA         -4.6248  -28.1503  -46.2629 C.3       14 UNK         0.1400 
     81 CB         -4.4431  -29.6353  -45.9134 C.3       14 UNK        -0.1800 
     82 C          -5.2631  -27.9981  -47.6598 C.2       14 UNK         0.5000 
     83 O          -6.4788  -28.1431  -47.7913 O.2       14 UNK        -0.5000 
     84 N          -4.4362  -27.6988  -48.6714 N.am      15 UNK        -0.5000 
     85 CA         -4.8491  -27.4283  -50.0482 C.3       15 UNK         0.1400 
     86 CB         -3.6124  -27.5258  -50.9559 C.3       15 UNK        -0.1800 
     87 C          -5.5263  -26.0552  -50.2279 C.2       15 UNK         0.5000 
     88 O          -6.2163  -25.8607  -51.2287 O.2       15 UNK        -0.5000 
     89 N          -5.2951  -25.1296  -49.2821 N.am      16 UNK        -0.5000 
     90 CA         -5.7085  -23.7219  -49.2970 C.3       16 UNK         0.1400 
     91 CB         -7.2431  -23.5922  -49.2113 C.3       16 UNK        -0.1800 
     92 C          -5.1066  -22.9451  -50.4888 C.2       16 UNK         0.5000 
     93 O          -5.7685  -22.0774  -51.0620 O.2       16 UNK        -0.5000 
     94 N          -3.8565  -23.2792  -50.8466 N.am      17 UNK        -0.5000 
     95 CA         -3.1530  -22.8565  -52.0631 C.3       17 UNK         0.1400 
     96 CB         -1.7576  -23.4960  -52.0917 C.3       17 UNK        -0.1800 
     97 C          -3.0550  -21.3347  -52.2683 C.2       17 UNK         0.5000 
     98 O          -3.0763  -20.8838  -53.4131 O.2       17 UNK        -0.5000 
     99 N          -3.0266  -20.5719  -51.1665 N.am      18 UNK        -0.5000 
    100 CA        -3.0449  -19.1070  -51.1460 C.3       18 UNK         0.1400 
    101 CB        -2.9174  -18.6259  -49.6934 C.3       18 UNK        -0.1800 
    102 C         -4.2920  -18.4844  -51.8100 C.2       18 UNK         0.5000 
    103 O         -4.2167  -17.3453  -52.2700 O.2       18 UNK        -0.5000 
    104 N         -5.3965  -19.2408  -51.8618 N.am      19 UNK        -0.5000 
    105 CA        -6.6187  -18.8879  -52.5779 C.3       19 UNK         0.1400 
    106 CB        -7.8069  -18.9487  -51.6049 C.3       19 UNK        -0.1800 
    107 C         -6.8487  -19.8343  -53.7676 C.2       19 UNK         0.5000 
    108 O         -7.1986  -19.3675  -54.8515 O.2       19 UNK        -0.5000 
    109 N         -6.6572  -21.1437  -53.5518 N.am      20 UNK        -0.5000 
    110 CA        -6.9930  -22.2013  -54.5069 C.3       20 UNK         0.1400 
    111 CB        -6.9749  -23.5574  -53.7850 C.3       20 UNK        -0.1800 
    112 C         -6.0948  -22.2455  -55.7562 C.2       20 UNK         0.5000 
    113 O         -6.5745  -22.6496  -56.8166 O.2       20 UNK        -0.5000 
    114 N         -4.8251  -21.8432  -55.6181 N.am      21 UNK        -0.5000 
    115 CA        -3.8478  -21.8066  -56.7068 C.3       21 UNK         0.1400 
    116 CB        -2.6363  -22.6812  -56.3412 C.3       21 UNK        -0.1800 
    117 C         -3.4174  -20.3621  -56.9962 C.2       21 UNK         0.5000 
    118 O         -3.4083  -19.9509  -58.1571 O.2       21 UNK        -0.5000 
    119 N         -3.0793  -19.6179  -55.9378 N.am      22 UNK        -0.5000 
    120 CA        -2.5950  -18.2305  -56.0035 C.3       22 UNK         0.1400 
    121 C         -3.7150  -17.1576  -56.1455 C.2       22 UNK         0.5000 
    122 N         -4.9950  -17.5051  -56.0969 N.am      22 UNK        -0.7600 
    123 O         -3.4150  -15.9803  -56.3249 O.2       22 UNK        -0.5000 
    124 C124       -1.6557  -17.9075  -54.8147 C.3       23 UNK        -0.0398 
    125 S125       -0.1975  -19.0080  -54.7544 S.3       23 UNK        -0.2404 
    126 C126        1.1346  -17.8437  -54.3276 C.3       23 UNK        -0.0205 
    127 H127        5.8850  -15.5559  -48.3038 H         1 UNK         0.0600 
    128 H128        5.4422  -16.9128  -47.2629 H         1 UNK         0.0600 
    129 H129        5.9905  -15.3941  -46.5467 H         1 UNK         0.0600 
    130 H130        4.1360  -14.3933  -49.0797 H         1 UNK         0.3000 
    131 H131        1.4803  -14.8628  -48.0504 H         1 UNK         0.0600 
    132 H132        2.1236  -12.9173  -50.3050 H         1 UNK         0.0800 
    133 H133        2.2475  -14.6163  -50.5687 H         1 UNK         0.0800 
    134 H134       -0.4149  -15.9811  -48.9181 H         1 UNK         0.0800 
    135 H135       -1.4419  -15.9297  -50.3245 H         1 UNK         0.0800 
    136 H136       -0.4269  -16.3573  -52.6372 H         1 UNK         0.1150 
    137 H137        3.0312  -18.8952  -52.6801 H         1 UNK         0.1150 
    138 H138        1.7032  -17.1509  -49.0018 H         1 UNK         0.1150 
    139 H139        4.5593  -18.6436  -50.6942 H         1 UNK         0.0800 
    140 H140        3.9266  -18.1523  -49.1470 H         1 UNK         0.0800 
    141 H141        1.6153  -19.6702  -48.1954 H         1 UNK         0.0800 
    142 H142        3.1506  -19.7869  -47.3773 H         1 UNK         0.0800 
    143 H143        2.9237  -22.3901  -47.7178 H         1 UNK         0.0600 
    144 H144        1.9305  -20.7621  -45.5920 H         1 UNK         0.3000 
    145 H145        1.2922  -23.4811  -43.3512 H         1 UNK         0.0600 
    146 H146        2.8319  -22.1453  -41.9382 H         1 UNK         0.0600 
    147 H147        3.7406  -23.0181  -43.1635 H         1 UNK         0.0600 
    148 H148        3.4416  -21.2947  -43.3558 H         1 UNK         0.0600 
    149 H149        1.0515  -20.6789  -42.9909 H         1 UNK         0.3000 
    150 H150       -2.2696  -20.3075  -44.2958 H         1 UNK         0.0600 
    151 H151       -2.5149  -21.0825  -41.9478 H         1 UNK         0.0600 
    152 H152       -2.5420  -19.3276  -42.0247 H         1 UNK         0.0600 
    153 H153       -1.0945  -20.1658  -41.4666 H         1 UNK         0.0600 
    154 H154       -0.4005  -18.4558  -43.1664 H         1 UNK         0.3000 
    155 H155        1.1598  -17.4641  -46.2136 H         1 UNK         0.0600 
    156 H156       -0.8429  -16.0590  -44.3656 H         1 UNK         0.0600 
    157 H157       -0.9744  -16.1911  -46.1175 H         1 UNK         0.0600 
    158 H158        0.3448  -15.2732  -45.4043 H         1 UNK         0.0600 
    159 H159        1.3758  -16.6768  -43.4362 H         1 UNK         0.3000 
    160 H160        4.1042  -18.8581  -42.6791 H         1 UNK         0.0600 
    161 H161        4.0355  -15.8324  -43.1921 H         1 UNK         0.0600 
    162 H162        5.1376  -16.9661  -43.9599 H         1 UNK         0.0600 
    163 H163        5.2351  -16.6948  -42.2263 H         1 UNK         0.0600 
    164 H164        2.9326  -16.7799  -41.1638 H         1 UNK         0.3000 
    165 H165       -0.0172  -18.2506  -40.0706 H         1 UNK         0.0600 
    166 H166        0.8722  -18.3550  -37.7627 H         1 UNK         0.0600 
    167 H167        1.4776  -19.7130  -38.6958 H         1 UNK         0.0600 
    168 H168        2.5297  -18.3413  -38.3680 H         1 UNK         0.0600 
    169 H169        1.3581  -16.1775  -38.8206 H         1 UNK         0.3000 
    170 H170        0.3935  -14.0908  -39.0749 H         1 UNK         0.0600 
    171 H171        2.7832  -14.1023  -39.6258 H         1 UNK         0.0600 
    172 H172        2.4661  -13.6968  -41.3017 H         1 UNK         0.0600 
    173 H173        2.1410  -12.5201  -40.0281 H         1 UNK         0.0600 
    174 H174        0.1392  -12.6338  -41.5350 H         1 UNK         0.3000 
    175 H175       -3.4602  -12.6449  -41.5219 H         1 UNK         0.0600 
    176 H176       -1.2364  -10.5295  -41.3373 H         1 UNK         0.0600 
    177 H177       -2.9288  -10.2367  -41.7249 H         1 UNK         0.0600 
    178 H178       -2.4813  -10.7735  -40.1166 H         1 UNK         0.0600 
    179 H179       -1.1706  -13.1000  -43.1548 H         1 UNK         0.3000 
    180 H180       -2.4420  -13.3960  -45.7449 H         1 UNK         0.0600 
    181 H181       -2.1904  -10.3956  -46.3014 H         1 UNK         0.0600 
    182 H182       -3.5705  -11.4181  -46.6779 H         1 UNK         0.0600 
    183 H183       -2.0474  -11.6672  -47.5140 H         1 UNK         0.0600 
    184 H184       -0.2347  -13.4386  -45.7659 H         1 UNK         0.3000 
    185 H185        2.3773  -11.1526  -45.4528 H         1 UNK         0.0600 
    186 H186        2.1575  -11.8723  -43.0637 H         1 UNK         0.0600 
    187 H187        1.7624  -13.5092  -43.5868 H         1 UNK         0.0600 
    188 H188        3.3593  -12.8359  -43.9081 H         1 UNK         0.0600 
    189 H189        2.3242  -13.9741  -45.9342 H         1 UNK         0.3000 
    190 H190       -0.3350  -21.1566  -46.9095 H         1 UNK         0.3000 
    191 H191       -1.6948  -22.1462  -49.1719 H         1 UNK         0.0600 
    192 H192       -3.7177  -21.6674  -47.8821 H         1 UNK         0.0600 
    193 H193       -2.5464  -20.4204  -47.4985 H         1 UNK         0.0600 
    194 H194       -2.8423  -21.7214  -46.3611 H         1 UNK         0.0600 
    195 H195       -1.2739  -23.5729  -45.9233 H         1 UNK         0.3000 
    196 H196       -1.4413  -25.5729  -45.0406 H         1 UNK         0.0600 
    197 H197       -0.9644  -26.7472  -47.8371 H         1 UNK         0.0600 
    198 H198        0.3068  -26.1263  -46.7904 H         1 UNK         0.0600 
    199 H199       -0.6215  -27.5242  -46.2925 H         1 UNK         0.0600 
    200 H200       -2.5174  -28.0636  -46.0586 H         1 UNK         0.3000 
    201 H201       -5.3135  -27.7096  -45.5389 H         1 UNK         0.0600 
    202 H202       -3.7500  -30.1279  -46.5965 H         1 UNK         0.0600 
    203 H203       -5.3929  -30.1690  -45.9685 H         1 UNK         0.0600 
    204 H204       -4.0618  -29.7588  -44.8995 H         1 UNK         0.0600 
    205 H205       -3.4526  -27.5996  -48.4690 H         1 UNK         0.3000 
    206 H206       -5.5648  -28.1942  -50.3544 H         1 UNK         0.0600 
    207 H207       -3.1553  -28.5136  -50.8964 H         1 UNK         0.0600 
    208 H208       -3.8780  -27.3543  -52.0000 H         1 UNK         0.0600 
    209 H209       -2.8560  -26.7876  -50.6849 H         1 UNK         0.0600 
    210 H210       -4.6995  -25.3916  -48.5060 H         1 UNK         0.3000 
    211 H211       -5.2929  -23.2784  -48.3927 H         1 UNK         0.0600 
    212 H212       -7.5392  -22.5516  -49.0734 H         1 UNK         0.0600 
    213 H213       -7.6397  -24.1568  -48.3676 H         1 UNK         0.0600 
    214 H214       -7.7332  -23.9515  -50.1166 H         1 UNK         0.0600 
    215 H215       -3.3740  -23.9640  -50.2707 H         1 UNK         0.3000 
    216 H216       -3.7161  -23.2532  -52.9093 H         1 UNK         0.0600 
    217 H217       -1.1417  -23.1661  -51.2548 H         1 UNK         0.0600 
    218 H218       -1.2279  -23.2374  -53.0097 H         1 UNK         0.0600 
    219 H219       -1.8216  -24.5835  -52.0501 H         1 UNK         0.0600 
    220 H220       -3.0554  -21.0338  -50.2724 H         1 UNK         0.3000 
    221 H221       -2.1681  -18.7587  -51.6944 H         1 UNK         0.0600 
    222 H222       -2.9805  -17.5397  -49.6306 H         1 UNK         0.0600 
    223 H223       -1.9588  -18.9186  -49.2640 H         1 UNK         0.0600 
    224 H224       -3.7143  -19.0286  -49.0675 H         1 UNK         0.0600 
    225 H225       -5.3654  -20.1731  -51.4632 H         1 UNK         0.3000 
    226 H226       -6.5570  -17.8722  -52.9741 H         1 UNK         0.0600 
    227 H227       -7.6829  -18.2344  -50.7909 H         1 UNK         0.0600 
    228 H228       -8.7411  -18.7050  -52.1124 H         1 UNK         0.0600 
    229 H229       -7.9193  -19.9404  -51.1643 H         1 UNK         0.0600 
    230 H230       -6.3744  -21.4568  -52.6257 H         1 UNK         0.3000 
    231 H231       -8.0141  -22.0211  -54.8498 H         1 UNK         0.0600 
    232 H232       -5.9795  -23.8084  -53.4193 H         1 UNK         0.0600 
    233 H233       -7.2890  -24.3607  -54.4524 H         1 UNK         0.0600 
    234 H234       -7.6529  -23.5618  -52.9312 H         1 UNK         0.0600 
    235 H235       -4.5110  -21.4957  -54.7198 H         1 UNK         0.3000 
    236 H236       -4.2765  -22.2070  -57.6277 H         1 UNK         0.0600 
    237 H237       -2.9370  -23.7142  -56.1660 H         1 UNK         0.0600 
    238 H238       -1.9044  -22.6877  -57.1497 H         1 UNK         0.0600 
    239 H239       -2.1280  -22.3255  -55.4448 H         1 UNK         0.0600 
    240 H240       -3.0721  -20.0445  -55.0140 H         1 UNK         0.3000 
    241 H241       -1.9962  -18.1349  -56.9114 H         1 UNK         0.0600 
    242 H242       -5.7016  -16.7945  -56.1996 H         1 UNK         0.3800 
    243 H243       -5.2737  -18.4629  -55.9493 H         1 UNK         0.3800 
    244 H244       -2.1933  -17.9961  -53.8736 H         1 UNK         0.0800 
    245 H245       -1.3190  -16.8718  -54.8749 H         1 UNK         0.0800 
    246 H246        2.0671  -18.2282  -54.7435 H         1 UNK         0.0800 
    247 H247        0.9737  -16.8781  -54.8086 H         1 UNK         0.0800 
@<TRIPOS>BOND
     1    1    2 1    
     2    1  127 1    
     3    1  128 1    
     4    1  129 1    
     5    2    3 2    
     6    2    4 am   BACKBONE|DICT|INTERRES
     7    4    5 1    
     8    4  130 1    
     9    5    6 1    
    10    5   65 1    
    11    5  131 1    
    12    6    7 1    
    13    6  132 1    
    14    6  133 1    
    15    7    8 1    
    16    8    9 1    
    17    8  134 1    
    18    8  135 1    
    19    9   10 ar   
    20    9   14 ar   
    21   10   11 ar   
    22   10  136 1    
    23   11   12 ar   
    24   11  126 1    
    25   12   13 ar   
    26   12  137 1    
    27   13   14 ar   
    28   13   15 1    
    29   14  138 1    
    30   15   16 1    
    31   15  139 1    
    32   15  140 1    
    33   16   17 1    
    34   17   18 1    
    35   17  141 1    
    36   17  142 1    
    37   18   19 1    
    38   18   67 1    
    39   18  143 1    
    40   19   20 am   BACKBONE|DICT|INTERRES
    41   19  144 1    
    42   20   21 2    
    43   20   22 1    
    44   22   23 1    
    45   22   24 1    
    46   22  145 1    
    47   23  146 1    
    48   23  147 1    
    49   23  148 1    
    50   24   25 am   BACKBONE|DICT|INTERRES
    51   24  149 1    
    52   25   26 2    
    53   25   27 1    
    54   27   28 1    
    55   27   29 1    
    56   27  150 1    
    57   28  151 1    
    58   28  152 1    
    59   28  153 1    
    60   29   30 am   BACKBONE|DICT|INTERRES
    61   29  154 1    
    62   30   31 2    
    63   30   32 1    
    64   32   33 1    
    65   32   34 1    
    66   32  155 1    
    67   33  156 1    
    68   33  157 1    
    69   33  158 1    
    70   34   35 am   BACKBONE|DICT|INTERRES
    71   34  159 1    
    72   35   36 2    
    73   35   37 1    
    74   37   38 1    
    75   37   39 1    
    76   37  160 1    
    77   38  161 1    
    78   38  162 1    
    79   38  163 1    
    80   39   40 am   BACKBONE|DICT|INTERRES
    81   39  164 1    
    82   40   41 2    
    83   40   42 1    
    84   42   43 1    
    85   42   44 1    
    86   42  165 1    
    87   43  166 1    
    88   43  167 1    
    89   43  168 1    
    90   44   45 am   BACKBONE|DICT|INTERRES
    91   44  169 1    
    92   45   46 2    
    93   45   47 1    
    94   47   48 1    
    95   47   49 1    
    96   47  170 1    
    97   48  171 1    
    98   48  172 1    
    99   48  173 1    
   100   49   50 am   BACKBONE|DICT|INTERRES
   101   49  174 1    
   102   50   51 2    
   103   50   52 1    
   104   52   53 1    
   105   52   54 1    
   106   52  175 1    
   107   53  176 1    
   108   53  177 1    
   109   53  178 1    
   110   54   55 am   BACKBONE|DICT|INTERRES
   111   54  179 1    
   112   55   56 2    
   113   55   57 1    
   114   57   58 1    
   115   57   59 1    
   116   57  180 1    
   117   58  181 1    
   118   58  182 1    
   119   58  183 1    
   120   59   60 am   BACKBONE|DICT|INTERRES
   121   59  184 1    
   122   60   61 2    
   123   60   62 1    
   124   62   63 1    
   125   62   64 1    
   126   62  185 1    
   127   63  186 1    
   128   63  187 1    
   129   63  188 1    
   130   64   65 am   BACKBONE|DICT|INTERRES
   131   64  189 1    
   132   65   66 2    
   133   67   68 2    
   134   67   69 am   BACKBONE|DICT|INTERRES
   135   69   70 1    
   136   69  190 1    
   137   70   71 1    
   138   70   72 1    
   139   70  191 1    
   140   71  192 1    
   141   71  193 1    
   142   71  194 1    
   143   72   73 2    
   144   72   74 am   BACKBONE|DICT|INTERRES
   145   74   75 1    
   146   74  195 1    
   147   75   76 1    
   148   75   77 1    
   149   75  196 1    
   150   76  197 1    
   151   76  198 1    
   152   76  199 1    
   153   77   78 2    
   154   77   79 am   BACKBONE|DICT|INTERRES
   155   79   80 1    
   156   79  200 1    
   157   80   81 1    
   158   80   82 1    
   159   80  201 1    
   160   81  202 1    
   161   81  203 1    
   162   81  204 1    
   163   82   83 2    
   164   82   84 am   BACKBONE|DICT|INTERRES
   165   84   85 1    
   166   84  205 1    
   167   85   86 1    
   168   85   87 1    
   169   85  206 1    
   170   86  207 1    
   171   86  208 1    
   172   86  209 1    
   173   87   88 2    
   174   87   89 am   BACKBONE|DICT|INTERRES
   175   89   90 1    
   176   89  210 1    
   177   90   91 1    
   178   90   92 1    
   179   90  211 1    
   180   91  212 1    
   181   91  213 1    
   182   91  214 1    
   183   92   93 2    
   184   92   94 am   BACKBONE|DICT|INTERRES
   185   94   95 1    
   186   94  215 1    
   187   95   96 1    
   188   95   97 1    
   189   95  216 1    
   190   96  217 1    
   191   96  218 1    
   192   96  219 1    
   193   97   98 2    
   194   97   99 am   BACKBONE|DICT|INTERRES
   195   99  100 1    
   196   99  220 1    
   197  100  101 1    
   198  100  102 1    
   199  100  221 1    
   200  101  222 1    
   201  101  223 1    
   202  101  224 1    
   203  102  103 2    
   204  102  104 am   BACKBONE|DICT|INTERRES
   205  104  105 1    
   206  104  225 1    
   207  105  106 1    
   208  105  107 1    
   209  105  226 1    
   210  106  227 1    
   211  106  228 1    
   212  106  229 1    
   213  107  108 2    
   214  107  109 am   BACKBONE|DICT|INTERRES
   215  109  110 1    
   216  109  230 1    
   217  110  111 1    
   218  110  112 1    
   219  110  231 1    
   220  111  232 1    
   221  111  233 1    
   222  111  234 1    
   223  112  113 2    
   224  112  114 am   BACKBONE|DICT|INTERRES
   225  114  115 1    
   226  114  235 1    
   227  115  116 1    
   228  115  117 1    
   229  115  236 1    
   230  116  237 1    
   231  116  238 1    
   232  116  239 1    
   233  117  118 2    
   234  117  119 am   BACKBONE|DICT|INTERRES
   235  119  120 1    
   236  119  240 1    
   237  120  121 1    
   238  120  124 1    
   239  120  241 1    
   240  121  122 am   BACKBONE|DICT|INTERRES
   241  121  123 2    
   242  122  242 1    
   243  122  243 1    
   244  124  125 1    
   245  124  244 1    
   246  124  245 1    
   247  125  126 1    
   248  126  246 1    
   249  126  247 1    
@<TRIPOS>SUBSTRUCTURE
     1 UNK         1 GROUP             0       ****    0 ROOT    
