@<TRIPOS>MOLECULE
3R540
247   249    1
SMALL
USER_CHARGES


@<TRIPOS>ATOM
      1 CA          8.0492  -15.4435  -45.3636 C.3       0 UNK        -0.1800 
      2 C           6.5891  -15.0849  -45.1287 C.2       0 UNK         0.5000 
      3 O           6.1228  -15.1261  -43.9906 O.2       0 UNK        -0.5000 
      4 N           5.8584  -14.7559  -46.2002 N.am      1 UNK        -0.5000 
      5 CA          4.4697  -14.2974  -46.1450 C.3       1 UNK         0.1400 
      6 C6          3.7618  -14.5002  -47.5065 C.3       23 UNK        -0.0398 
      7 S7          1.9885  -14.0730  -47.4708 S.3       23 UNK        -0.2404 
      8 C8          1.5499  -14.2466  -49.2257 C.3       23 UNK        -0.0205 
      9 C9          0.8066  -15.5453  -49.4887 C.ar      23 UNK        -0.0193 
     10 C10        -0.5908  -15.5629  -49.4660 C.ar      23 UNK        -0.1150 
     11 C11        -1.2933  -16.7402  -49.7375 C.ar      23 UNK        -0.0193 
     12 C12        -0.5805  -17.9064  -50.0323 C.ar      23 UNK        -0.1150 
     13 C13         0.8179  -17.9052  -50.0535 C.ar      23 UNK        -0.0193 
     14 C14         1.5067  -16.7204  -49.7761 C.ar      23 UNK        -0.1150 
     15 C15         1.5831  -19.1741  -50.4052 C.3       23 UNK        -0.0205 
     16 S16         1.8379  -20.2509  -48.9589 S.3       23 UNK        -0.2404 
     17 C17         0.1426  -20.8542  -48.6785 C.3       23 UNK        -0.0398 
     18 CA          0.0804  -22.1928  -47.9103 C.3       11 UNK         0.1400 
     19 N           0.6585  -22.1206  -46.5669 N.am      11 UNK        -0.5000 
     20 C           0.8379  -23.1761  -45.7587 C.2       10 UNK         0.5000 
     21 O           0.6510  -24.3427  -46.1039 O.2       10 UNK        -0.5000 
     22 CA          1.2348  -22.8754  -44.3029 C.3       10 UNK         0.1400 
     23 CB          2.7594  -22.7590  -44.1526 C.3       10 UNK        -0.1800 
     24 N           0.5886  -21.6594  -43.8067 N.am      10 UNK        -0.5000 
     25 C          -0.7206  -21.5599  -43.5335 C.2       9 UNK         0.5000 
     26 O          -1.5065  -22.5052  -43.6094 O.2       9 UNK        -0.5000 
     27 CA         -1.2442  -20.1620  -43.1522 C.3       9 UNK         0.1400 
     28 CB         -1.0625  -19.9059  -41.6492 C.3       9 UNK        -0.1800 
     29 N          -0.5923  -19.0945  -43.9142 N.am      9 UNK        -0.5000 
     30 C          -0.7880  -18.8863  -45.2262 C.2       8 UNK         0.5000 
     31 O          -1.5770  -19.5432  -45.9014 O.2       8 UNK        -0.5000 
     32 CA          0.0636  -17.8005  -45.9169 C.3       8 UNK         0.1400 
     33 CB         -0.6996  -16.4706  -45.9169 C.3       8 UNK        -0.1800 
     34 N           1.3853  -17.6178  -45.3090 N.am      8 UNK        -0.5000 
     35 C           2.2955  -18.5960  -45.1756 C.2       7 UNK         0.5000 
     36 O           2.1363  -19.7300  -45.6245 O.2       7 UNK        -0.5000 
     37 CA          3.5591  -18.3039  -44.3418 C.3       7 UNK         0.1400 
     38 CB          4.7650  -18.0968  -45.2659 C.3       7 UNK        -0.1800 
     39 N           3.4324  -17.1758  -43.4093 N.am      7 UNK        -0.5000 
     40 C           2.5268  -17.1066  -42.4207 C.2       6 UNK         0.5000 
     41 O           1.6977  -17.9916  -42.2000 O.2       6 UNK        -0.5000 
     42 CA          2.4775  -15.8277  -41.5625 C.3       6 UNK         0.1400 
     43 CB          3.7284  -14.9282  -41.6707 C.3       6 UNK        -0.1800 
     44 N           1.2522  -15.0722  -41.8450 N.am      6 UNK        -0.5000 
     45 C           0.9059  -14.5238  -43.0171 C.2       5 UNK         0.5000 
     46 O           1.6314  -14.5326  -44.0173 O.2       5 UNK        -0.5000 
     47 CA         -0.4806  -13.8638  -43.0895 C.3       5 UNK         0.1400 
     48 CB         -0.6645  -12.7545  -42.0346 C.3       5 UNK        -0.1800 
     49 N          -0.6599  -13.3123  -44.4276 N.am      5 UNK        -0.5000 
     50 C          -1.8232  -13.0165  -45.0148 C.2       4 UNK         0.5000 
     51 O          -2.9194  -13.2050  -44.4849 O.2       4 UNK        -0.5000 
     52 CA         -1.7299  -12.3734  -46.4105 C.3       4 UNK         0.1400 
     53 CB         -3.0467  -11.7032  -46.8547 C.3       4 UNK        -0.1800 
     54 N          -0.6296  -11.4106  -46.4260 N.am      4 UNK        -0.5000 
     55 C          -0.0147  -10.9240  -47.5067 C.2       3 UNK         0.5000 
     56 O          -0.3404  -11.2030  -48.6606 O.2       3 UNK        -0.5000 
     57 CA          1.1778   -9.9745  -47.2697 C.3       3 UNK         0.1400 
     58 CB          0.6974   -8.5473  -46.9440 C.3       3 UNK        -0.1800 
     59 N           2.1621  -10.4515  -46.2857 N.am      3 UNK        -0.5000 
     60 C           2.0321  -10.6166  -44.9615 C.2       2 UNK         0.5000 
     61 O           0.9907  -10.3993  -44.3403 O.2       2 UNK        -0.5000 
     62 CA          3.2678  -11.1800  -44.2370 C.3       2 UNK         0.1400 
     63 CB          3.1014  -11.2474  -42.7088 C.3       2 UNK        -0.1800 
     64 N           3.5412  -12.5224  -44.7400 N.am      2 UNK        -0.5000 
     65 C           4.4365  -12.8262  -45.6834 C.2       1 UNK         0.5000 
     66 O           5.1856  -12.0005  -46.2114 O.2       1 UNK        -0.5000 
     67 C          -1.3739  -22.6979  -47.8566 C.2       11 UNK         0.5000 
     68 O          -1.7036  -23.6508  -48.5612 O.2       11 UNK        -0.5000 
     69 N          -2.2077  -22.0810  -47.0057 N.am      12 UNK        -0.5000 
     70 CA         -3.6251  -22.4056  -46.8237 C.3       12 UNK         0.1400 
     71 CB         -4.2540  -21.4388  -45.8102 C.3       12 UNK        -0.1800 
     72 C          -3.8833  -23.8652  -46.4118 C.2       12 UNK         0.5000 
     73 O          -4.8478  -24.4638  -46.8883 O.2       12 UNK        -0.5000 
     74 N          -2.9818  -24.4350  -45.5999 N.am      13 UNK        -0.5000 
     75 CA         -2.9763  -25.8485  -45.2105 C.3       13 UNK         0.1400 
     76 CB         -1.9028  -26.0652  -44.1334 C.3       13 UNK        -0.1800 
     77 C          -2.7707  -26.8266  -46.3898 C.2       13 UNK         0.5000 
     78 O          -3.1723  -27.9859  -46.2856 O.2       13 UNK        -0.5000 
     79 N          -2.1801  -26.3425  -47.4902 N.am      14 UNK        -0.5000 
     80 CA         -1.9888  -27.0559  -48.7539 C.3       14 UNK         0.1400 
     81 CB         -0.5083  -26.9348  -49.1568 C.3       14 UNK        -0.1800 
     82 C          -2.9176  -26.5056  -49.8586 C.2       14 UNK         0.5000 
     83 O          -2.6432  -26.7112  -51.0430 O.2       14 UNK        -0.5000 
     84 N          -3.9730  -25.7709  -49.4679 N.am      15 UNK        -0.5000 
     85 CA         -4.9588  -25.0939  -50.3214 C.3       15 UNK         0.1400 
     86 CB         -5.8317  -26.1235  -51.0672 C.3       15 UNK        -0.1800 
     87 C          -4.3453  -24.0491  -51.2788 C.2       15 UNK         0.5000 
     88 O          -4.9458  -23.7378  -52.3092 O.2       15 UNK        -0.5000 
     89 N          -3.1638  -23.5238  -50.9244 N.am      16 UNK        -0.5000 
     90 CA         -2.2980  -22.6467  -51.7171 C.3       16 UNK         0.1400 
     91 CB         -2.9287  -21.2488  -51.8799 C.3       16 UNK        -0.1800 
     92 C          -1.8475  -23.2967  -53.0427 C.2       16 UNK         0.5000 
     93 O          -1.7037  -22.6055  -54.0501 O.2       16 UNK        -0.5000 
     94 N          -1.6444  -24.6247  -53.0065 N.am      17 UNK        -0.5000 
     95 CA         -1.3693  -25.5109  -54.1420 C.3       17 UNK         0.1400 
     96 CB         -0.0223  -25.1714  -54.8148 C.3       17 UNK        -0.1800 
     97 C          -2.5602  -25.5551  -55.1216 C.2       17 UNK         0.5000 
     98 O          -2.3773  -25.4361  -56.3344 O.2       17 UNK        -0.5000 
     99 N          -3.7624  -25.7186  -54.5479 N.am      18 UNK        -0.5000 
    100 CA        -5.0744  -25.7242  -55.2016 C.3       18 UNK         0.1400 
    101 CB        -5.2170  -26.9327  -56.1507 C.3       18 UNK        -0.1800 
    102 C         -5.3994  -24.3728  -55.8719 C.2       18 UNK         0.5000 
    103 O         -5.7641  -24.3298  -57.0486 O.2       18 UNK        -0.5000 
    104 N         -5.2658  -23.2931  -55.0928 N.am      19 UNK        -0.5000 
    105 CA        -5.5605  -21.9143  -55.4881 C.3       19 UNK         0.1400 
    106 CB        -4.2480  -21.1359  -55.6826 C.3       19 UNK        -0.1800 
    107 C         -6.5095  -21.2477  -54.4735 C.2       19 UNK         0.5000 
    108 O         -6.4258  -20.0395  -54.2498 O.2       19 UNK        -0.5000 
    109 N         -7.4066  -22.0555  -53.8875 N.am      20 UNK        -0.5000 
    110 CA        -8.4857  -21.6751  -52.9680 C.3       20 UNK         0.1400 
    111 CB        -9.5167  -20.7711  -53.6771 C.3       20 UNK        -0.1800 
    112 C         -7.9995  -21.0903  -51.6247 C.2       20 UNK         0.5000 
    113 O         -8.6953  -20.2664  -51.0289 O.2       20 UNK        -0.5000 
    114 N         -6.8240  -21.5399  -51.1614 N.am      21 UNK        -0.5000 
    115 CA        -6.1861  -21.2808  -49.8601 C.3       21 UNK         0.1400 
    116 CB        -7.0634  -21.8026  -48.7061 C.3       21 UNK        -0.1800 
    117 C         -5.7205  -19.8370  -49.5863 C.2       21 UNK         0.5000 
    118 O         -4.7320  -19.6730  -48.8731 O.2       21 UNK        -0.5000 
    119 N         -6.4334  -18.8406  -50.1221 N.am      22 UNK        -0.5000 
    120 CA        -6.2442  -17.3767  -50.0491 C.3       22 UNK         0.1400 
    121 C         -6.0609  -16.7061  -48.6510 C.2       22 UNK         0.5000 
    122 N         -5.7736  -17.4318  -47.5815 N.am      22 UNK        -0.7600 
    123 O         -6.2196  -15.4942  -48.5320 O.2       22 UNK        -0.5000 
    124 C124       -5.2676  -16.8096  -51.1213 C.3       23 UNK        -0.0398 
    125 S125       -3.5729  -17.4923  -51.1687 S.3       23 UNK        -0.2404 
    126 C126       -2.8163  -16.7459  -49.6870 C.3       23 UNK        -0.0205 
    127 H127        8.3193  -15.3751  -46.4176 H         1 UNK         0.0600 
    128 H128        8.2427  -16.4623  -45.0280 H         1 UNK         0.0600 
    129 H129        8.6955  -14.7692  -44.8018 H         1 UNK         0.0600 
    130 H130        6.3036  -14.7058  -47.1054 H         1 UNK         0.3000 
    131 H131        3.9412  -14.9048  -45.4072 H         1 UNK         0.0600 
    132 H132        4.2533  -13.9096  -48.2818 H         1 UNK         0.0800 
    133 H133        3.8458  -15.5436  -47.8137 H         1 UNK         0.0800 
    134 H134        0.9258  -13.4008  -49.5152 H         1 UNK         0.0800 
    135 H135        2.4394  -14.1875  -49.8542 H         1 UNK         0.0800 
    136 H136       -1.1300  -14.6543  -49.2375 H         1 UNK         0.1150 
    137 H137       -1.1224  -18.8148  -50.2518 H         1 UNK         0.1150 
    138 H138        2.5872  -16.7095  -49.7948 H         1 UNK         0.1150 
    139 H139        1.0608  -19.7231  -51.1902 H         1 UNK         0.0800 
    140 H140        2.5584  -18.9149  -50.8200 H         1 UNK         0.0800 
    141 H141       -0.3364  -20.9686  -49.6515 H         1 UNK         0.0800 
    142 H142       -0.4153  -20.0789  -48.1551 H         1 UNK         0.0800 
    143 H143        0.6577  -22.9291  -48.4738 H         1 UNK         0.0600 
    144 H144        0.9274  -21.2008  -46.2316 H         1 UNK         0.3000 
    145 H145        0.8999  -23.7133  -43.6874 H         1 UNK         0.0600 
    146 H146        3.2483  -23.6870  -44.4511 H         1 UNK         0.0600 
    147 H147        3.1724  -21.9620  -44.7705 H         1 UNK         0.0600 
    148 H148        3.0404  -22.5621  -43.1180 H         1 UNK         0.0600 
    149 H149        1.1542  -20.8230  -43.7840 H         1 UNK         0.3000 
    150 H150       -2.3133  -20.1329  -43.3719 H         1 UNK         0.0600 
    151 H151       -1.4567  -18.9303  -41.3641 H         1 UNK         0.0600 
    152 H152       -0.0124  -19.9416  -41.3573 H         1 UNK         0.0600 
    153 H153       -1.5917  -20.6561  -41.0602 H         1 UNK         0.0600 
    154 H154        0.1052  -18.5462  -43.4221 H         1 UNK         0.3000 
    155 H155        0.2219  -18.1022  -46.9538 H         1 UNK         0.0600 
    156 H156       -1.6386  -16.5623  -46.4644 H         1 UNK         0.0600 
    157 H157       -0.1252  -15.6797  -46.3944 H         1 UNK         0.0600 
    158 H158       -0.9420  -16.1511  -44.9043 H         1 UNK         0.0600 
    159 H159        1.5871  -16.7079  -44.9155 H         1 UNK         0.3000 
    160 H160        3.7518  -19.1939  -43.7391 H         1 UNK         0.0600 
    161 H161        4.9310  -18.9766  -45.8892 H         1 UNK         0.0600 
    162 H162        5.6786  -17.9289  -44.6960 H         1 UNK         0.0600 
    163 H163        4.6138  -17.2523  -45.9365 H         1 UNK         0.0600 
    164 H164        4.0811  -16.4090  -43.5298 H         1 UNK         0.3000 
    165 H165        2.4061  -16.1615  -40.5263 H         1 UNK         0.0600 
    166 H166        3.6645  -14.0913  -40.9754 H         1 UNK         0.0600 
    167 H167        4.6334  -15.4836  -41.4219 H         1 UNK         0.0600 
    168 H168        3.8630  -14.5118  -42.6677 H         1 UNK         0.0600 
    169 H169        0.5851  -15.0432  -41.0869 H         1 UNK         0.3000 
    170 H170       -1.2228  -14.6468  -42.9229 H         1 UNK         0.0600 
    171 H171       -1.6767  -12.3511  -42.0627 H         1 UNK         0.0600 
    172 H172       -0.5005  -13.1255  -41.0228 H         1 UNK         0.0600 
    173 H173        0.0215  -11.9242  -42.1986 H         1 UNK         0.0600 
    174 H174        0.2017  -13.2177  -44.9506 H         1 UNK         0.3000 
    175 H175       -1.4951  -13.1784  -47.1100 H         1 UNK         0.0600 
    176 H176       -3.3227  -10.8865  -46.1868 H         1 UNK         0.0600 
    177 H177       -2.9708  -11.2991  -47.8639 H         1 UNK         0.0600 
    178 H178       -3.8692  -12.4194  -46.8600 H         1 UNK         0.0600 
    179 H179       -0.2812  -11.1128  -45.5165 H         1 UNK         0.3000 
    180 H180        1.7202   -9.9225  -48.2151 H         1 UNK         0.0600 
    181 H181        1.5383   -7.8601  -46.8507 H         1 UNK         0.0600 
    182 H182        0.1271   -8.5079  -46.0156 H         1 UNK         0.0600 
    183 H183        0.0522   -8.1657  -47.7363 H         1 UNK         0.0600 
    184 H184        3.0528  -10.7171  -46.6844 H         1 UNK         0.3000 
    185 H185        4.1041  -10.5104  -44.4480 H         1 UNK         0.0600 
    186 H186        2.3217  -11.9482  -42.4153 H         1 UNK         0.0600 
    187 H187        4.0272  -11.5676  -42.2306 H         1 UNK         0.0600 
    188 H188        2.8434  -10.2710  -42.2970 H         1 UNK         0.0600 
    189 H189        2.9124  -13.2554  -44.4188 H         1 UNK         0.3000 
    190 H190       -1.8743  -21.2659  -46.4950 H         1 UNK         0.3000 
    191 H191       -4.1112  -22.2519  -47.7874 H         1 UNK         0.0600 
    192 H192       -3.7608  -21.4975  -44.8403 H         1 UNK         0.0600 
    193 H193       -5.3097  -21.6626  -45.6535 H         1 UNK         0.0600 
    194 H194       -4.1895  -20.4077  -46.1583 H         1 UNK         0.0600 
    195 H195       -2.2408  -23.8562  -45.2223 H         1 UNK         0.3000 
    196 H196       -3.9499  -26.0723  -44.7700 H         1 UNK         0.0600 
    197 H197       -1.9099  -27.0955  -43.7758 H         1 UNK         0.0600 
    198 H198       -2.0724  -25.4203  -43.2708 H         1 UNK         0.0600 
    199 H199       -0.9030  -25.8577  -44.5148 H         1 UNK         0.0600 
    200 H200       -1.8988  -25.3677  -47.5023 H         1 UNK         0.3000 
    201 H201       -2.2257  -28.1147  -48.6360 H         1 UNK         0.0600 
    202 H202        0.1446  -27.3173  -48.3720 H         1 UNK         0.0600 
    203 H203       -0.2273  -25.8983  -49.3478 H         1 UNK         0.0600 
    204 H204       -0.2956  -27.5069  -50.0607 H         1 UNK         0.0600 
    205 H205       -4.1033  -25.6241  -48.4731 H         1 UNK         0.3000 
    206 H206       -5.6098  -24.5366  -49.6474 H         1 UNK         0.0600 
    207 H207       -6.6521  -25.6359  -51.5952 H         1 UNK         0.0600 
    208 H208       -5.2578  -26.6867  -51.8034 H         1 UNK         0.0600 
    209 H209       -6.2759  -26.8369  -50.3732 H         1 UNK         0.0600 
    210 H210       -2.7586  -23.8154  -50.0370 H         1 UNK         0.3000 
    211 H211       -1.3828  -22.5221  -51.1387 H         1 UNK         0.0600 
    212 H212       -3.8843  -21.2867  -52.4017 H         1 UNK         0.0600 
    213 H213       -2.2743  -20.5799  -52.4397 H         1 UNK         0.0600 
    214 H214       -3.0976  -20.7852  -50.9084 H         1 UNK         0.0600 
    215 H215       -1.8229  -25.1069  -52.1323 H         1 UNK         0.3000 
    216 H216       -1.2801  -26.5159  -53.7269 H         1 UNK         0.0600 
    217 H217        0.2367  -25.9218  -55.5625 H         1 UNK         0.0600 
    218 H218        0.7872  -25.1473  -54.0854 H         1 UNK         0.0600 
    219 H219       -0.0477  -24.2061  -55.3207 H         1 UNK         0.0600 
    220 H220       -3.7851  -25.7761  -53.5397 H         1 UNK         0.3000 
    221 H221       -5.8091  -25.8505  -54.4049 H         1 UNK         0.0600 
    222 H222       -4.5436  -26.8636  -57.0054 H         1 UNK         0.0600 
    223 H223       -5.0056  -27.8677  -55.6320 H         1 UNK         0.0600 
    224 H224       -6.2327  -27.0018  -56.5419 H         1 UNK         0.0600 
    225 H225       -4.9949  -23.4270  -54.1199 H         1 UNK         0.3000 
    226 H226       -6.0941  -21.9062  -56.4404 H         1 UNK         0.0600 
    227 H227       -3.5780  -21.6556  -56.3678 H         1 UNK         0.0600 
    228 H228       -4.4375  -20.1464  -56.1000 H         1 UNK         0.0600 
    229 H229       -3.7198  -20.9967  -54.7407 H         1 UNK         0.0600 
    230 H230       -7.3667  -23.0360  -54.1272 H         1 UNK         0.3000 
    231 H231       -8.9965  -22.6041  -52.7113 H         1 UNK         0.0600 
    232 H232       -9.1051  -19.7875  -53.9049 H         1 UNK         0.0600 
    233 H233       -9.8564  -21.2175  -54.6116 H         1 UNK         0.0600 
    234 H234      -10.3990  -20.6186  -53.0543 H         1 UNK         0.0600 
    235 H235       -6.3137  -22.1740  -51.7655 H         1 UNK         0.3000 
    236 H236       -5.2738  -21.8727  -49.8584 H         1 UNK         0.0600 
    237 H237       -8.0050  -21.2584  -48.6317 H         1 UNK         0.0600 
    238 H238       -7.2961  -22.8598  -48.8318 H         1 UNK         0.0600 
    239 H239       -6.5560  -21.6957  -47.7478 H         1 UNK         0.0600 
    240 H240       -7.2726  -19.1333  -50.6146 H         1 UNK         0.3000 
    241 H241       -7.2277  -17.0105  -50.3466 H         1 UNK         0.0600 
    242 H242       -5.6745  -16.9916  -46.6815 H         1 UNK         0.3800 
    243 H243       -5.4998  -18.3993  -47.7189 H         1 UNK         0.3800 
    244 H244       -5.6966  -17.0028  -52.1054 H         1 UNK         0.0800 
    245 H245       -5.2047  -15.7221  -51.0547 H         1 UNK         0.0800 
    246 H246       -3.1300  -17.3076  -48.8065 H         1 UNK         0.0800 
    247 H247       -3.1951  -15.7301  -49.5646 H         1 UNK         0.0800 
@<TRIPOS>BOND
     1    1    2 1    
     2    1  127 1    
     3    1  128 1    
     4    1  129 1    
     5    2    3 2    
     6    2    4 am   BACKBONE|DICT|INTERRES
     7    4    5 1    
     8    4  130 1    
     9    5    6 1    
    10    5   65 1    
    11    5  131 1    
    12    6    7 1    
    13    6  132 1    
    14    6  133 1    
    15    7    8 1    
    16    8    9 1    
    17    8  134 1    
    18    8  135 1    
    19    9   10 ar   
    20    9   14 ar   
    21   10   11 ar   
    22   10  136 1    
    23   11   12 ar   
    24   11  126 1    
    25   12   13 ar   
    26   12  137 1    
    27   13   14 ar   
    28   13   15 1    
    29   14  138 1    
    30   15   16 1    
    31   15  139 1    
    32   15  140 1    
    33   16   17 1    
    34   17   18 1    
    35   17  141 1    
    36   17  142 1    
    37   18   19 1    
    38   18   67 1    
    39   18  143 1    
    40   19   20 am   BACKBONE|DICT|INTERRES
    41   19  144 1    
    42   20   21 2    
    43   20   22 1    
    44   22   23 1    
    45   22   24 1    
    46   22  145 1    
    47   23  146 1    
    48   23  147 1    
    49   23  148 1    
    50   24   25 am   BACKBONE|DICT|INTERRES
    51   24  149 1    
    52   25   26 2    
    53   25   27 1    
    54   27   28 1    
    55   27   29 1    
    56   27  150 1    
    57   28  151 1    
    58   28  152 1    
    59   28  153 1    
    60   29   30 am   BACKBONE|DICT|INTERRES
    61   29  154 1    
    62   30   31 2    
    63   30   32 1    
    64   32   33 1    
    65   32   34 1    
    66   32  155 1    
    67   33  156 1    
    68   33  157 1    
    69   33  158 1    
    70   34   35 am   BACKBONE|DICT|INTERRES
    71   34  159 1    
    72   35   36 2    
    73   35   37 1    
    74   37   38 1    
    75   37   39 1    
    76   37  160 1    
    77   38  161 1    
    78   38  162 1    
    79   38  163 1    
    80   39   40 am   BACKBONE|DICT|INTERRES
    81   39  164 1    
    82   40   41 2    
    83   40   42 1    
    84   42   43 1    
    85   42   44 1    
    86   42  165 1    
    87   43  166 1    
    88   43  167 1    
    89   43  168 1    
    90   44   45 am   BACKBONE|DICT|INTERRES
    91   44  169 1    
    92   45   46 2    
    93   45   47 1    
    94   47   48 1    
    95   47   49 1    
    96   47  170 1    
    97   48  171 1    
    98   48  172 1    
    99   48  173 1    
   100   49   50 am   BACKBONE|DICT|INTERRES
   101   49  174 1    
   102   50   51 2    
   103   50   52 1    
   104   52   53 1    
   105   52   54 1    
   106   52  175 1    
   107   53  176 1    
   108   53  177 1    
   109   53  178 1    
   110   54   55 am   BACKBONE|DICT|INTERRES
   111   54  179 1    
   112   55   56 2    
   113   55   57 1    
   114   57   58 1    
   115   57   59 1    
   116   57  180 1    
   117   58  181 1    
   118   58  182 1    
   119   58  183 1    
   120   59   60 am   BACKBONE|DICT|INTERRES
   121   59  184 1    
   122   60   61 2    
   123   60   62 1    
   124   62   63 1    
   125   62   64 1    
   126   62  185 1    
   127   63  186 1    
   128   63  187 1    
   129   63  188 1    
   130   64   65 am   BACKBONE|DICT|INTERRES
   131   64  189 1    
   132   65   66 2    
   133   67   68 2    
   134   67   69 am   BACKBONE|DICT|INTERRES
   135   69   70 1    
   136   69  190 1    
   137   70   71 1    
   138   70   72 1    
   139   70  191 1    
   140   71  192 1    
   141   71  193 1    
   142   71  194 1    
   143   72   73 2    
   144   72   74 am   BACKBONE|DICT|INTERRES
   145   74   75 1    
   146   74  195 1    
   147   75   76 1    
   148   75   77 1    
   149   75  196 1    
   150   76  197 1    
   151   76  198 1    
   152   76  199 1    
   153   77   78 2    
   154   77   79 am   BACKBONE|DICT|INTERRES
   155   79   80 1    
   156   79  200 1    
   157   80   81 1    
   158   80   82 1    
   159   80  201 1    
   160   81  202 1    
   161   81  203 1    
   162   81  204 1    
   163   82   83 2    
   164   82   84 am   BACKBONE|DICT|INTERRES
   165   84   85 1    
   166   84  205 1    
   167   85   86 1    
   168   85   87 1    
   169   85  206 1    
   170   86  207 1    
   171   86  208 1    
   172   86  209 1    
   173   87   88 2    
   174   87   89 am   BACKBONE|DICT|INTERRES
   175   89   90 1    
   176   89  210 1    
   177   90   91 1    
   178   90   92 1    
   179   90  211 1    
   180   91  212 1    
   181   91  213 1    
   182   91  214 1    
   183   92   93 2    
   184   92   94 am   BACKBONE|DICT|INTERRES
   185   94   95 1    
   186   94  215 1    
   187   95   96 1    
   188   95   97 1    
   189   95  216 1    
   190   96  217 1    
   191   96  218 1    
   192   96  219 1    
   193   97   98 2    
   194   97   99 am   BACKBONE|DICT|INTERRES
   195   99  100 1    
   196   99  220 1    
   197  100  101 1    
   198  100  102 1    
   199  100  221 1    
   200  101  222 1    
   201  101  223 1    
   202  101  224 1    
   203  102  103 2    
   204  102  104 am   BACKBONE|DICT|INTERRES
   205  104  105 1    
   206  104  225 1    
   207  105  106 1    
   208  105  107 1    
   209  105  226 1    
   210  106  227 1    
   211  106  228 1    
   212  106  229 1    
   213  107  108 2    
   214  107  109 am   BACKBONE|DICT|INTERRES
   215  109  110 1    
   216  109  230 1    
   217  110  111 1    
   218  110  112 1    
   219  110  231 1    
   220  111  232 1    
   221  111  233 1    
   222  111  234 1    
   223  112  113 2    
   224  112  114 am   BACKBONE|DICT|INTERRES
   225  114  115 1    
   226  114  235 1    
   227  115  116 1    
   228  115  117 1    
   229  115  236 1    
   230  116  237 1    
   231  116  238 1    
   232  116  239 1    
   233  117  118 2    
   234  117  119 am   BACKBONE|DICT|INTERRES
   235  119  120 1    
   236  119  240 1    
   237  120  121 1    
   238  120  124 1    
   239  120  241 1    
   240  121  122 am   BACKBONE|DICT|INTERRES
   241  121  123 2    
   242  122  242 1    
   243  122  243 1    
   244  124  125 1    
   245  124  244 1    
   246  124  245 1    
   247  125  126 1    
   248  126  246 1    
   249  126  247 1    
@<TRIPOS>SUBSTRUCTURE
     1 UNK         1 GROUP             0       ****    0 ROOT    
