@<TRIPOS>MOLECULE
3R540
247   249    1
SMALL
USER_CHARGES


@<TRIPOS>ATOM
      1 CA          1.7263  -12.3069  -45.3224 C.3       0 UNK        -0.1800 
      2 C           0.5147  -13.1649  -45.6565 C.2       0 UNK         0.5000 
      3 O          -0.0002  -13.8684  -44.7851 O.2       0 UNK        -0.5000 
      4 N           0.0710  -13.1241  -46.9191 N.am      1 UNK        -0.5000 
      5 CA         -1.0715  -13.8852  -47.4392 C.3       1 UNK         0.1400 
      6 C6         -1.2013  -13.7694  -48.9767 C.3       23 UNK        -0.0398 
      7 S7          0.2660  -14.4134  -49.8503 S.3       23 UNK        -0.2404 
      8 C8         -0.1630  -16.1761  -49.9994 C.3       23 UNK        -0.0205 
      9 C9          0.8516  -16.9159  -50.8558 C.ar      23 UNK        -0.0193 
     10 C10         0.6835  -16.9791  -52.2425 C.ar      23 UNK        -0.1150 
     11 C11         1.6189  -17.6416  -53.0426 C.ar      23 UNK        -0.0193 
     12 C12         2.7248  -18.2502  -52.4427 C.ar      23 UNK        -0.1150 
     13 C13         2.9056  -18.1945  -51.0576 C.ar      23 UNK        -0.0193 
     14 C14         1.9644  -17.5255  -50.2677 C.ar      23 UNK        -0.1150 
     15 C15         4.1419  -18.8254  -50.4335 C.3       23 UNK        -0.0205 
     16 S16         3.8931  -20.5868  -50.0474 S.3       23 UNK        -0.2404 
     17 C17         3.1797  -20.4708  -48.3752 C.3       23 UNK        -0.0398 
     18 CA          2.3040  -21.6846  -47.9849 C.3       11 UNK         0.1400 
     19 N           2.1461  -21.7684  -46.5308 N.am      11 UNK        -0.5000 
     20 C           1.6299  -22.8088  -45.8626 C.2       10 UNK         0.5000 
     21 O           1.2766  -23.8611  -46.3942 O.2       10 UNK        -0.5000 
     22 CA          1.4477  -22.6281  -44.3429 C.3       10 UNK         0.1400 
     23 CB          2.7466  -22.9529  -43.5901 C.3       10 UNK        -0.1800 
     24 N           1.0008  -21.2809  -43.9846 N.am      10 UNK        -0.5000 
     25 C          -0.1832  -20.7573  -44.3344 C.2       9 UNK         0.5000 
     26 O          -1.0474  -21.3742  -44.9558 O.2       9 UNK        -0.5000 
     27 CA         -0.4154  -19.2798  -43.9703 C.3       9 UNK         0.1400 
     28 CB         -0.7655  -19.1507  -42.4780 C.3       9 UNK        -0.1800 
     29 N           0.7466  -18.4463  -44.2930 N.am      9 UNK        -0.5000 
     30 C           1.2450  -18.2770  -45.5277 C.2       8 UNK         0.5000 
     31 O           0.7229  -18.7356  -46.5405 O.2       8 UNK        -0.5000 
     32 CA          2.5792  -17.5252  -45.6631 C.3       8 UNK         0.1400 
     33 CB          2.3530  -16.0208  -45.8083 C.3       8 UNK        -0.1800 
     34 N           3.4741  -17.7775  -44.5383 N.am      8 UNK        -0.5000 
     35 C           4.1105  -18.9373  -44.3317 C.2       7 UNK         0.5000 
     36 O           4.0348  -19.9031  -45.0909 O.2       7 UNK        -0.5000 
     37 CA          4.9230  -19.0433  -43.0295 C.3       7 UNK         0.1400 
     38 CB          6.3069  -18.3985  -43.1966 C.3       7 UNK        -0.1800 
     39 N           4.2284  -18.4246  -41.8981 N.am      7 UNK        -0.5000 
     40 C           3.0871  -18.8936  -41.3750 C.2       6 UNK         0.5000 
     41 O           2.5294  -19.9183  -41.7691 O.2       6 UNK        -0.5000 
     42 CA          2.4432  -18.0592  -40.2525 C.3       6 UNK         0.1400 
     43 CB          3.0173  -18.4619  -38.8861 C.3       6 UNK        -0.1800 
     44 N           2.5897  -16.6103  -40.4337 N.am      6 UNK        -0.5000 
     45 C           2.0202  -15.9081  -41.4217 C.2       5 UNK         0.5000 
     46 O           1.3751  -16.4204  -42.3391 O.2       5 UNK        -0.5000 
     47 CA          2.2175  -14.3861  -41.3968 C.3       5 UNK         0.1400 
     48 CB          3.3693  -13.9737  -42.3262 C.3       5 UNK        -0.1800 
     49 N           0.9804  -13.7591  -41.8513 N.am      5 UNK        -0.5000 
     50 C           0.2998  -12.8067  -41.1997 C.2       4 UNK         0.5000 
     51 O           0.7190  -12.2338  -40.1932 O.2       4 UNK        -0.5000 
     52 CA         -1.1039  -12.4559  -41.7358 C.3       4 UNK         0.1400 
     53 CB         -1.0707  -11.2023  -42.6227 C.3       4 UNK        -0.1800 
     54 N          -1.6923  -13.5672  -42.4842 N.am      4 UNK        -0.5000 
     55 C          -2.2741  -14.6296  -41.9138 C.2       3 UNK         0.5000 
     56 O          -2.5006  -14.7123  -40.7050 O.2       3 UNK        -0.5000 
     57 CA         -2.6247  -15.8027  -42.8506 C.3       3 UNK         0.1400 
     58 CB         -3.5551  -16.8476  -42.2001 C.3       3 UNK        -0.1800 
     59 N          -3.1426  -15.3901  -44.1563 N.am      3 UNK        -0.5000 
     60 C          -4.2556  -14.6887  -44.4241 C.2       2 UNK         0.5000 
     61 O          -5.0190  -14.2473  -43.5640 O.2       2 UNK        -0.5000 
     62 CA         -4.5659  -14.4790  -45.9242 C.3       2 UNK         0.1400 
     63 CB         -5.4822  -13.2675  -46.2003 C.3       2 UNK        -0.1800 
     64 N          -3.3443  -14.4536  -46.7429 N.am      2 UNK        -0.5000 
     65 C          -2.3944  -13.5060  -46.7365 C.2       1 UNK         0.5000 
     66 O          -2.5159  -12.4063  -46.1913 O.2       1 UNK        -0.5000 
     67 C           0.9421  -21.6687  -48.7150 C.2       11 UNK         0.5000 
     68 O           0.7716  -22.3896  -49.6980 O.2       11 UNK        -0.5000 
     69 N          -0.0018  -20.8610  -48.2112 N.am      12 UNK        -0.5000 
     70 CA         -1.3538  -20.7137  -48.7477 C.3       12 UNK         0.1400 
     71 CB         -2.0023  -19.4566  -48.1472 C.3       12 UNK        -0.1800 
     72 C          -2.2545  -21.9349  -48.5055 C.2       12 UNK         0.5000 
     73 O          -3.1354  -22.1961  -49.3272 O.2       12 UNK        -0.5000 
     74 N          -2.0076  -22.6471  -47.3985 N.am      13 UNK        -0.5000 
     75 CA         -2.7421  -23.8020  -46.8792 C.3       13 UNK         0.1400 
     76 CB         -2.8055  -24.9411  -47.9199 C.3       13 UNK        -0.1800 
     77 C          -4.1376  -23.4312  -46.3365 C.2       13 UNK         0.5000 
     78 O          -4.5742  -22.2796  -46.4310 O.2       13 UNK        -0.5000 
     79 N          -4.8126  -24.4285  -45.7481 N.am      14 UNK        -0.5000 
     80 CA         -6.1622  -24.3208  -45.1919 C.3       14 UNK         0.1400 
     81 CB         -6.5669  -25.6700  -44.5793 C.3       14 UNK        -0.1800 
     82 C          -7.1809  -23.8796  -46.2572 C.2       14 UNK         0.5000 
     83 O          -7.1930  -24.4418  -47.3538 O.2       14 UNK        -0.5000 
     84 N          -7.9758  -22.8526  -45.9268 N.am      15 UNK        -0.5000 
     85 CA         -8.9670  -22.1941  -46.7892 C.3       15 UNK         0.1400 
     86 CB        -10.1426  -23.1495  -47.0854 C.3       15 UNK        -0.1800 
     87 C          -8.3720  -21.5737  -48.0762 C.2       15 UNK         0.5000 
     88 O          -9.1047  -21.3757  -49.0467 O.2       15 UNK        -0.5000 
     89 N          -7.0595  -21.2835  -48.0628 N.am      16 UNK        -0.5000 
     90 CA         -6.2506  -20.7749  -49.1763 C.3       16 UNK         0.1400 
     91 CB         -6.7001  -19.3525  -49.5759 C.3       16 UNK        -0.1800 
     92 C          -6.1845  -21.7493  -50.3751 C.2       16 UNK         0.5000 
     93 O          -6.0635  -21.3077  -51.5188 O.2       16 UNK        -0.5000 
     94 N          -6.2697  -23.0598  -50.0976 N.am      17 UNK        -0.5000 
     95 CA         -6.3450  -24.1277  -51.0966 C.3       17 UNK         0.1400 
     96 CB         -6.5992  -25.4673  -50.3902 C.3       17 UNK        -0.1800 
     97 C          -5.1210  -24.2377  -52.0246 C.2       17 UNK         0.5000 
     98 O          -5.2912  -24.5892  -53.1924 O.2       17 UNK        -0.5000 
     99 N          -3.9212  -23.9365  -51.5099 N.am      18 UNK        -0.5000 
    100 CA        -2.6874  -23.9256  -52.2963 C.3       18 UNK         0.1400 
    101 CB        -1.5006  -24.3620  -51.4278 C.3       18 UNK        -0.1800 
    102 C         -2.4448  -22.5481  -52.9323 C.2       18 UNK         0.5000 
    103 O         -1.9805  -22.4934  -54.0702 O.2       18 UNK        -0.5000 
    104 N         -2.8221  -21.4667  -52.2299 N.am      19 UNK        -0.5000 
    105 CA        -2.7742  -20.0768  -52.7116 C.3       19 UNK         0.1400 
    106 CB        -3.0997  -19.1059  -51.5643 C.3       19 UNK        -0.1800 
    107 C         -3.6650  -19.7956  -53.9393 C.2       19 UNK         0.5000 
    108 O         -3.4419  -18.8075  -54.6385 O.2       19 UNK        -0.5000 
    109 N         -4.6342  -20.6804  -54.2033 N.am      20 UNK        -0.5000 
    110 CA        -5.4462  -20.7093  -55.4185 C.3       20 UNK         0.1400 
    111 CB        -6.5726  -21.7367  -55.2282 C.3       20 UNK        -0.1800 
    112 C         -4.6396  -21.0208  -56.6999 C.2       20 UNK         0.5000 
    113 O         -5.1296  -20.7317  -57.7927 O.2       20 UNK        -0.5000 
    114 N         -3.4375  -21.5973  -56.5554 N.am      21 UNK        -0.5000 
    115 CA        -2.5167  -21.9084  -57.6442 C.3       21 UNK         0.1400 
    116 CB        -2.4205  -23.4363  -57.8112 C.3       21 UNK        -0.1800 
    117 C         -1.1510  -21.2600  -57.3667 C.2       21 UNK         0.5000 
    118 O         -0.8046  -20.2848  -58.0329 O.2       21 UNK        -0.5000 
    119 N         -0.4197  -21.8217  -56.3928 N.am      22 UNK        -0.5000 
    120 CA         0.9014  -21.4233  -55.8647 C.3       22 UNK         0.1400 
    121 C          2.0412  -21.1189  -56.8880 C.2       22 UNK         0.5000 
    122 N          1.9791  -21.6265  -58.1124 N.am      22 UNK        -0.7600 
    123 O          3.0227  -20.4571  -56.5604 O.2       22 UNK        -0.5000 
    124 C124        0.8091  -20.4219  -54.6793 C.3       23 UNK        -0.0398 
    125 S125        0.1162  -18.7821  -55.0861 S.3       23 UNK        -0.2404 
    126 C126        1.4535  -17.6683  -54.5565 C.3       23 UNK        -0.0205 
    127 H127        2.6407  -12.8841  -45.4573 H         1 UNK         0.0600 
    128 H128        1.6877  -11.9726  -44.2861 H         1 UNK         0.0600 
    129 H129        1.7771  -11.4253  -45.9615 H         1 UNK         0.0600 
    130 H130        0.5337  -12.5256  -47.5875 H         1 UNK         0.3000 
    131 H131       -0.8770  -14.9327  -47.1979 H         1 UNK         0.0600 
    132 H132       -1.3403  -12.7264  -49.2666 H         1 UNK         0.0800 
    133 H133       -2.0825  -14.3007  -49.3407 H         1 UNK         0.0800 
    134 H134       -0.2056  -16.6202  -49.0040 H         1 UNK         0.0800 
    135 H135       -1.1585  -16.2820  -50.4335 H         1 UNK         0.0800 
    136 H136       -0.1706  -16.5023  -52.7029 H         1 UNK         0.1150 
    137 H137        3.4560  -18.7581  -53.0560 H         1 UNK         0.1150 
    138 H138        2.1017  -17.4634  -49.1976 H         1 UNK         0.1150 
    139 H139        4.9816  -18.7380  -51.1247 H         1 UNK         0.0800 
    140 H140        4.4385  -18.2821  -49.5348 H         1 UNK         0.0800 
    141 H141        2.6167  -19.5439  -48.2743 H         1 UNK         0.0800 
    142 H142        4.0233  -20.3858  -47.6896 H         1 UNK         0.0800 
    143 H143        2.8287  -22.5918  -48.2927 H         1 UNK         0.0600 
    144 H144        2.4691  -20.9710  -45.9952 H         1 UNK         0.3000 
    145 H145        0.6803  -23.3325  -44.0151 H         1 UNK         0.0600 
    146 H146        2.6029  -22.8878  -42.5113 H         1 UNK         0.0600 
    147 H147        3.0847  -23.9654  -43.8138 H         1 UNK         0.0600 
    148 H148        3.5523  -22.2701  -43.8601 H         1 UNK         0.0600 
    149 H149        1.6372  -20.7186  -43.4286 H         1 UNK         0.3000 
    150 H150       -1.2588  -18.9085  -44.5560 H         1 UNK         0.0600 
    151 H151       -1.7561  -19.5613  -42.2799 H         1 UNK         0.0600 
    152 H152       -0.7674  -18.1151  -42.1452 H         1 UNK         0.0600 
    153 H153       -0.0633  -19.6908  -41.8442 H         1 UNK         0.0600 
    154 H154        1.1871  -17.9566  -43.5206 H         1 UNK         0.3000 
    155 H155        3.0675  -17.8761  -46.5741 H         1 UNK         0.0600 
    156 H156        1.9121  -15.6089  -44.9023 H         1 UNK         0.0600 
    157 H157        1.6798  -15.8047  -46.6391 H         1 UNK         0.0600 
    158 H158        3.2880  -15.4942  -45.9987 H         1 UNK         0.0600 
    159 H159        3.5503  -17.0505  -43.8433 H         1 UNK         0.3000 
    160 H160        5.0629  -20.1038  -42.8086 H         1 UNK         0.0600 
    161 H161        6.2341  -17.3287  -43.3964 H         1 UNK         0.0600 
    162 H162        6.8499  -18.8517  -44.0272 H         1 UNK         0.0600 
    163 H163        6.9143  -18.5324  -42.3013 H         1 UNK         0.0600 
    164 H164        4.6270  -17.5800  -41.5156 H         1 UNK         0.3000 
    165 H165        1.3751  -18.2869  -40.2497 H         1 UNK         0.0600 
    166 H166        2.5016  -17.9482  -38.0746 H         1 UNK         0.0600 
    167 H167        2.9027  -19.5332  -38.7148 H         1 UNK         0.0600 
    168 H168        4.0802  -18.2291  -38.8102 H         1 UNK         0.0600 
    169 H169        3.1148  -16.1209  -39.7232 H         1 UNK         0.3000 
    170 H170        2.4531  -14.0796  -40.3757 H         1 UNK         0.0600 
    171 H171        4.3099  -14.4260  -42.0096 H         1 UNK         0.0600 
    172 H172        3.1871  -14.2787  -43.3565 H         1 UNK         0.0600 
    173 H173        3.5094  -12.8927  -42.3197 H         1 UNK         0.0600 
    174 H174        0.5582  -14.1863  -42.6685 H         1 UNK         0.3000 
    175 H175       -1.7371  -12.2338  -40.8742 H         1 UNK         0.0600 
    176 H176       -0.4794  -11.3556  -43.5234 H         1 UNK         0.0600 
    177 H177       -2.0759  -10.9155  -42.9322 H         1 UNK         0.0600 
    178 H178       -0.6406  -10.3555  -42.0866 H         1 UNK         0.0600 
    179 H179       -1.4768  -13.6031  -43.4759 H         1 UNK         0.3000 
    180 H180       -1.6736  -16.2899  -43.0638 H         1 UNK         0.0600 
    181 H181       -3.7372  -17.6856  -42.8729 H         1 UNK         0.0600 
    182 H182       -4.5198  -16.4172  -41.9301 H         1 UNK         0.0600 
    183 H183       -3.1129  -17.2551  -41.2903 H         1 UNK         0.0600 
    184 H184       -2.5781  -15.6713  -44.9437 H         1 UNK         0.3000 
    185 H185       -5.1133  -15.3692  -46.2377 H         1 UNK         0.0600 
    186 H186       -6.4622  -13.4123  -45.7445 H         1 UNK         0.0600 
    187 H187       -5.0735  -12.3422  -45.7941 H         1 UNK         0.0600 
    188 H188       -5.6400  -13.1264  -47.2694 H         1 UNK         0.0600 
    189 H189       -3.1678  -15.3042  -47.2592 H         1 UNK         0.3000 
    190 H190        0.2402  -20.2464  -47.4369 H         1 UNK         0.3000 
    191 H191       -1.2635  -20.5870  -49.8267 H         1 UNK         0.0600 
    192 H192       -3.0173  -19.3172  -48.5205 H         1 UNK         0.0600 
    193 H193       -1.4351  -18.5624  -48.4011 H         1 UNK         0.0600 
    194 H194       -2.0604  -19.5185  -47.0598 H         1 UNK         0.0600 
    195 H195       -1.3297  -22.2600  -46.7506 H         1 UNK         0.3000 
    196 H196       -2.1576  -24.1554  -46.0285 H         1 UNK         0.0600 
    197 H197       -3.5055  -24.7201  -48.7253 H         1 UNK         0.0600 
    198 H198       -1.8270  -25.1236  -48.3642 H         1 UNK         0.0600 
    199 H199       -3.1281  -25.8764  -47.4625 H         1 UNK         0.0600 
    200 H200       -4.3977  -25.3480  -45.7245 H         1 UNK         0.3000 
    201 H201       -6.1326  -23.5749  -44.3950 H         1 UNK         0.0600 
    202 H202       -6.5826  -26.4631  -45.3282 H         1 UNK         0.0600 
    203 H203       -7.5634  -25.6152  -44.1390 H         1 UNK         0.0600 
    204 H204       -5.8788  -25.9679  -43.7880 H         1 UNK         0.0600 
    205 H205       -7.8705  -22.4451  -45.0077 H         1 UNK         0.3000 
    206 H206       -9.3622  -21.3573  -46.2117 H         1 UNK         0.0600 
    207 H207      -10.5498  -23.5710  -46.1665 H         1 UNK         0.0600 
    208 H208      -10.9571  -22.6266  -47.5880 H         1 UNK         0.0600 
    209 H209       -9.8400  -23.9763  -47.7288 H         1 UNK         0.0600 
    210 H210       -6.5305  -21.5179  -47.2307 H         1 UNK         0.3000 
    211 H211       -5.2332  -20.6963  -48.7936 H         1 UNK         0.0600 
    212 H212       -6.0238  -18.9118  -50.3076 H         1 UNK         0.0600 
    213 H213       -6.7165  -18.6880  -48.7121 H         1 UNK         0.0600 
    214 H214       -7.6955  -19.3506  -50.0201 H         1 UNK         0.0600 
    215 H215       -6.3880  -23.3424  -49.1321 H         1 UNK         0.3000 
    216 H216       -7.2077  -23.9138  -51.7309 H         1 UNK         0.0600 
    217 H217       -5.8133  -25.6970  -49.6695 H         1 UNK         0.0600 
    218 H218       -6.6414  -26.2891  -51.1061 H         1 UNK         0.0600 
    219 H219       -7.5502  -25.4558  -49.8575 H         1 UNK         0.0600 
    220 H220       -3.8597  -23.5801  -50.5612 H         1 UNK         0.3000 
    221 H221       -2.7672  -24.6491  -53.1106 H         1 UNK         0.0600 
    222 H222       -0.5760  -24.3703  -52.0062 H         1 UNK         0.0600 
    223 H223       -1.6494  -25.3680  -51.0358 H         1 UNK         0.0600 
    224 H224       -1.3473  -23.6952  -50.5827 H         1 UNK         0.0600 
    225 H225       -3.2000  -21.6155  -51.3014 H         1 UNK         0.3000 
    226 H226       -1.7514  -19.8737  -53.0285 H         1 UNK         0.0600 
    227 H227       -2.2166  -18.9102  -50.9598 H         1 UNK         0.0600 
    228 H228       -3.4335  -18.1355  -51.9347 H         1 UNK         0.0600 
    229 H229       -3.8812  -19.4957  -50.9146 H         1 UNK         0.0600 
    230 H230       -4.8051  -21.4105  -53.5247 H         1 UNK         0.3000 
    231 H231       -5.8971  -19.7231  -55.5449 H         1 UNK         0.0600 
    232 H232       -6.1772  -22.7453  -55.1026 H         1 UNK         0.0600 
    233 H233       -7.2403  -21.7504  -56.0905 H         1 UNK         0.0600 
    234 H234       -7.1775  -21.5026  -54.3517 H         1 UNK         0.0600 
    235 H235       -3.0893  -21.7746  -55.6187 H         1 UNK         0.3000 
    236 H236       -2.8784  -21.4926  -58.5869 H         1 UNK         0.0600 
    237 H237       -3.3737  -23.8503  -58.1404 H         1 UNK         0.0600 
    238 H238       -1.6751  -23.7028  -58.5615 H         1 UNK         0.0600 
    239 H239       -2.1497  -23.9363  -56.8806 H         1 UNK         0.0600 
    240 H240       -0.8601  -22.5663  -55.8668 H         1 UNK         0.3000 
    241 H241        1.2603  -22.3466  -55.4085 H         1 UNK         0.0600 
    242 H242        2.7239  -21.4393  -58.7652 H         1 UNK         0.3800 
    243 H243        1.1784  -22.1631  -58.4045 H         1 UNK         0.3800 
    244 H244        1.7902  -20.3039  -54.2188 H         1 UNK         0.0800 
    245 H245        0.1881  -20.8543  -53.8955 H         1 UNK         0.0800 
    246 H246        2.3830  -17.9620  -55.0470 H         1 UNK         0.0800 
    247 H247        1.2296  -16.6603  -54.9083 H         1 UNK         0.0800 
@<TRIPOS>BOND
     1    1    2 1    
     2    1  127 1    
     3    1  128 1    
     4    1  129 1    
     5    2    3 2    
     6    2    4 am   BACKBONE|DICT|INTERRES
     7    4    5 1    
     8    4  130 1    
     9    5    6 1    
    10    5   65 1    
    11    5  131 1    
    12    6    7 1    
    13    6  132 1    
    14    6  133 1    
    15    7    8 1    
    16    8    9 1    
    17    8  134 1    
    18    8  135 1    
    19    9   10 ar   
    20    9   14 ar   
    21   10   11 ar   
    22   10  136 1    
    23   11   12 ar   
    24   11  126 1    
    25   12   13 ar   
    26   12  137 1    
    27   13   14 ar   
    28   13   15 1    
    29   14  138 1    
    30   15   16 1    
    31   15  139 1    
    32   15  140 1    
    33   16   17 1    
    34   17   18 1    
    35   17  141 1    
    36   17  142 1    
    37   18   19 1    
    38   18   67 1    
    39   18  143 1    
    40   19   20 am   BACKBONE|DICT|INTERRES
    41   19  144 1    
    42   20   21 2    
    43   20   22 1    
    44   22   23 1    
    45   22   24 1    
    46   22  145 1    
    47   23  146 1    
    48   23  147 1    
    49   23  148 1    
    50   24   25 am   BACKBONE|DICT|INTERRES
    51   24  149 1    
    52   25   26 2    
    53   25   27 1    
    54   27   28 1    
    55   27   29 1    
    56   27  150 1    
    57   28  151 1    
    58   28  152 1    
    59   28  153 1    
    60   29   30 am   BACKBONE|DICT|INTERRES
    61   29  154 1    
    62   30   31 2    
    63   30   32 1    
    64   32   33 1    
    65   32   34 1    
    66   32  155 1    
    67   33  156 1    
    68   33  157 1    
    69   33  158 1    
    70   34   35 am   BACKBONE|DICT|INTERRES
    71   34  159 1    
    72   35   36 2    
    73   35   37 1    
    74   37   38 1    
    75   37   39 1    
    76   37  160 1    
    77   38  161 1    
    78   38  162 1    
    79   38  163 1    
    80   39   40 am   BACKBONE|DICT|INTERRES
    81   39  164 1    
    82   40   41 2    
    83   40   42 1    
    84   42   43 1    
    85   42   44 1    
    86   42  165 1    
    87   43  166 1    
    88   43  167 1    
    89   43  168 1    
    90   44   45 am   BACKBONE|DICT|INTERRES
    91   44  169 1    
    92   45   46 2    
    93   45   47 1    
    94   47   48 1    
    95   47   49 1    
    96   47  170 1    
    97   48  171 1    
    98   48  172 1    
    99   48  173 1    
   100   49   50 am   BACKBONE|DICT|INTERRES
   101   49  174 1    
   102   50   51 2    
   103   50   52 1    
   104   52   53 1    
   105   52   54 1    
   106   52  175 1    
   107   53  176 1    
   108   53  177 1    
   109   53  178 1    
   110   54   55 am   BACKBONE|DICT|INTERRES
   111   54  179 1    
   112   55   56 2    
   113   55   57 1    
   114   57   58 1    
   115   57   59 1    
   116   57  180 1    
   117   58  181 1    
   118   58  182 1    
   119   58  183 1    
   120   59   60 am   BACKBONE|DICT|INTERRES
   121   59  184 1    
   122   60   61 2    
   123   60   62 1    
   124   62   63 1    
   125   62   64 1    
   126   62  185 1    
   127   63  186 1    
   128   63  187 1    
   129   63  188 1    
   130   64   65 am   BACKBONE|DICT|INTERRES
   131   64  189 1    
   132   65   66 2    
   133   67   68 2    
   134   67   69 am   BACKBONE|DICT|INTERRES
   135   69   70 1    
   136   69  190 1    
   137   70   71 1    
   138   70   72 1    
   139   70  191 1    
   140   71  192 1    
   141   71  193 1    
   142   71  194 1    
   143   72   73 2    
   144   72   74 am   BACKBONE|DICT|INTERRES
   145   74   75 1    
   146   74  195 1    
   147   75   76 1    
   148   75   77 1    
   149   75  196 1    
   150   76  197 1    
   151   76  198 1    
   152   76  199 1    
   153   77   78 2    
   154   77   79 am   BACKBONE|DICT|INTERRES
   155   79   80 1    
   156   79  200 1    
   157   80   81 1    
   158   80   82 1    
   159   80  201 1    
   160   81  202 1    
   161   81  203 1    
   162   81  204 1    
   163   82   83 2    
   164   82   84 am   BACKBONE|DICT|INTERRES
   165   84   85 1    
   166   84  205 1    
   167   85   86 1    
   168   85   87 1    
   169   85  206 1    
   170   86  207 1    
   171   86  208 1    
   172   86  209 1    
   173   87   88 2    
   174   87   89 am   BACKBONE|DICT|INTERRES
   175   89   90 1    
   176   89  210 1    
   177   90   91 1    
   178   90   92 1    
   179   90  211 1    
   180   91  212 1    
   181   91  213 1    
   182   91  214 1    
   183   92   93 2    
   184   92   94 am   BACKBONE|DICT|INTERRES
   185   94   95 1    
   186   94  215 1    
   187   95   96 1    
   188   95   97 1    
   189   95  216 1    
   190   96  217 1    
   191   96  218 1    
   192   96  219 1    
   193   97   98 2    
   194   97   99 am   BACKBONE|DICT|INTERRES
   195   99  100 1    
   196   99  220 1    
   197  100  101 1    
   198  100  102 1    
   199  100  221 1    
   200  101  222 1    
   201  101  223 1    
   202  101  224 1    
   203  102  103 2    
   204  102  104 am   BACKBONE|DICT|INTERRES
   205  104  105 1    
   206  104  225 1    
   207  105  106 1    
   208  105  107 1    
   209  105  226 1    
   210  106  227 1    
   211  106  228 1    
   212  106  229 1    
   213  107  108 2    
   214  107  109 am   BACKBONE|DICT|INTERRES
   215  109  110 1    
   216  109  230 1    
   217  110  111 1    
   218  110  112 1    
   219  110  231 1    
   220  111  232 1    
   221  111  233 1    
   222  111  234 1    
   223  112  113 2    
   224  112  114 am   BACKBONE|DICT|INTERRES
   225  114  115 1    
   226  114  235 1    
   227  115  116 1    
   228  115  117 1    
   229  115  236 1    
   230  116  237 1    
   231  116  238 1    
   232  116  239 1    
   233  117  118 2    
   234  117  119 am   BACKBONE|DICT|INTERRES
   235  119  120 1    
   236  119  240 1    
   237  120  121 1    
   238  120  124 1    
   239  120  241 1    
   240  121  122 am   BACKBONE|DICT|INTERRES
   241  121  123 2    
   242  122  242 1    
   243  122  243 1    
   244  124  125 1    
   245  124  244 1    
   246  124  245 1    
   247  125  126 1    
   248  126  246 1    
   249  126  247 1    
@<TRIPOS>SUBSTRUCTURE
     1 UNK         1 GROUP             0       ****    0 ROOT    
