@<TRIPOS>MOLECULE
3R540
247   249    1
SMALL
USER_CHARGES


@<TRIPOS>ATOM
      1 CA          6.7467  -16.4852  -47.6886 C.3       0 UNK        -0.1800 
      2 C           5.6487  -17.1492  -48.5070 C.2       0 UNK         0.5000 
      3 O           5.9197  -18.0960  -49.2452 O.2       0 UNK        -0.5000 
      4 N           4.4089  -16.6608  -48.3730 N.am      1 UNK        -0.5000 
      5 CA          3.2192  -17.1668  -49.0771 C.3       1 UNK         0.1400 
      6 C6          2.0990  -16.1007  -49.1748 C.3       23 UNK        -0.0398 
      7 S7          2.6732  -14.5499  -49.9506 S.3       23 UNK        -0.2404 
      8 C8          1.3180  -13.4070  -49.5362 C.3       23 UNK        -0.0205 
      9 C9          0.0595  -13.7234  -50.3285 C.ar      23 UNK        -0.0193 
     10 C10        -0.0802  -13.2718  -51.6423 C.ar      23 UNK        -0.1150 
     11 C11        -1.2303  -13.5715  -52.3777 C.ar      23 UNK        -0.0193 
     12 C12        -2.2368  -14.3523  -51.7968 C.ar      23 UNK        -0.1150 
     13 C13        -2.1088  -14.8071  -50.4796 C.ar      23 UNK        -0.0193 
     14 C14        -0.9690  -14.4657  -49.7475 C.ar      23 UNK        -0.1150 
     15 C15        -3.2142  -15.6290  -49.8291 C.3       23 UNK        -0.0205 
     16 S16        -2.9920  -17.4280  -50.0486 S.3       23 UNK        -0.2404 
     17 C17        -1.6519  -17.8192  -48.8631 C.3       23 UNK        -0.0398 
     18 CA         -2.0470  -18.4874  -47.5173 C.3       11 UNK         0.1400 
     19 N          -2.6467  -17.5901  -46.5165 N.am      11 UNK        -0.5000 
     20 C          -3.8694  -17.0466  -46.4365 C.2       10 UNK         0.5000 
     21 O          -4.7590  -17.2260  -47.2654 O.2       10 UNK        -0.5000 
     22 CA         -4.1784  -16.2150  -45.1792 C.3       10 UNK         0.1400 
     23 CB         -4.8144  -17.1125  -44.1057 C.3       10 UNK        -0.1800 
     24 N          -2.9766  -15.5947  -44.6192 N.am      10 UNK        -0.5000 
     25 C          -2.6564  -14.2984  -44.7367 C.2       9 UNK         0.5000 
     26 O          -3.3670  -13.4653  -45.3002 O.2       9 UNK        -0.5000 
     27 CA         -1.3103  -13.8502  -44.1273 C.3       9 UNK         0.1400 
     28 CB         -1.5062  -13.3693  -42.6817 C.3       9 UNK        -0.1800 
     29 N          -0.2894  -14.8977  -44.1414 N.am      9 UNK        -0.5000 
     30 C           0.2327  -15.4395  -45.2492 C.2       8 UNK         0.5000 
     31 O          -0.0231  -15.0491  -46.3859 O.2       8 UNK        -0.5000 
     32 CA          1.1640  -16.6502  -45.0677 C.3       8 UNK         0.1400 
     33 CB          2.6329  -16.2077  -45.1295 C.3       8 UNK        -0.1800 
     34 N           0.9378  -17.4056  -43.8321 N.am      8 UNK        -0.5000 
     35 C          -0.2010  -18.0207  -43.4814 C.2       7 UNK         0.5000 
     36 O          -1.2335  -17.9723  -44.1476 O.2       7 UNK        -0.5000 
     37 CA         -0.1950  -18.7862  -42.1494 C.3       7 UNK         0.1400 
     38 CB          0.4123  -20.1869  -42.3222 C.3       7 UNK        -0.1800 
     39 N           0.5372  -18.0554  -41.1177 N.am      7 UNK        -0.5000 
     40 C           0.0530  -16.9935  -40.4584 C.2       6 UNK         0.5000 
     41 O          -1.0900  -16.5599  -40.6032 O.2       6 UNK        -0.5000 
     42 CA          1.0187  -16.2827  -39.4921 C.3       6 UNK         0.1400 
     43 CB          0.9641  -16.9303  -38.1002 C.3       6 UNK        -0.1800 
     44 N           2.4016  -16.2890  -39.9724 N.am      6 UNK        -0.5000 
     45 C           2.8367  -15.6043  -41.0396 C.2       5 UNK         0.5000 
     46 O           2.1246  -14.8577  -41.7116 O.2       5 UNK        -0.5000 
     47 CA          4.3079  -15.8240  -41.4431 C.3       5 UNK         0.1400 
     48 CB          5.2229  -14.8438  -40.6939 C.3       5 UNK        -0.1800 
     49 N           4.7834  -17.1950  -41.2238 N.am      5 UNK        -0.5000 
     50 C           4.2835  -18.2815  -41.8262 C.2       4 UNK         0.5000 
     51 O           3.3174  -18.2576  -42.5917 O.2       4 UNK        -0.5000 
     52 CA          4.9357  -19.6247  -41.4855 C.3       4 UNK         0.1400 
     53 CB          4.2757  -20.2480  -40.2446 C.3       4 UNK        -0.1800 
     54 N           4.7685  -20.5209  -42.6246 N.am      4 UNK        -0.5000 
     55 C           5.6785  -21.3978  -43.0612 C.2       3 UNK         0.5000 
     56 O           6.7571  -21.5923  -42.4982 O.2       3 UNK        -0.5000 
     57 CA          5.3423  -22.2085  -44.3319 C.3       3 UNK         0.1400 
     58 CB          5.0089  -23.6629  -43.9624 C.3       3 UNK        -0.1800 
     59 N           4.2456  -21.6750  -45.1478 N.am      3 UNK        -0.5000 
     60 C           4.2758  -20.5263  -45.8353 C.2       2 UNK         0.5000 
     61 O           5.2177  -19.7295  -45.7977 O.2       2 UNK        -0.5000 
     62 CA          3.0485  -20.2248  -46.7135 C.3       2 UNK         0.1400 
     63 CB          1.7365  -20.2481  -45.9078 C.3       2 UNK        -0.1800 
     64 N           3.2481  -18.9267  -47.3457 N.am      2 UNK        -0.5000 
     65 C           2.6814  -18.4892  -48.4763 C.2       1 UNK         0.5000 
     66 O           1.7747  -19.0887  -49.0538 O.2       1 UNK        -0.5000 
     67 C          -2.7274  -19.8635  -47.6872 C.2       11 UNK         0.5000 
     68 O          -2.0673  -20.7922  -48.1528 O.2       11 UNK        -0.5000 
     69 N          -3.9915  -19.9991  -47.2630 N.am      12 UNK        -0.5000 
     70 CA         -4.8678  -21.1709  -47.3616 C.3       12 UNK         0.1400 
     71 CB         -6.1562  -20.8851  -46.5770 C.3       12 UNK        -0.1800 
     72 C          -4.2580  -22.5139  -46.9148 C.2       12 UNK         0.5000 
     73 O          -4.6175  -23.5486  -47.4769 O.2       12 UNK        -0.5000 
     74 N          -3.3375  -22.4754  -45.9425 N.am      13 UNK        -0.5000 
     75 CA         -2.5930  -23.6351  -45.4480 C.3       13 UNK         0.1400 
     76 CB         -1.7843  -23.2165  -44.2109 C.3       13 UNK        -0.1800 
     77 C          -1.6612  -24.2636  -46.5042 C.2       13 UNK         0.5000 
     78 O          -1.5055  -25.4849  -46.5212 O.2       13 UNK        -0.5000 
     79 N          -1.0689  -23.4231  -47.3625 N.am      14 UNK        -0.5000 
     80 CA         -0.1961  -23.8321  -48.4644 C.3       14 UNK         0.1400 
     81 CB          0.9954  -22.8665  -48.5385 C.3       14 UNK        -0.1800 
     82 C          -0.9558  -23.8565  -49.8014 C.2       14 UNK         0.5000 
     83 O          -0.6681  -24.6975  -50.6525 O.2       14 UNK        -0.5000 
     84 N          -1.9304  -22.9511  -49.9506 N.am      15 UNK        -0.5000 
     85 CA         -2.7721  -22.7685  -51.1322 C.3       15 UNK         0.1400 
     86 CB         -3.2942  -21.3242  -51.1267 C.3       15 UNK        -0.1800 
     87 C          -3.9306  -23.7811  -51.2557 C.2       15 UNK         0.5000 
     88 O          -4.7914  -23.5926  -52.1162 O.2       15 UNK        -0.5000 
     89 N          -3.9515  -24.8155  -50.4022 N.am      16 UNK        -0.5000 
     90 CA         -4.8939  -25.9401  -50.3872 C.3       16 UNK         0.1400 
     91 CB         -4.7057  -26.8152  -51.6445 C.3       16 UNK        -0.1800 
     92 C          -6.3507  -25.4797  -50.1900 C.2       16 UNK         0.5000 
     93 O          -7.1948  -25.6865  -51.0623 O.2       16 UNK        -0.5000 
     94 N          -6.5966  -24.8103  -49.0553 N.am      17 UNK        -0.5000 
     95 CA         -7.8619  -24.1772  -48.6615 C.3       17 UNK         0.1400 
     96 CB         -8.9939  -25.2156  -48.5111 C.3       17 UNK        -0.1800 
     97 C          -8.2357  -22.9931  -49.5783 C.2       17 UNK         0.5000 
     98 O          -9.4173  -22.7331  -49.8085 O.2       17 UNK        -0.5000 
     99 N          -7.1995  -22.3034  -50.0792 N.am      18 UNK        -0.5000 
    100 CA        -7.2394  -21.1555  -50.9911 C.3       18 UNK         0.1400 
    101 CB        -7.9750  -19.9582  -50.3537 C.3       18 UNK        -0.1800 
    102 C         -7.7481  -21.5015  -52.4073 C.2       18 UNK         0.5000 
    103 O         -8.1926  -20.6094  -53.1307 O.2       18 UNK        -0.5000 
    104 N         -7.6359  -22.7773  -52.8043 N.am      19 UNK        -0.5000 
    105 CA        -7.9092  -23.2484  -54.1634 C.3       19 UNK         0.1400 
    106 CB        -8.0045  -24.7809  -54.1588 C.3       19 UNK        -0.1800 
    107 C         -6.8379  -22.7786  -55.1662 C.2       19 UNK         0.5000 
    108 O         -7.1649  -22.4928  -56.3184 O.2       19 UNK        -0.5000 
    109 N         -5.5884  -22.6843  -54.6970 N.am      20 UNK        -0.5000 
    110 CA        -4.4250  -22.1970  -55.4323 C.3       20 UNK         0.1400 
    111 CB        -3.3877  -23.3313  -55.5209 C.3       20 UNK        -0.1800 
    112 C         -3.8713  -20.9378  -54.7403 C.2       20 UNK         0.5000 
    113 O         -2.6644  -20.8382  -54.5046 O.2       20 UNK        -0.5000 
    114 N         -4.7725  -20.0087  -54.3825 N.am      21 UNK        -0.5000 
    115 CA        -4.4634  -18.7397  -53.7166 C.3       21 UNK         0.1400 
    116 CB        -5.7598  -17.9511  -53.4840 C.3       21 UNK        -0.1800 
    117 C         -3.4508  -17.8985  -54.5123 C.2       21 UNK         0.5000 
    118 O         -3.6143  -17.7346  -55.7237 O.2       21 UNK        -0.5000 
    119 N         -2.4220  -17.4051  -53.8138 N.am      22 UNK        -0.5000 
    120 CA        -1.2566  -16.7058  -54.3805 C.3       22 UNK         0.1400 
    121 C         -0.2468  -17.6288  -55.1358 C.2       22 UNK         0.5000 
    122 N         -0.4151  -18.9470  -55.1522 N.am      22 UNK        -0.7600 
    123 O          0.7339  -17.1485  -55.6966 O.2       22 UNK        -0.5000 
    124 C124       -1.6620  -15.4464  -55.2029 C.3       23 UNK        -0.0398 
    125 S125       -0.5071  -14.0480  -55.0126 S.3       23 UNK        -0.2404 
    126 C126       -1.3823  -13.0246  -53.7889 C.3       23 UNK        -0.0205 
    127 H127        7.1920  -17.2086  -47.0054 H         1 UNK         0.0600 
    128 H128        6.3654  -15.6511  -47.0990 H         1 UNK         0.0600 
    129 H129        7.5295  -16.1074  -48.3462 H         1 UNK         0.0600 
    130 H130        4.2568  -15.8581  -47.7801 H         1 UNK         0.3000 
    131 H131        3.5197  -17.4058  -50.0997 H         1 UNK         0.0600 
    132 H132        1.6994  -15.8742  -48.1871 H         1 UNK         0.0800 
    133 H133        1.2635  -16.4794  -49.7665 H         1 UNK         0.0800 
    134 H134        1.6374  -12.3869  -49.7538 H         1 UNK         0.0800 
    135 H135        1.1205  -13.4420  -48.4634 H         1 UNK         0.0800 
    136 H136        0.7078  -12.6846  -52.0931 H         1 UNK         0.1150 
    137 H137       -3.1244  -14.5949  -52.3639 H         1 UNK         0.1150 
    138 H138       -0.8767  -14.7793  -48.7198 H         1 UNK         0.1150 
    139 H139       -3.2761  -15.3921  -48.7668 H         1 UNK         0.0800 
    140 H140       -4.1782  -15.3465  -50.2543 H         1 UNK         0.0800 
    141 H141       -1.0709  -16.9276  -48.6482 H         1 UNK         0.0800 
    142 H142       -0.9575  -18.4756  -49.3907 H         1 UNK         0.0800 
    143 H143       -1.0966  -18.7420  -47.0472 H         1 UNK         0.0600 
    144 H144       -2.0624  -17.4744  -45.6933 H         1 UNK         0.3000 
    145 H145       -4.9083  -15.4527  -45.4594 H         1 UNK         0.0600 
    146 H146       -5.0931  -16.5338  -43.2249 H         1 UNK         0.0600 
    147 H147       -5.7207  -17.5904  -44.4804 H         1 UNK         0.0600 
    148 H148       -4.1341  -17.9028  -43.7850 H         1 UNK         0.0600 
    149 H149       -2.3222  -16.2170  -44.1597 H         1 UNK         0.3000 
    150 H150       -0.9400  -13.0125  -44.7218 H         1 UNK         0.0600 
    151 H151       -2.2356  -12.5598  -42.6341 H         1 UNK         0.0600 
    152 H152       -0.5734  -12.9924  -42.2614 H         1 UNK         0.0600 
    153 H153       -1.8634  -14.1729  -42.0362 H         1 UNK         0.0600 
    154 H154        0.0112  -15.2580  -43.2461 H         1 UNK         0.3000 
    155 H155        0.9757  -17.3263  -45.9035 H         1 UNK         0.0600 
    156 H156        2.8781  -15.5360  -44.3078 H         1 UNK         0.0600 
    157 H157        2.8447  -15.6736  -46.0552 H         1 UNK         0.0600 
    158 H158        3.3090  -17.0612  -45.0804 H         1 UNK         0.0600 
    159 H159        1.7571  -17.5495  -43.2463 H         1 UNK         0.3000 
    160 H160       -1.2324  -18.9063  -41.8295 H         1 UNK         0.0600 
    161 H161        0.3410  -20.7622  -41.3992 H         1 UNK         0.0600 
    162 H162        1.4626  -20.1473  -42.6092 H         1 UNK         0.0600 
    163 H163       -0.1164  -20.7454  -43.0943 H         1 UNK         0.0600 
    164 H164        1.5029  -18.3132  -40.9778 H         1 UNK         0.3000 
    165 H165        0.6931  -15.2443  -39.4000 H         1 UNK         0.0600 
    166 H166        1.5902  -16.3907  -37.3894 H         1 UNK         0.0600 
    167 H167       -0.0531  -16.9231  -37.7064 H         1 UNK         0.0600 
    168 H168        1.2997  -17.9680  -38.1240 H         1 UNK         0.0600 
    169 H169        3.0575  -16.8728  -39.4749 H         1 UNK         0.3000 
    170 H170        4.3921  -15.6136  -42.5105 H         1 UNK         0.0600 
    171 H171        4.9067  -13.8125  -40.8565 H         1 UNK         0.0600 
    172 H172        5.2132  -15.0246  -39.6183 H         1 UNK         0.0600 
    173 H173        6.2538  -14.9237  -41.0392 H         1 UNK         0.0600 
    174 H174        5.5673  -17.3009  -40.5958 H         1 UNK         0.3000 
    175 H175        5.9964  -19.4524  -41.2908 H         1 UNK         0.0600 
    176 H176        3.2108  -20.4258  -40.4013 H         1 UNK         0.0600 
    177 H177        4.7388  -21.2019  -39.9916 H         1 UNK         0.0600 
    178 H178        4.3778  -19.5974  -39.3753 H         1 UNK         0.0600 
    179 H179        3.9376  -20.3547  -43.1756 H         1 UNK         0.3000 
    180 H180        6.2419  -22.2141  -44.9510 H         1 UNK         0.0600 
    181 H181        4.1019  -23.7258  -43.3598 H         1 UNK         0.0600 
    182 H182        5.8167  -24.1173  -43.3872 H         1 UNK         0.0600 
    183 H183        4.8651  -24.2746  -44.8533 H         1 UNK         0.0600 
    184 H184        3.4311  -22.2660  -45.2255 H         1 UNK         0.3000 
    185 H185        3.0112  -20.9836  -47.4965 H         1 UNK         0.0600 
    186 H186        1.4991  -21.2542  -45.5615 H         1 UNK         0.0600 
    187 H187        1.8100  -19.6108  -45.0298 H         1 UNK         0.0600 
    188 H188        0.8907  -19.9116  -46.5054 H         1 UNK         0.0600 
    189 H189        4.0362  -18.4148  -46.9681 H         1 UNK         0.3000 
    190 H190       -4.4448  -19.1394  -46.9737 H         1 UNK         0.3000 
    191 H191       -5.1396  -21.2771  -48.4104 H         1 UNK         0.0600 
    192 H192       -6.8540  -21.7201  -46.6422 H         1 UNK         0.0600 
    193 H193       -6.6686  -20.0055  -46.9674 H         1 UNK         0.0600 
    194 H194       -5.9508  -20.7102  -45.5201 H         1 UNK         0.0600 
    195 H195       -3.1056  -21.5792  -45.5409 H         1 UNK         0.3000 
    196 H196       -3.3164  -24.3956  -45.1465 H         1 UNK         0.0600 
    197 H197       -1.2520  -24.0683  -43.7855 H         1 UNK         0.0600 
    198 H198       -2.4309  -22.8152  -43.4303 H         1 UNK         0.0600 
    199 H199       -1.0421  -22.4572  -44.4588 H         1 UNK         0.0600 
    200 H200       -1.3038  -22.4374  -47.3190 H         1 UNK         0.3000 
    201 H201        0.1957  -24.8358  -48.2865 H         1 UNK         0.0600 
    202 H202        1.5880  -22.9168  -47.6257 H         1 UNK         0.0600 
    203 H203        0.6728  -21.8330  -48.6758 H         1 UNK         0.0600 
    204 H204        1.6557  -23.1190  -49.3690 H         1 UNK         0.0600 
    205 H205       -2.0537  -22.2598  -49.2149 H         1 UNK         0.3000 
    206 H206       -2.1543  -22.8958  -52.0235 H         1 UNK         0.0600 
    207 H207       -2.4763  -20.6087  -51.2142 H         1 UNK         0.0600 
    208 H208       -3.9712  -21.1472  -51.9571 H         1 UNK         0.0600 
    209 H209       -3.8428  -21.0939  -50.2176 H         1 UNK         0.0600 
    210 H210       -3.2253  -24.8450  -49.7014 H         1 UNK         0.3000 
    211 H211       -4.6393  -26.5507  -49.5197 H         1 UNK         0.0600 
    212 H212       -3.6764  -27.1631  -51.7307 H         1 UNK         0.0600 
    213 H213       -4.9533  -26.2752  -52.5592 H         1 UNK         0.0600 
    214 H214       -5.3451  -27.6977  -51.6039 H         1 UNK         0.0600 
    215 H215       -5.8134  -24.6224  -48.4318 H         1 UNK         0.3000 
    216 H216       -7.6860  -23.7490  -47.6744 H         1 UNK         0.0600 
    217 H217       -9.8772  -24.7648  -48.0575 H         1 UNK         0.0600 
    218 H218       -8.6880  -26.0426  -47.8706 H         1 UNK         0.0600 
    219 H219       -9.2995  -25.6295  -49.4723 H         1 UNK         0.0600 
    220 H220       -6.2790  -22.6565  -49.8642 H         1 UNK         0.3000 
    221 H221       -6.2024  -20.8502  -51.1270 H         1 UNK         0.0600 
    222 H222       -9.0438  -20.1453  -50.2495 H         1 UNK         0.0600 
    223 H223       -7.5748  -19.7305  -49.3659 H         1 UNK         0.0600 
    224 H224       -7.8629  -19.0589  -50.9596 H         1 UNK         0.0600 
    225 H225       -7.2353  -23.4533  -52.1664 H         1 UNK         0.3000 
    226 H226       -8.8724  -22.8453  -54.4829 H         1 UNK         0.0600 
    227 H227       -8.2418  -25.1613  -55.1531 H         1 UNK         0.0600 
    228 H228       -7.0658  -25.2402  -53.8456 H         1 UNK         0.0600 
    229 H229       -8.7866  -25.1254  -53.4820 H         1 UNK         0.0600 
    230 H230       -5.4128  -22.9549  -53.7306 H         1 UNK         0.3000 
    231 H231       -4.7007  -21.9056  -56.4475 H         1 UNK         0.0600 
    232 H232       -3.8047  -24.2062  -56.0197 H         1 UNK         0.0600 
    233 H233       -3.0469  -23.6416  -54.5323 H         1 UNK         0.0600 
    234 H234       -2.5116  -23.0196  -56.0908 H         1 UNK         0.0600 
    235 H235       -5.7413  -20.1673  -54.6189 H         1 UNK         0.3000 
    236 H236       -4.0319  -18.9708  -52.7418 H         1 UNK         0.0600 
    237 H237       -6.4505  -18.5058  -52.8510 H         1 UNK         0.0600 
    238 H238       -5.5554  -17.0030  -52.9845 H         1 UNK         0.0600 
    239 H239       -6.2688  -17.7271  -54.4222 H         1 UNK         0.0600 
    240 H240       -2.3705  -17.5922  -52.8221 H         1 UNK         0.3000 
    241 H241       -0.7083  -16.3671  -53.5007 H         1 UNK         0.0600 
    242 H242       -1.2254  -19.3915  -54.7354 H         1 UNK         0.3800 
    243 H243        0.2600  -19.5169  -55.6360 H         1 UNK         0.3800 
    244 H244       -1.7504  -15.6860  -56.2639 H         1 UNK         0.0800 
    245 H245       -2.6539  -15.1023  -54.9085 H         1 UNK         0.0800 
    246 H246       -2.4355  -12.9301  -54.0576 H         1 UNK         0.0800 
    247 H247       -0.9741  -12.0135  -53.8278 H         1 UNK         0.0800 
@<TRIPOS>BOND
     1    1    2 1    
     2    1  127 1    
     3    1  128 1    
     4    1  129 1    
     5    2    3 2    
     6    2    4 am   BACKBONE|DICT|INTERRES
     7    4    5 1    
     8    4  130 1    
     9    5    6 1    
    10    5   65 1    
    11    5  131 1    
    12    6    7 1    
    13    6  132 1    
    14    6  133 1    
    15    7    8 1    
    16    8    9 1    
    17    8  134 1    
    18    8  135 1    
    19    9   10 ar   
    20    9   14 ar   
    21   10   11 ar   
    22   10  136 1    
    23   11   12 ar   
    24   11  126 1    
    25   12   13 ar   
    26   12  137 1    
    27   13   14 ar   
    28   13   15 1    
    29   14  138 1    
    30   15   16 1    
    31   15  139 1    
    32   15  140 1    
    33   16   17 1    
    34   17   18 1    
    35   17  141 1    
    36   17  142 1    
    37   18   19 1    
    38   18   67 1    
    39   18  143 1    
    40   19   20 am   BACKBONE|DICT|INTERRES
    41   19  144 1    
    42   20   21 2    
    43   20   22 1    
    44   22   23 1    
    45   22   24 1    
    46   22  145 1    
    47   23  146 1    
    48   23  147 1    
    49   23  148 1    
    50   24   25 am   BACKBONE|DICT|INTERRES
    51   24  149 1    
    52   25   26 2    
    53   25   27 1    
    54   27   28 1    
    55   27   29 1    
    56   27  150 1    
    57   28  151 1    
    58   28  152 1    
    59   28  153 1    
    60   29   30 am   BACKBONE|DICT|INTERRES
    61   29  154 1    
    62   30   31 2    
    63   30   32 1    
    64   32   33 1    
    65   32   34 1    
    66   32  155 1    
    67   33  156 1    
    68   33  157 1    
    69   33  158 1    
    70   34   35 am   BACKBONE|DICT|INTERRES
    71   34  159 1    
    72   35   36 2    
    73   35   37 1    
    74   37   38 1    
    75   37   39 1    
    76   37  160 1    
    77   38  161 1    
    78   38  162 1    
    79   38  163 1    
    80   39   40 am   BACKBONE|DICT|INTERRES
    81   39  164 1    
    82   40   41 2    
    83   40   42 1    
    84   42   43 1    
    85   42   44 1    
    86   42  165 1    
    87   43  166 1    
    88   43  167 1    
    89   43  168 1    
    90   44   45 am   BACKBONE|DICT|INTERRES
    91   44  169 1    
    92   45   46 2    
    93   45   47 1    
    94   47   48 1    
    95   47   49 1    
    96   47  170 1    
    97   48  171 1    
    98   48  172 1    
    99   48  173 1    
   100   49   50 am   BACKBONE|DICT|INTERRES
   101   49  174 1    
   102   50   51 2    
   103   50   52 1    
   104   52   53 1    
   105   52   54 1    
   106   52  175 1    
   107   53  176 1    
   108   53  177 1    
   109   53  178 1    
   110   54   55 am   BACKBONE|DICT|INTERRES
   111   54  179 1    
   112   55   56 2    
   113   55   57 1    
   114   57   58 1    
   115   57   59 1    
   116   57  180 1    
   117   58  181 1    
   118   58  182 1    
   119   58  183 1    
   120   59   60 am   BACKBONE|DICT|INTERRES
   121   59  184 1    
   122   60   61 2    
   123   60   62 1    
   124   62   63 1    
   125   62   64 1    
   126   62  185 1    
   127   63  186 1    
   128   63  187 1    
   129   63  188 1    
   130   64   65 am   BACKBONE|DICT|INTERRES
   131   64  189 1    
   132   65   66 2    
   133   67   68 2    
   134   67   69 am   BACKBONE|DICT|INTERRES
   135   69   70 1    
   136   69  190 1    
   137   70   71 1    
   138   70   72 1    
   139   70  191 1    
   140   71  192 1    
   141   71  193 1    
   142   71  194 1    
   143   72   73 2    
   144   72   74 am   BACKBONE|DICT|INTERRES
   145   74   75 1    
   146   74  195 1    
   147   75   76 1    
   148   75   77 1    
   149   75  196 1    
   150   76  197 1    
   151   76  198 1    
   152   76  199 1    
   153   77   78 2    
   154   77   79 am   BACKBONE|DICT|INTERRES
   155   79   80 1    
   156   79  200 1    
   157   80   81 1    
   158   80   82 1    
   159   80  201 1    
   160   81  202 1    
   161   81  203 1    
   162   81  204 1    
   163   82   83 2    
   164   82   84 am   BACKBONE|DICT|INTERRES
   165   84   85 1    
   166   84  205 1    
   167   85   86 1    
   168   85   87 1    
   169   85  206 1    
   170   86  207 1    
   171   86  208 1    
   172   86  209 1    
   173   87   88 2    
   174   87   89 am   BACKBONE|DICT|INTERRES
   175   89   90 1    
   176   89  210 1    
   177   90   91 1    
   178   90   92 1    
   179   90  211 1    
   180   91  212 1    
   181   91  213 1    
   182   91  214 1    
   183   92   93 2    
   184   92   94 am   BACKBONE|DICT|INTERRES
   185   94   95 1    
   186   94  215 1    
   187   95   96 1    
   188   95   97 1    
   189   95  216 1    
   190   96  217 1    
   191   96  218 1    
   192   96  219 1    
   193   97   98 2    
   194   97   99 am   BACKBONE|DICT|INTERRES
   195   99  100 1    
   196   99  220 1    
   197  100  101 1    
   198  100  102 1    
   199  100  221 1    
   200  101  222 1    
   201  101  223 1    
   202  101  224 1    
   203  102  103 2    
   204  102  104 am   BACKBONE|DICT|INTERRES
   205  104  105 1    
   206  104  225 1    
   207  105  106 1    
   208  105  107 1    
   209  105  226 1    
   210  106  227 1    
   211  106  228 1    
   212  106  229 1    
   213  107  108 2    
   214  107  109 am   BACKBONE|DICT|INTERRES
   215  109  110 1    
   216  109  230 1    
   217  110  111 1    
   218  110  112 1    
   219  110  231 1    
   220  111  232 1    
   221  111  233 1    
   222  111  234 1    
   223  112  113 2    
   224  112  114 am   BACKBONE|DICT|INTERRES
   225  114  115 1    
   226  114  235 1    
   227  115  116 1    
   228  115  117 1    
   229  115  236 1    
   230  116  237 1    
   231  116  238 1    
   232  116  239 1    
   233  117  118 2    
   234  117  119 am   BACKBONE|DICT|INTERRES
   235  119  120 1    
   236  119  240 1    
   237  120  121 1    
   238  120  124 1    
   239  120  241 1    
   240  121  122 am   BACKBONE|DICT|INTERRES
   241  121  123 2    
   242  122  242 1    
   243  122  243 1    
   244  124  125 1    
   245  124  244 1    
   246  124  245 1    
   247  125  126 1    
   248  126  246 1    
   249  126  247 1    
@<TRIPOS>SUBSTRUCTURE
     1 UNK         1 GROUP             0       ****    0 ROOT    
