@<TRIPOS>MOLECULE
3R540
247   249    1
SMALL
USER_CHARGES


@<TRIPOS>ATOM
      1 CA         -3.1740  -12.0192  -44.0372 C.3       0 UNK        -0.1800 
      2 C          -2.6442  -11.4558  -45.3482 C.2       0 UNK         0.5000 
      3 O          -2.6205  -10.2386  -45.5303 O.2       0 UNK        -0.5000 
      4 N          -2.2136  -12.3371  -46.2591 N.am      1 UNK        -0.5000 
      5 CA         -1.6139  -11.9985  -47.5576 C.3       1 UNK         0.1400 
      6 C6         -1.6129  -13.2138  -48.5225 C.3       23 UNK        -0.0398 
      7 S7         -0.8367  -14.7122  -47.8172 S.3       23 UNK        -0.2404 
      8 C8          0.8404  -14.6471  -48.5203 C.3       23 UNK        -0.0205 
      9 C9          0.9727  -15.5932  -49.6999 C.ar      23 UNK        -0.0193 
     10 C10         0.5406  -15.2043  -50.9716 C.ar      23 UNK        -0.1150 
     11 C11         0.6308  -16.0896  -52.0491 C.ar      23 UNK        -0.0193 
     12 C12         1.1725  -17.3621  -51.8523 C.ar      23 UNK        -0.1150 
     13 C13         1.6118  -17.7584  -50.5873 C.ar      23 UNK        -0.0193 
     14 C14         1.5134  -16.8689  -49.5141 C.ar      23 UNK        -0.1150 
     15 C15         2.1702  -19.1565  -50.3839 C.3       23 UNK        -0.0205 
     16 S16         0.8363  -20.3547  -50.0794 S.3       23 UNK        -0.2404 
     17 C17         0.3790  -19.9431  -48.3615 C.3       23 UNK        -0.0398 
     18 CA         -0.2998  -21.1374  -47.6480 C.3       11 UNK         0.1400 
     19 N           0.0442  -21.1959  -46.2254 N.am      11 UNK        -0.5000 
     20 C          -0.0052  -22.3141  -45.4891 C.2       10 UNK         0.5000 
     21 O          -0.2975  -23.4193  -45.9444 O.2       10 UNK        -0.5000 
     22 CA          0.3092  -22.1811  -43.9872 C.3       10 UNK         0.1400 
     23 CB          1.8180  -22.3209  -43.7367 C.3       10 UNK        -0.1800 
     24 N          -0.1753  -20.9299  -43.4008 N.am      10 UNK        -0.5000 
     25 C          -1.4690  -20.5884  -43.3156 C.2       9 UNK         0.5000 
     26 O          -2.3891  -21.3022  -43.7113 O.2       9 UNK        -0.5000 
     27 CA         -1.7925  -19.2019  -42.7331 C.3       9 UNK         0.1400 
     28 CB         -1.7366  -19.2315  -41.1987 C.3       9 UNK        -0.1800 
     29 N          -0.9120  -18.1500  -43.2416 N.am      9 UNK        -0.5000 
     30 C          -0.8216  -17.7852  -44.5290 C.2       8 UNK         0.5000 
     31 O          -1.4903  -18.2874  -45.4321 O.2       8 UNK        -0.5000 
     32 CA          0.2438  -16.7286  -44.8728 C.3       8 UNK         0.1400 
     33 CB         -0.1944  -15.3268  -44.4190 C.3       8 UNK        -0.1800 
     34 N           1.5459  -17.0483  -44.2908 N.am      8 UNK        -0.5000 
     35 C           2.2468  -18.1611  -44.5511 C.2       7 UNK         0.5000 
     36 O           1.9026  -19.0163  -45.3669 O.2       7 UNK        -0.5000 
     37 CA          3.5197  -18.3781  -43.7178 C.3       7 UNK         0.1400 
     38 CB          4.7027  -17.5977  -44.3101 C.3       7 UNK        -0.1800 
     39 N           3.3218  -17.9975  -42.3184 N.am      7 UNK        -0.5000 
     40 C           2.5539  -18.6765  -41.4540 C.2       6 UNK         0.5000 
     41 O           1.9550  -19.7128  -41.7398 O.2       6 UNK        -0.5000 
     42 CA          2.3977  -18.0750  -40.0455 C.3       6 UNK         0.1400 
     43 CB          3.6093  -18.4228  -39.1680 C.3       6 UNK        -0.1800 
     44 N           2.2159  -16.6233  -40.0715 N.am      6 UNK        -0.5000 
     45 C           1.1425  -16.0063  -40.5848 C.2       5 UNK         0.5000 
     46 O           0.1743  -16.6005  -41.0562 O.2       5 UNK        -0.5000 
     47 CA          1.1727  -14.4673  -40.6182 C.3       5 UNK         0.1400 
     48 CB          0.6151  -13.8881  -39.3100 C.3       5 UNK        -0.1800 
     49 N           2.4989  -13.8989  -40.8712 N.am      5 UNK        -0.5000 
     50 C           3.2605  -14.1476  -41.9442 C.2       4 UNK         0.5000 
     51 O           2.9567  -14.9513  -42.8276 O.2       4 UNK        -0.5000 
     52 CA          4.5545  -13.3208  -42.0597 C.3       4 UNK         0.1400 
     53 CB          5.5853  -13.9760  -42.9957 C.3       4 UNK        -0.1800 
     54 N           4.2384  -11.9887  -42.5655 N.am      4 UNK        -0.5000 
     55 C           3.6737  -11.0002  -41.8580 C.2       3 UNK         0.5000 
     56 O           3.4970  -11.0479  -40.6396 O.2       3 UNK        -0.5000 
     57 CA          3.1982   -9.7664  -42.6515 C.3       3 UNK         0.1400 
     58 CB          4.2534   -8.6512  -42.5974 C.3       3 UNK        -0.1800 
     59 N           2.8887  -10.0679  -44.0539 N.am      3 UNK        -0.5000 
     60 C           1.8691  -10.8356  -44.4620 C.2       2 UNK         0.5000 
     61 O           1.0384  -11.3422  -43.7023 O.2       2 UNK        -0.5000 
     62 CA          1.7957  -11.1115  -45.9693 C.3       2 UNK         0.1400 
     63 CB          2.8349  -12.1690  -46.3842 C.3       2 UNK        -0.1800 
     64 N           0.4618  -11.5976  -46.2933 N.am      2 UNK        -0.5000 
     65 C          -0.2001  -11.3831  -47.4352 C.2       1 UNK         0.5000 
     66 O           0.2632  -10.7428  -48.3802 O.2       1 UNK        -0.5000 
     67 C          -1.8270  -21.1515  -47.8770 C.2       11 UNK         0.5000 
     68 O          -2.2811  -21.7132  -48.8719 O.2       11 UNK        -0.5000 
     69 N          -2.5977  -20.5476  -46.9598 N.am      12 UNK        -0.5000 
     70 CA         -4.0629  -20.5600  -46.9759 C.3       12 UNK         0.1400 
     71 CB         -4.5933  -19.4950  -46.0048 C.3       12 UNK        -0.1800 
     72 C          -4.6514  -21.9442  -46.6392 C.2       12 UNK         0.5000 
     73 O          -5.6927  -22.3138  -47.1868 O.2       12 UNK        -0.5000 
     74 N          -3.9703  -22.6856  -45.7555 N.am      13 UNK        -0.5000 
     75 CA         -4.2898  -24.0583  -45.3666 C.3       13 UNK         0.1400 
     76 CB         -3.3537  -24.4828  -44.2233 C.3       13 UNK        -0.1800 
     77 C          -4.2093  -25.0585  -46.5377 C.2       13 UNK         0.5000 
     78 O          -3.6238  -24.7627  -47.5833 O.2       13 UNK        -0.5000 
     79 N          -4.8200  -26.2342  -46.3294 N.am      14 UNK        -0.5000 
     80 CA         -4.9483  -27.3362  -47.2913 C.3       14 UNK         0.1400 
     81 CB         -3.5737  -27.9781  -47.5784 C.3       14 UNK        -0.1800 
     82 C          -5.6935  -26.9097  -48.5731 C.2       14 UNK         0.5000 
     83 O          -5.2935  -27.2904  -49.6734 O.2       14 UNK        -0.5000 
     84 N          -6.7488  -26.0989  -48.3951 N.am      15 UNK        -0.5000 
     85 CA         -7.5844  -25.4919  -49.4357 C.3       15 UNK         0.1400 
     86 CB         -8.4269  -26.5694  -50.1512 C.3       15 UNK        -0.1800 
     87 C          -6.7549  -24.6327  -50.4103 C.2       15 UNK         0.5000 
     88 O          -6.7279  -24.9130  -51.6091 O.2       15 UNK        -0.5000 
     89 N          -6.0614  -23.6235  -49.8629 N.am      16 UNK        -0.5000 
     90 CA         -5.1627  -22.7019  -50.5660 C.3       16 UNK         0.1400 
     91 CB         -5.9559  -21.7928  -51.5277 C.3       16 UNK        -0.1800 
     92 C          -3.9908  -23.4343  -51.2510 C.2       16 UNK         0.5000 
     93 O          -3.7343  -23.2144  -52.4388 O.2       16 UNK        -0.5000 
     94 N          -3.3319  -24.3136  -50.4801 N.am      17 UNK        -0.5000 
     95 CA         -2.1983  -25.1582  -50.8600 C.3       17 UNK         0.1400 
     96 CB         -0.9369  -24.2985  -51.0844 C.3       17 UNK        -0.1800 
     97 C          -2.5290  -26.0837  -52.0481 C.2       17 UNK         0.5000 
     98 O          -1.8361  -26.0595  -53.0662 O.2       17 UNK        -0.5000 
     99 N          -3.6044  -26.8693  -51.8910 N.am      18 UNK        -0.5000 
    100 CA        -4.1820  -27.7931  -52.8711 C.3       18 UNK         0.1400 
    101 CB        -3.2146  -28.9566  -53.1745 C.3       18 UNK        -0.1800 
    102 C         -4.6855  -27.0648  -54.1333 C.2       18 UNK         0.5000 
    103 O         -4.3998  -27.4904  -55.2544 O.2       18 UNK        -0.5000 
    104 N         -5.4297  -25.9719  -53.9109 N.am      19 UNK        -0.5000 
    105 CA        -6.0362  -25.0856  -54.9059 C.3       19 UNK         0.1400 
    106 CB        -7.1520  -25.8177  -55.6806 C.3       19 UNK        -0.1800 
    107 C         -5.0084  -24.3945  -55.8252 C.2       19 UNK         0.5000 
    108 O         -5.2882  -24.1787  -57.0063 O.2       19 UNK        -0.5000 
    109 N         -3.8417  -24.0399  -55.2678 N.am      20 UNK        -0.5000 
    110 CA        -2.8280  -23.2296  -55.9417 C.3       20 UNK         0.1400 
    111 CB        -1.4873  -23.3393  -55.2007 C.3       20 UNK        -0.1800 
    112 C         -3.2878  -21.7666  -56.0409 C.2       20 UNK         0.5000 
    113 O         -3.2294  -21.1848  -57.1250 O.2       20 UNK        -0.5000 
    114 N         -3.7698  -21.2259  -54.9087 N.am      21 UNK        -0.5000 
    115 CA        -4.4729  -19.9436  -54.7559 C.3       21 UNK         0.1400 
    116 CB        -5.9349  -20.1122  -55.2162 C.3       21 UNK        -0.1800 
    117 C         -3.7777  -18.7284  -55.4134 C.2       21 UNK         0.5000 
    118 O         -4.4518  -17.8572  -55.9666 O.2       21 UNK        -0.5000 
    119 N         -2.4396  -18.7069  -55.3517 N.am      22 UNK        -0.5000 
    120 CA        -1.5520  -17.7045  -55.9731 C.3       22 UNK         0.1400 
    121 C         -1.5089  -17.7470  -57.5332 C.2       22 UNK         0.5000 
    122 N         -2.0123  -18.7845  -58.1914 N.am      22 UNK        -0.7600 
    123 O         -0.9773  -16.8379  -58.1653 O.2       22 UNK        -0.5000 
    124 C124       -1.7615  -16.2601  -55.4281 C.3       23 UNK        -0.0398 
    125 S125       -1.6247  -16.1676  -53.6114 S.3       23 UNK        -0.2404 
    126 C126        0.1199  -15.6920  -53.4221 C.3       23 UNK        -0.0205 
    127 H127       -3.1514  -13.1094  -44.0255 H         1 UNK         0.0600 
    128 H128       -4.2036  -11.6983  -43.8786 H         1 UNK         0.0600 
    129 H129       -2.5699  -11.6586  -43.2045 H         1 UNK         0.0600 
    130 H130       -2.2640  -13.3263  -46.0604 H         1 UNK         0.3000 
    131 H131       -2.2402  -11.2280  -48.0122 H         1 UNK         0.0600 
    132 H132       -2.6437  -13.4710  -48.7692 H         1 UNK         0.0800 
    133 H133       -1.1465  -12.9597  -49.4756 H         1 UNK         0.0800 
    134 H134        1.0972  -13.6325  -48.8259 H         1 UNK         0.0800 
    135 H135        1.5544  -14.9160  -47.7402 H         1 UNK         0.0800 
    136 H136        0.1135  -14.2227  -51.1190 H         1 UNK         0.1150 
    137 H137        1.2320  -18.0541  -52.6809 H         1 UNK         0.1150 
    138 H138        1.8409  -17.1760  -48.5305 H         1 UNK         0.1150 
    139 H139        2.7225  -19.4635  -51.2733 H         1 UNK         0.0800 
    140 H140        2.8873  -19.1724  -49.5616 H         1 UNK         0.0800 
    141 H141       -0.2419  -19.0449  -48.3437 H         1 UNK         0.0800 
    142 H142        1.2994  -19.6775  -47.8412 H         1 UNK         0.0800 
    143 H143        0.0878  -22.0560  -48.0951 H         1 UNK         0.0600 
    144 H144        0.3551  -20.3337  -45.7903 H         1 UNK         0.3000 
    145 H145       -0.1953  -23.0023  -43.4739 H         1 UNK         0.0600 
    146 H146        2.0416  -22.3274  -42.6699 H         1 UNK         0.0600 
    147 H147        2.1990  -23.2541  -44.1535 H         1 UNK         0.0600 
    148 H148        2.3784  -21.5045  -44.1924 H         1 UNK         0.0600 
    149 H149        0.5266  -20.3095  -43.0092 H         1 UNK         0.3000 
    150 H150       -2.8125  -18.9492  -43.0290 H         1 UNK         0.0600 
    151 H151       -2.3884  -20.0088  -40.7979 H         1 UNK         0.0600 
    152 H152       -2.0648  -18.2822  -40.7750 H         1 UNK         0.0600 
    153 H153       -0.7271  -19.4280  -40.8360 H         1 UNK         0.0600 
    154 H154       -0.3486  -17.6618  -42.5502 H         1 UNK         0.3000 
    155 H155        0.3627  -16.7195  -45.9577 H         1 UNK         0.0600 
    156 H156       -1.1638  -15.0649  -44.8428 H         1 UNK         0.0600 
    157 H157        0.5200  -14.5669  -44.7371 H         1 UNK         0.0600 
    158 H158       -0.2902  -15.2639  -43.3367 H         1 UNK         0.0600 
    159 H159        1.9357  -16.3745  -43.6375 H         1 UNK         0.3000 
    160 H160        3.7662  -19.4414  -43.7503 H         1 UNK         0.0600 
    161 H161        4.5081  -16.5257  -44.3398 H         1 UNK         0.0600 
    162 H162        4.9054  -17.9195  -45.3323 H         1 UNK         0.0600 
    163 H163        5.6126  -17.7587  -43.7318 H         1 UNK         0.0600 
    164 H164        3.7174  -17.1150  -42.0291 H         1 UNK         0.3000 
    165 H165        1.5095  -18.5195  -39.5913 H         1 UNK         0.0600 
    166 H166        3.4701  -18.0694  -38.1461 H         1 UNK         0.0600 
    167 H167        3.7582  -19.5024  -39.1198 H         1 UNK         0.0600 
    168 H168        4.5290  -17.9814  -39.5540 H         1 UNK         0.0600 
    169 H169        2.9676  -16.0576  -39.7059 H         1 UNK         0.3000 
    170 H170        0.5235  -14.1429  -41.4331 H         1 UNK         0.0600 
    171 H171       -0.3849  -14.2736  -39.1067 H         1 UNK         0.0600 
    172 H172        1.2454  -14.1412  -38.4566 H         1 UNK         0.0600 
    173 H173        0.5389  -12.8017  -39.3611 H         1 UNK         0.0600 
    174 H174        2.8022  -13.1676  -40.2404 H         1 UNK         0.3000 
    175 H175        5.0022  -13.2374  -41.0671 H         1 UNK         0.0600 
    176 H176        5.2130  -14.0559  -44.0180 H         1 UNK         0.0600 
    177 H177        6.5119  -13.4025  -43.0223 H         1 UNK         0.0600 
    178 H178        5.8360  -14.9818  -42.6567 H         1 UNK         0.0600 
    179 H179        4.3225  -11.8617  -43.5625 H         1 UNK         0.3000 
    180 H180        2.2871   -9.4003  -42.1735 H         1 UNK         0.0600 
    181 H181        5.1850   -8.9540  -43.0770 H         1 UNK         0.0600 
    182 H182        4.4869   -8.3846  -41.5656 H         1 UNK         0.0600 
    183 H183        3.8981   -7.7470  -43.0921 H         1 UNK         0.0600 
    184 H184        3.5207   -9.6855  -44.7429 H         1 UNK         0.3000 
    185 H185        1.9889  -10.1753  -46.4973 H         1 UNK         0.0600 
    186 H186        3.8486  -11.8415  -46.1515 H         1 UNK         0.0600 
    187 H187        2.6689  -13.1178  -45.8713 H         1 UNK         0.0600 
    188 H188        2.7977  -12.3576  -47.4570 H         1 UNK         0.0600 
    189 H189       -0.0088  -12.0674  -45.5308 H         1 UNK         0.3000 
    190 H190       -2.1547  -20.0343  -46.2047 H         1 UNK         0.3000 
    191 H191       -4.3948  -20.2940  -47.9815 H         1 UNK         0.0600 
    192 H192       -4.2332  -18.5018  -46.2740 H         1 UNK         0.0600 
    193 H193       -5.6833  -19.4616  -46.0191 H         1 UNK         0.0600 
    194 H194       -4.2839  -19.6960  -44.9789 H         1 UNK         0.0600 
    195 H195       -3.1570  -22.2727  -45.3125 H         1 UNK         0.3000 
    196 H196       -5.3158  -24.0605  -44.9937 H         1 UNK         0.0600 
    197 H197       -3.5877  -25.4872  -43.8692 H         1 UNK         0.0600 
    198 H198       -3.4451  -23.8126  -43.3685 H         1 UNK         0.0600 
    199 H199       -2.3105  -24.4829  -44.5387 H         1 UNK         0.0600 
    200 H200       -5.2699  -26.3872  -45.4373 H         1 UNK         0.3000 
    201 H201       -5.5720  -28.0941  -46.8154 H         1 UNK         0.0600 
    202 H202       -3.0785  -28.2771  -46.6547 H         1 UNK         0.0600 
    203 H203       -2.9084  -27.2971  -48.1094 H         1 UNK         0.0600 
    204 H204       -3.6811  -28.8729  -48.1925 H         1 UNK         0.0600 
    205 H205       -6.9725  -25.8298  -47.4476 H         1 UNK         0.3000 
    206 H206       -8.2745  -24.8136  -48.9318 H         1 UNK         0.0600 
    207 H207       -9.0304  -27.1336  -49.4403 H         1 UNK         0.0600 
    208 H208       -9.1107  -26.1148  -50.8689 H         1 UNK         0.0600 
    209 H209       -7.8047  -27.2781  -50.6987 H         1 UNK         0.0600 
    210 H210       -6.1128  -23.4779  -48.8599 H         1 UNK         0.3000 
    211 H211       -4.7227  -22.0606  -49.8034 H         1 UNK         0.0600 
    212 H212       -6.3637  -22.3472  -52.3735 H         1 UNK         0.0600 
    213 H213       -5.3152  -21.0081  -51.9273 H         1 UNK         0.0600 
    214 H214       -6.7840  -21.3034  -51.0154 H         1 UNK         0.0600 
    215 H215       -3.6134  -24.3984  -49.5064 H         1 UNK         0.3000 
    216 H216       -2.0026  -25.8091  -50.0068 H         1 UNK         0.0600 
    217 H217       -0.0699  -24.9236  -51.3002 H         1 UNK         0.0600 
    218 H218       -0.7008  -23.7106  -50.1972 H         1 UNK         0.0600 
    219 H219       -1.0584  -23.6066  -51.9174 H         1 UNK         0.0600 
    220 H220       -4.1248  -26.8162  -51.0170 H         1 UNK         0.3000 
    221 H221       -5.0663  -28.2209  -52.3964 H         1 UNK         0.0600 
    222 H222       -2.3202  -28.6181  -53.6982 H         1 UNK         0.0600 
    223 H223       -2.8989  -29.4548  -52.2578 H         1 UNK         0.0600 
    224 H224       -3.6949  -29.7076  -53.8026 H         1 UNK         0.0600 
    225 H225       -5.6301  -25.7083  -52.9488 H         1 UNK         0.3000 
    226 H226       -6.5085  -24.2825  -54.3384 H         1 UNK         0.0600 
    227 H227       -7.8711  -26.2716  -54.9986 H         1 UNK         0.0600 
    228 H228       -7.7044  -25.1264  -56.3181 H         1 UNK         0.0600 
    229 H229       -6.7522  -26.6046  -56.3207 H         1 UNK         0.0600 
    230 H230       -3.7037  -24.2060  -54.2766 H         1 UNK         0.3000 
    231 H231       -2.6874  -23.6135  -56.9544 H         1 UNK         0.0600 
    232 H232       -1.5623  -22.9864  -54.1722 H         1 UNK         0.0600 
    233 H233       -0.7176  -22.7469  -55.6967 H         1 UNK         0.0600 
    234 H234       -1.1371  -24.3712  -55.1742 H         1 UNK         0.0600 
    235 H235       -3.7418  -21.8068  -54.0770 H         1 UNK         0.3000 
    236 H236       -4.4852  -19.7261  -53.6880 H         1 UNK         0.0600 
    237 H237       -6.4172  -20.9419  -54.6992 H         1 UNK         0.0600 
    238 H238       -6.5221  -19.2174  -55.0066 H         1 UNK         0.0600 
    239 H239       -5.9965  -20.3051  -56.2879 H         1 UNK         0.0600 
    240 H240       -1.9758  -19.4745  -54.8887 H         1 UNK         0.3000 
    241 H241       -0.5465  -18.0057  -55.6776 H         1 UNK         0.0600 
    242 H242       -1.9644  -18.7985  -59.1976 H         1 UNK         0.3800 
    243 H243       -2.4536  -19.5604  -57.7036 H         1 UNK         0.3800 
    244 H244       -1.0367  -15.5711  -55.8648 H         1 UNK         0.0800 
    245 H245       -2.7409  -15.8785  -55.7182 H         1 UNK         0.0800 
    246 H246        0.7246  -16.1764  -54.1905 H         1 UNK         0.0800 
    247 H247        0.2247  -14.6169  -53.5755 H         1 UNK         0.0800 
@<TRIPOS>BOND
     1    1    2 1    
     2    1  127 1    
     3    1  128 1    
     4    1  129 1    
     5    2    3 2    
     6    2    4 am   BACKBONE|DICT|INTERRES
     7    4    5 1    
     8    4  130 1    
     9    5    6 1    
    10    5   65 1    
    11    5  131 1    
    12    6    7 1    
    13    6  132 1    
    14    6  133 1    
    15    7    8 1    
    16    8    9 1    
    17    8  134 1    
    18    8  135 1    
    19    9   10 ar   
    20    9   14 ar   
    21   10   11 ar   
    22   10  136 1    
    23   11   12 ar   
    24   11  126 1    
    25   12   13 ar   
    26   12  137 1    
    27   13   14 ar   
    28   13   15 1    
    29   14  138 1    
    30   15   16 1    
    31   15  139 1    
    32   15  140 1    
    33   16   17 1    
    34   17   18 1    
    35   17  141 1    
    36   17  142 1    
    37   18   19 1    
    38   18   67 1    
    39   18  143 1    
    40   19   20 am   BACKBONE|DICT|INTERRES
    41   19  144 1    
    42   20   21 2    
    43   20   22 1    
    44   22   23 1    
    45   22   24 1    
    46   22  145 1    
    47   23  146 1    
    48   23  147 1    
    49   23  148 1    
    50   24   25 am   BACKBONE|DICT|INTERRES
    51   24  149 1    
    52   25   26 2    
    53   25   27 1    
    54   27   28 1    
    55   27   29 1    
    56   27  150 1    
    57   28  151 1    
    58   28  152 1    
    59   28  153 1    
    60   29   30 am   BACKBONE|DICT|INTERRES
    61   29  154 1    
    62   30   31 2    
    63   30   32 1    
    64   32   33 1    
    65   32   34 1    
    66   32  155 1    
    67   33  156 1    
    68   33  157 1    
    69   33  158 1    
    70   34   35 am   BACKBONE|DICT|INTERRES
    71   34  159 1    
    72   35   36 2    
    73   35   37 1    
    74   37   38 1    
    75   37   39 1    
    76   37  160 1    
    77   38  161 1    
    78   38  162 1    
    79   38  163 1    
    80   39   40 am   BACKBONE|DICT|INTERRES
    81   39  164 1    
    82   40   41 2    
    83   40   42 1    
    84   42   43 1    
    85   42   44 1    
    86   42  165 1    
    87   43  166 1    
    88   43  167 1    
    89   43  168 1    
    90   44   45 am   BACKBONE|DICT|INTERRES
    91   44  169 1    
    92   45   46 2    
    93   45   47 1    
    94   47   48 1    
    95   47   49 1    
    96   47  170 1    
    97   48  171 1    
    98   48  172 1    
    99   48  173 1    
   100   49   50 am   BACKBONE|DICT|INTERRES
   101   49  174 1    
   102   50   51 2    
   103   50   52 1    
   104   52   53 1    
   105   52   54 1    
   106   52  175 1    
   107   53  176 1    
   108   53  177 1    
   109   53  178 1    
   110   54   55 am   BACKBONE|DICT|INTERRES
   111   54  179 1    
   112   55   56 2    
   113   55   57 1    
   114   57   58 1    
   115   57   59 1    
   116   57  180 1    
   117   58  181 1    
   118   58  182 1    
   119   58  183 1    
   120   59   60 am   BACKBONE|DICT|INTERRES
   121   59  184 1    
   122   60   61 2    
   123   60   62 1    
   124   62   63 1    
   125   62   64 1    
   126   62  185 1    
   127   63  186 1    
   128   63  187 1    
   129   63  188 1    
   130   64   65 am   BACKBONE|DICT|INTERRES
   131   64  189 1    
   132   65   66 2    
   133   67   68 2    
   134   67   69 am   BACKBONE|DICT|INTERRES
   135   69   70 1    
   136   69  190 1    
   137   70   71 1    
   138   70   72 1    
   139   70  191 1    
   140   71  192 1    
   141   71  193 1    
   142   71  194 1    
   143   72   73 2    
   144   72   74 am   BACKBONE|DICT|INTERRES
   145   74   75 1    
   146   74  195 1    
   147   75   76 1    
   148   75   77 1    
   149   75  196 1    
   150   76  197 1    
   151   76  198 1    
   152   76  199 1    
   153   77   78 2    
   154   77   79 am   BACKBONE|DICT|INTERRES
   155   79   80 1    
   156   79  200 1    
   157   80   81 1    
   158   80   82 1    
   159   80  201 1    
   160   81  202 1    
   161   81  203 1    
   162   81  204 1    
   163   82   83 2    
   164   82   84 am   BACKBONE|DICT|INTERRES
   165   84   85 1    
   166   84  205 1    
   167   85   86 1    
   168   85   87 1    
   169   85  206 1    
   170   86  207 1    
   171   86  208 1    
   172   86  209 1    
   173   87   88 2    
   174   87   89 am   BACKBONE|DICT|INTERRES
   175   89   90 1    
   176   89  210 1    
   177   90   91 1    
   178   90   92 1    
   179   90  211 1    
   180   91  212 1    
   181   91  213 1    
   182   91  214 1    
   183   92   93 2    
   184   92   94 am   BACKBONE|DICT|INTERRES
   185   94   95 1    
   186   94  215 1    
   187   95   96 1    
   188   95   97 1    
   189   95  216 1    
   190   96  217 1    
   191   96  218 1    
   192   96  219 1    
   193   97   98 2    
   194   97   99 am   BACKBONE|DICT|INTERRES
   195   99  100 1    
   196   99  220 1    
   197  100  101 1    
   198  100  102 1    
   199  100  221 1    
   200  101  222 1    
   201  101  223 1    
   202  101  224 1    
   203  102  103 2    
   204  102  104 am   BACKBONE|DICT|INTERRES
   205  104  105 1    
   206  104  225 1    
   207  105  106 1    
   208  105  107 1    
   209  105  226 1    
   210  106  227 1    
   211  106  228 1    
   212  106  229 1    
   213  107  108 2    
   214  107  109 am   BACKBONE|DICT|INTERRES
   215  109  110 1    
   216  109  230 1    
   217  110  111 1    
   218  110  112 1    
   219  110  231 1    
   220  111  232 1    
   221  111  233 1    
   222  111  234 1    
   223  112  113 2    
   224  112  114 am   BACKBONE|DICT|INTERRES
   225  114  115 1    
   226  114  235 1    
   227  115  116 1    
   228  115  117 1    
   229  115  236 1    
   230  116  237 1    
   231  116  238 1    
   232  116  239 1    
   233  117  118 2    
   234  117  119 am   BACKBONE|DICT|INTERRES
   235  119  120 1    
   236  119  240 1    
   237  120  121 1    
   238  120  124 1    
   239  120  241 1    
   240  121  122 am   BACKBONE|DICT|INTERRES
   241  121  123 2    
   242  122  242 1    
   243  122  243 1    
   244  124  125 1    
   245  124  244 1    
   246  124  245 1    
   247  125  126 1    
   248  126  246 1    
   249  126  247 1    
@<TRIPOS>SUBSTRUCTURE
     1 UNK         1 GROUP             0       ****    0 ROOT    
