@<TRIPOS>MOLECULE
3R540
247   249    1
SMALL
USER_CHARGES


@<TRIPOS>ATOM
      1 CA          4.4442  -10.7506  -51.8042 C.3       0 UNK        -0.1800 
      2 C           4.0833  -11.5397  -50.5537 C.2       0 UNK         0.5000 
      3 O           3.7035  -10.9481  -49.5443 O.2       0 UNK        -0.5000 
      4 N           4.2065  -12.8712  -50.6160 N.am      1 UNK        -0.5000 
      5 CA          3.8640  -13.8011  -49.5328 C.3       1 UNK         0.1400 
      6 C6          4.5580  -15.1725  -49.7155 C.3       23 UNK        -0.0398 
      7 S7          4.2050  -15.9842  -51.3184 S.3       23 UNK        -0.2404 
      8 C8          4.7228  -17.6974  -50.9886 C.3       23 UNK        -0.0205 
      9 C9          3.7435  -18.4248  -50.0800 C.ar      23 UNK        -0.0193 
     10 C10         2.5941  -19.0174  -50.6126 C.ar      23 UNK        -0.1150 
     11 C11         1.6978  -19.6991  -49.7837 C.ar      23 UNK        -0.0193 
     12 C12         1.9494  -19.7606  -48.4099 C.ar      23 UNK        -0.1150 
     13 C13         3.0966  -19.1767  -47.8659 C.ar      23 UNK        -0.0193 
     14 C14         3.9955  -18.5205  -48.7086 C.ar      23 UNK        -0.1150 
     15 C15         3.3530  -19.2276  -46.3682 C.3       23 UNK        -0.0205 
     16 S16         3.9189  -20.8657  -45.8117 S.3       23 UNK        -0.2404 
     17 C17         2.6863  -21.2719  -44.5221 C.3       23 UNK        -0.0398 
     18 CA          1.9225  -22.5883  -44.7968 C.3       11 UNK         0.1400 
     19 N           1.1679  -23.0221  -43.6223 N.am      11 UNK        -0.5000 
     20 C           0.8562  -24.2956  -43.3467 C.2       10 UNK         0.5000 
     21 O           1.2608  -25.2573  -43.9997 O.2       10 UNK        -0.5000 
     22 CA         -0.0813  -24.5362  -42.1472 C.3       10 UNK         0.1400 
     23 CB          0.7333  -24.7743  -40.8668 C.3       10 UNK        -0.1800 
     24 N          -1.0205  -23.4356  -41.9196 N.am      10 UNK        -0.5000 
     25 C          -2.0108  -23.0958  -42.7563 C.2       9 UNK         0.5000 
     26 O          -2.2545  -23.6921  -43.8055 O.2       9 UNK        -0.5000 
     27 CA         -2.8362  -21.8509  -42.3782 C.3       9 UNK         0.1400 
     28 CB         -4.0109  -22.2421  -41.4698 C.3       9 UNK        -0.1800 
     29 N          -2.0618  -20.7827  -41.7353 N.am      9 UNK        -0.5000 
     30 C          -1.0034  -20.1633  -42.2745 C.2       8 UNK         0.5000 
     31 O          -0.4943  -20.4868  -43.3498 O.2       8 UNK        -0.5000 
     32 CA         -0.4132  -18.9836  -41.4844 C.3       8 UNK         0.1400 
     33 CB          1.1015  -19.1532  -41.2853 C.3       8 UNK        -0.1800 
     34 N          -0.6707  -17.7373  -42.2003 N.am      8 UNK        -0.5000 
     35 C          -1.8601  -17.1155  -42.2367 C.2       7 UNK         0.5000 
     36 O          -2.8269  -17.4624  -41.5569 O.2       7 UNK        -0.5000 
     37 CA         -2.0089  -15.9160  -43.1983 C.3       7 UNK         0.1400 
     38 CB         -1.8422  -14.5920  -42.4392 C.3       7 UNK        -0.1800 
     39 N          -1.0597  -15.9635  -44.3127 N.am      7 UNK        -0.5000 
     40 C          -1.1071  -16.8804  -45.2914 C.2       6 UNK         0.5000 
     41 O          -2.0608  -17.6425  -45.4406 O.2       6 UNK        -0.5000 
     42 CA          0.0994  -17.0015  -46.2472 C.3       6 UNK         0.1400 
     43 CB         -0.3161  -16.7432  -47.6956 C.3       6 UNK        -0.1800 
     44 N           1.2300  -16.1270  -45.9371 N.am      6 UNK        -0.5000 
     45 C           2.0096  -16.1975  -44.8501 C.2       5 UNK         0.5000 
     46 O           1.8835  -17.0507  -43.9719 O.2       5 UNK        -0.5000 
     47 CA          3.0577  -15.0791  -44.6957 C.3       5 UNK         0.1400 
     48 CB          4.3690  -15.4697  -45.3931 C.3       5 UNK        -0.1800 
     49 N           2.5901  -13.7965  -45.2316 N.am      5 UNK        -0.5000 
     50 C           1.5264  -13.1201  -44.7756 C.2       4 UNK         0.5000 
     51 O           0.8582  -13.4821  -43.8079 O.2       4 UNK        -0.5000 
     52 CA          1.0951  -11.8736  -45.5584 C.3       4 UNK         0.1400 
     53 CB          2.2532  -11.1783  -46.2994 C.3       4 UNK        -0.1800 
     54 N           0.0840  -12.2852  -46.5271 N.am      4 UNK        -0.5000 
     55 C          -1.2022  -11.9101  -46.5210 C.2       3 UNK         0.5000 
     56 O          -1.6805  -11.1590  -45.6694 O.2       3 UNK        -0.5000 
     57 CA         -2.1284  -12.4689  -47.6305 C.3       3 UNK         0.1400 
     58 CB         -3.0334  -11.3741  -48.2318 C.3       3 UNK        -0.1800 
     59 N          -1.4491  -13.2164  -48.6969 N.am      3 UNK        -0.5000 
     60 C          -0.5197  -12.7728  -49.5519 C.2       2 UNK         0.5000 
     61 O          -0.1329  -11.6045  -49.6197 O.2       2 UNK        -0.5000 
     62 CA          0.1179  -13.8401  -50.4580 C.3       2 UNK         0.1400 
     63 CB         -0.3712  -13.7063  -51.9074 C.3       2 UNK        -0.1800 
     64 N           1.5751  -13.7649  -50.4253 N.am      2 UNK        -0.5000 
     65 C           2.3395  -13.9612  -49.3405 C.2       1 UNK         0.5000 
     66 O           1.8943  -14.2516  -48.2256 O.2       1 UNK        -0.5000 
     67 C           0.9824  -22.4897  -46.0140 C.2       11 UNK         0.5000 
     68 O           1.3374  -22.9729  -47.0886 O.2       11 UNK        -0.5000 
     69 N          -0.2154  -21.9111  -45.8188 N.am      12 UNK        -0.5000 
     70 CA         -1.2552  -21.7468  -46.8421 C.3       12 UNK         0.1400 
     71 CB         -2.4917  -21.0706  -46.2348 C.3       12 UNK        -0.1800 
     72 C          -1.6537  -23.0655  -47.5241 C.2       12 UNK         0.5000 
     73 O          -1.8216  -23.0900  -48.7410 O.2       12 UNK        -0.5000 
     74 N          -1.7155  -24.1474  -46.7352 N.am      13 UNK        -0.5000 
     75 CA         -1.9822  -25.5251  -47.1569 C.3       13 UNK         0.1400 
     76 CB         -1.9868  -26.4211  -45.9081 C.3       13 UNK        -0.1800 
     77 C          -1.0294  -26.0984  -48.2318 C.2       13 UNK         0.5000 
     78 O          -1.3408  -27.1460  -48.8005 O.2       13 UNK        -0.5000 
     79 N           0.0950  -25.4212  -48.5141 N.am      14 UNK        -0.5000 
     80 CA          0.9658  -25.7047  -49.6561 C.3       14 UNK         0.1400 
     81 CB          2.2566  -24.8819  -49.5299 C.3       14 UNK        -0.1800 
     82 C           0.2874  -25.4305  -51.0155 C.2       14 UNK         0.5000 
     83 O           0.6364  -26.0848  -51.9993 O.2       14 UNK        -0.5000 
     84 N          -0.6700  -24.4925  -51.0504 N.am      15 UNK        -0.5000 
     85 CA         -1.5355  -24.2374  -52.1976 C.3       15 UNK         0.1400 
     86 CB         -1.8156  -22.7319  -52.2962 C.3       15 UNK        -0.1800 
     87 C          -2.8458  -25.0219  -52.0283 C.2       15 UNK         0.5000 
     88 O          -3.3605  -25.1205  -50.9127 O.2       15 UNK        -0.5000 
     89 N          -3.3788  -25.5445  -53.1404 N.am      16 UNK        -0.5000 
     90 CA         -4.5461  -26.4329  -53.1724 C.3       16 UNK         0.1400 
     91 CB         -4.7460  -26.9513  -54.6049 C.3       16 UNK        -0.1800 
     92 C          -5.8475  -25.8003  -52.6426 C.2       16 UNK         0.5000 
     93 O          -6.6327  -26.4921  -51.9931 O.2       16 UNK        -0.5000 
     94 N          -6.0438  -24.5035  -52.9168 N.am      17 UNK        -0.5000 
     95 CA         -7.2005  -23.7275  -52.4564 C.3       17 UNK         0.1400 
     96 CB         -7.6965  -22.8383  -53.6084 C.3       17 UNK        -0.1800 
     97 C          -6.8899  -22.8955  -51.1941 C.2       17 UNK         0.5000 
     98 O          -7.7826  -22.2052  -50.7002 O.2       17 UNK        -0.5000 
     99 N          -5.6443  -22.9735  -50.6986 N.am      18 UNK        -0.5000 
    100 CA        -5.1013  -22.3474  -49.4905 C.3       18 UNK         0.1400 
    101 CB        -5.4892  -23.1782  -48.2496 C.3       18 UNK        -0.1800 
    102 C         -5.4337  -20.8480  -49.3667 C.2       18 UNK         0.5000 
    103 O         -4.8472  -20.0362  -50.0839 O.2       18 UNK        -0.5000 
    104 N         -6.3871  -20.5056  -48.4906 N.am      19 UNK        -0.5000 
    105 CA        -6.8729  -19.1466  -48.2422 C.3       19 UNK         0.1400 
    106 CB        -7.8785  -19.1849  -47.0818 C.3       19 UNK        -0.1800 
    107 C         -7.4970  -18.4573  -49.4737 C.2       19 UNK         0.5000 
    108 O         -7.4857  -17.2281  -49.5392 O.2       19 UNK        -0.5000 
    109 N         -8.0120  -19.2461  -50.4272 N.am      20 UNK        -0.5000 
    110 CA        -8.5505  -18.7597  -51.6988 C.3       20 UNK         0.1400 
    111 CB        -9.7339  -19.6489  -52.1104 C.3       20 UNK        -0.1800 
    112 C         -7.4852  -18.6885  -52.8138 C.2       20 UNK         0.5000 
    113 O         -7.7750  -18.1359  -53.8759 O.2       20 UNK        -0.5000 
    114 N         -6.2851  -19.2326  -52.5672 N.am      21 UNK        -0.5000 
    115 CA        -5.1191  -19.1272  -53.4399 C.3       21 UNK         0.1400 
    116 CB        -4.4056  -20.4916  -53.5188 C.3       21 UNK        -0.1800 
    117 C         -4.2200  -17.9974  -52.9100 C.2       21 UNK         0.5000 
    118 O         -4.4780  -16.8309  -53.2109 O.2       21 UNK        -0.5000 
    119 N         -3.1933  -18.3534  -52.1287 N.am      22 UNK        -0.5000 
    120 CA        -2.3084  -17.4102  -51.4306 C.3       22 UNK         0.1400 
    121 C         -2.9660  -16.7329  -50.1927 C.2       22 UNK         0.5000 
    122 N         -3.9678  -17.3352  -49.5669 N.am      22 UNK        -0.7600 
    123 O         -2.5709  -15.6387  -49.8029 O.2       22 UNK        -0.5000 
    124 C124       -0.9407  -18.0574  -51.0860 C.3       23 UNK        -0.0398 
    125 S125       -1.0782  -19.5457  -50.0327 S.3       23 UNK        -0.2404 
    126 C126        0.4868  -20.4086  -50.3755 C.3       23 UNK        -0.0205 
    127 H127        5.2492  -10.0489  -51.5859 H         1 UNK         0.0600 
    128 H128        4.7714  -11.4020  -52.6150 H         1 UNK         0.0600 
    129 H129        3.5805  -10.1833  -52.1512 H         1 UNK         0.0600 
    130 H130        4.5347  -13.3041  -51.4685 H         1 UNK         0.3000 
    131 H131        4.2443  -13.3741  -48.6022 H         1 UNK         0.0600 
    132 H132        4.2771  -15.8351  -48.8980 H         1 UNK         0.0800 
    133 H133        5.6385  -15.0467  -49.6346 H         1 UNK         0.0800 
    134 H134        4.8001  -18.2294  -51.9379 H         1 UNK         0.0800 
    135 H135        5.7252  -17.7003  -50.5576 H         1 UNK         0.0800 
    136 H136        2.4061  -18.9577  -51.6753 H         1 UNK         0.1150 
    137 H137        1.2565  -20.2728  -47.7628 H         1 UNK         0.1150 
    138 H138        4.8880  -18.0731  -48.2944 H         1 UNK         0.1150 
    139 H139        4.1033  -18.4894  -46.0839 H         1 UNK         0.0800 
    140 H140        2.4433  -18.9392  -45.8499 H         1 UNK         0.0800 
    141 H141        1.9884  -20.4491  -44.3669 H         1 UNK         0.0800 
    142 H142        3.2358  -21.3641  -43.5843 H         1 UNK         0.0800 
    143 H143        2.6680  -23.3542  -45.0237 H         1 UNK         0.0600 
    144 H144        0.7402  -22.2899  -43.0715 H         1 UNK         0.3000 
    145 H145       -0.6610  -25.4375  -42.3580 H         1 UNK         0.0600 
    146 H146        0.0843  -25.0218  -40.0266 H         1 UNK         0.0600 
    147 H147        1.4280  -25.6055  -40.9950 H         1 UNK         0.0600 
    148 H148        1.3191  -23.8960  -40.5927 H         1 UNK         0.0600 
    149 H149       -0.8916  -22.8899  -41.0802 H         1 UNK         0.3000 
    150 H150       -3.2485  -21.4383  -43.2999 H         1 UNK         0.0600 
    151 H151       -4.6204  -23.0198  -41.9323 H         1 UNK         0.0600 
    152 H152       -4.6642  -21.3901  -41.2804 H         1 UNK         0.0600 
    153 H153       -3.6669  -22.6231  -40.5075 H         1 UNK         0.0600 
    154 H154       -2.4241  -20.4398  -40.8570 H         1 UNK         0.3000 
    155 H155       -0.8807  -18.9356  -40.4987 H         1 UNK         0.0600 
    156 H156        1.6361  -19.1808  -42.2353 H         1 UNK         0.0600 
    157 H157        1.3250  -20.0798  -40.7554 H         1 UNK         0.0600 
    158 H158        1.5142  -18.3334  -40.6971 H         1 UNK         0.0600 
    159 H159        0.0692  -17.4154  -42.8136 H         1 UNK         0.3000 
    160 H160       -3.0199  -15.9451  -43.6099 H         1 UNK         0.0600 
    161 H161       -1.9630  -13.7363  -43.1041 H         1 UNK         0.0600 
    162 H162       -0.8596  -14.5186  -41.9716 H         1 UNK         0.0600 
    163 H163       -2.5884  -14.4988  -41.6493 H         1 UNK         0.0600 
    164 H164       -0.2608  -15.3443  -44.2509 H         1 UNK         0.3000 
    165 H165        0.4353  -18.0362  -46.1786 H         1 UNK         0.0600 
    166 H166        0.5123  -16.9240  -48.3808 H         1 UNK         0.0600 
    167 H167       -1.1336  -17.4022  -47.9863 H         1 UNK         0.0600 
    168 H168       -0.6520  -15.7171  -47.8308 H         1 UNK         0.0600 
    169 H169        1.4266  -15.3993  -46.6169 H         1 UNK         0.3000 
    170 H170        3.2554  -14.9491  -43.6297 H         1 UNK         0.0600 
    171 H171        4.7754  -16.3888  -44.9694 H         1 UNK         0.0600 
    172 H172        4.2232  -15.6347  -46.4609 H         1 UNK         0.0600 
    173 H173        5.1272  -14.6959  -45.2723 H         1 UNK         0.0600 
    174 H174        3.0563  -13.4544  -46.0587 H         1 UNK         0.3000 
    175 H175        0.6851  -11.1659  -44.8353 H         1 UNK         0.0600 
    176 H176        2.6689  -11.7966  -47.0946 H         1 UNK         0.0600 
    177 H177        1.9142  -10.2495  -46.7586 H         1 UNK         0.0600 
    178 H178        3.0628  -10.9231  -45.6146 H         1 UNK         0.0600 
    179 H179        0.3993  -12.9207  -47.2493 H         1 UNK         0.3000 
    180 H180       -2.7767  -13.1926  -47.1346 H         1 UNK         0.0600 
    181 H181       -2.4518  -10.5753  -48.6924 H         1 UNK         0.0600 
    182 H182       -3.6620  -10.9187  -47.4657 H         1 UNK         0.0600 
    183 H183       -3.6987  -11.7860  -48.9908 H         1 UNK         0.0600 
    184 H184       -1.7582  -14.1790  -48.8117 H         1 UNK         0.3000 
    185 H185       -0.1533  -14.8315  -50.0947 H         1 UNK         0.0600 
    186 H186       -1.4576  -13.7912  -51.9584 H         1 UNK         0.0600 
    187 H187       -0.0949  -12.7432  -52.3383 H         1 UNK         0.0600 
    188 H188        0.0453  -14.4914  -52.5387 H         1 UNK         0.0600 
    189 H189        2.0330  -13.4985  -51.2836 H         1 UNK         0.3000 
    190 H190       -0.4144  -21.5059  -44.9075 H         1 UNK         0.3000 
    191 H191       -0.8497  -21.0849  -47.6052 H         1 UNK         0.0600 
    192 H192       -3.0560  -21.7540  -45.6012 H         1 UNK         0.0600 
    193 H193       -3.1646  -20.7227  -47.0196 H         1 UNK         0.0600 
    194 H194       -2.2175  -20.2059  -45.6332 H         1 UNK         0.0600 
    195 H195       -1.5996  -24.0057  -45.7371 H         1 UNK         0.3000 
    196 H196       -2.9835  -25.5376  -47.5913 H         1 UNK         0.0600 
    197 H197       -1.0199  -26.4069  -45.4035 H         1 UNK         0.0600 
    198 H198       -2.2094  -27.4574  -46.1655 H         1 UNK         0.0600 
    199 H199       -2.7429  -26.0972  -45.1927 H         1 UNK         0.0600 
    200 H200        0.3014  -24.5751  -47.9940 H         1 UNK         0.3000 
    201 H201        1.2309  -26.7633  -49.6232 H         1 UNK         0.0600 
    202 H202        2.7636  -25.0822  -48.5858 H         1 UNK         0.0600 
    203 H203        2.0563  -23.8107  -49.5822 H         1 UNK         0.0600 
    204 H204        2.9541  -25.1241  -50.3326 H         1 UNK         0.0600 
    205 H205       -0.9628  -24.0537  -50.1805 H         1 UNK         0.3000 
    206 H206       -1.0438  -24.5538  -53.1198 H         1 UNK         0.0600 
    207 H207       -0.8921  -22.1697  -52.4278 H         1 UNK         0.0600 
    208 H208       -2.4481  -22.5171  -53.1567 H         1 UNK         0.0600 
    209 H209       -2.3171  -22.3496  -51.4063 H         1 UNK         0.0600 
    210 H210       -2.9057  -25.4016  -54.0213 H         1 UNK         0.3000 
    211 H211       -4.3204  -27.2889  -52.5327 H         1 UNK         0.0600 
    212 H212       -4.9355  -26.1370  -55.3055 H         1 UNK         0.0600 
    213 H213       -5.5948  -27.6345  -54.6587 H         1 UNK         0.0600 
    214 H214       -3.8695  -27.4980  -54.9533 H         1 UNK         0.0600 
    215 H215       -5.3517  -24.0140  -53.4653 H         1 UNK         0.3000 
    216 H216       -8.0172  -24.4037  -52.1959 H         1 UNK         0.0600 
    217 H217       -8.6981  -22.4649  -53.4002 H         1 UNK         0.0600 
    218 H218       -7.7559  -23.3942  -54.5443 H         1 UNK         0.0600 
    219 H219       -7.0542  -21.9746  -53.7689 H         1 UNK         0.0600 
    220 H220       -5.0052  -23.6079  -51.1592 H         1 UNK         0.3000 
    221 H221       -4.0209  -22.3929  -49.5990 H         1 UNK         0.0600 
    222 H222       -6.5701  -23.2647  -48.1334 H         1 UNK         0.0600 
    223 H223       -5.0853  -24.1880  -48.3246 H         1 UNK         0.0600 
    224 H224       -5.0833  -22.7408  -47.3364 H         1 UNK         0.0600 
    225 H225       -6.8447  -21.2438  -47.9763 H         1 UNK         0.3000 
    226 H226       -6.0179  -18.5451  -47.9291 H         1 UNK         0.0600 
    227 H227       -7.4220  -19.5847  -46.1761 H         1 UNK         0.0600 
    228 H228       -8.2419  -18.1838  -46.8457 H         1 UNK         0.0600 
    229 H229       -8.7460  -19.8008  -47.3226 H         1 UNK         0.0600 
    230 H230       -7.9722  -20.2552  -50.3117 H         1 UNK         0.3000 
    231 H231       -8.9361  -17.7464  -51.5684 H         1 UNK         0.0600 
    232 H232      -10.5344  -19.6002  -51.3722 H         1 UNK         0.0600 
    233 H233       -9.4385  -20.6913  -52.2093 H         1 UNK         0.0600 
    234 H234      -10.1543  -19.3320  -53.0657 H         1 UNK         0.0600 
    235 H235       -6.1025  -19.5986  -51.6401 H         1 UNK         0.3000 
    236 H236       -5.4166  -18.8523  -54.4539 H         1 UNK         0.0600 
    237 H237       -3.4387  -20.4002  -54.0156 H         1 UNK         0.0600 
    238 H238       -4.2385  -20.9278  -52.5343 H         1 UNK         0.0600 
    239 H239       -4.9858  -21.2034  -54.1025 H         1 UNK         0.0600 
    240 H240       -3.0871  -19.3242  -51.8706 H         1 UNK         0.3000 
    241 H241       -2.0945  -16.5961  -52.1261 H         1 UNK         0.0600 
    242 H242       -4.3954  -16.8797  -48.7790 H         1 UNK         0.3800 
    243 H243       -4.2616  -18.2665  -49.8469 H         1 UNK         0.3800 
    244 H244       -0.2819  -17.3368  -50.6005 H         1 UNK         0.0800 
    245 H245       -0.4368  -18.3365  -52.0120 H         1 UNK         0.0800 
    246 H246        0.4257  -21.4149  -49.9574 H         1 UNK         0.0800 
    247 H247        0.6032  -20.5360  -51.4523 H         1 UNK         0.0800 
@<TRIPOS>BOND
     1    1    2 1    
     2    1  127 1    
     3    1  128 1    
     4    1  129 1    
     5    2    3 2    
     6    2    4 am   BACKBONE|DICT|INTERRES
     7    4    5 1    
     8    4  130 1    
     9    5    6 1    
    10    5   65 1    
    11    5  131 1    
    12    6    7 1    
    13    6  132 1    
    14    6  133 1    
    15    7    8 1    
    16    8    9 1    
    17    8  134 1    
    18    8  135 1    
    19    9   10 ar   
    20    9   14 ar   
    21   10   11 ar   
    22   10  136 1    
    23   11   12 ar   
    24   11  126 1    
    25   12   13 ar   
    26   12  137 1    
    27   13   14 ar   
    28   13   15 1    
    29   14  138 1    
    30   15   16 1    
    31   15  139 1    
    32   15  140 1    
    33   16   17 1    
    34   17   18 1    
    35   17  141 1    
    36   17  142 1    
    37   18   19 1    
    38   18   67 1    
    39   18  143 1    
    40   19   20 am   BACKBONE|DICT|INTERRES
    41   19  144 1    
    42   20   21 2    
    43   20   22 1    
    44   22   23 1    
    45   22   24 1    
    46   22  145 1    
    47   23  146 1    
    48   23  147 1    
    49   23  148 1    
    50   24   25 am   BACKBONE|DICT|INTERRES
    51   24  149 1    
    52   25   26 2    
    53   25   27 1    
    54   27   28 1    
    55   27   29 1    
    56   27  150 1    
    57   28  151 1    
    58   28  152 1    
    59   28  153 1    
    60   29   30 am   BACKBONE|DICT|INTERRES
    61   29  154 1    
    62   30   31 2    
    63   30   32 1    
    64   32   33 1    
    65   32   34 1    
    66   32  155 1    
    67   33  156 1    
    68   33  157 1    
    69   33  158 1    
    70   34   35 am   BACKBONE|DICT|INTERRES
    71   34  159 1    
    72   35   36 2    
    73   35   37 1    
    74   37   38 1    
    75   37   39 1    
    76   37  160 1    
    77   38  161 1    
    78   38  162 1    
    79   38  163 1    
    80   39   40 am   BACKBONE|DICT|INTERRES
    81   39  164 1    
    82   40   41 2    
    83   40   42 1    
    84   42   43 1    
    85   42   44 1    
    86   42  165 1    
    87   43  166 1    
    88   43  167 1    
    89   43  168 1    
    90   44   45 am   BACKBONE|DICT|INTERRES
    91   44  169 1    
    92   45   46 2    
    93   45   47 1    
    94   47   48 1    
    95   47   49 1    
    96   47  170 1    
    97   48  171 1    
    98   48  172 1    
    99   48  173 1    
   100   49   50 am   BACKBONE|DICT|INTERRES
   101   49  174 1    
   102   50   51 2    
   103   50   52 1    
   104   52   53 1    
   105   52   54 1    
   106   52  175 1    
   107   53  176 1    
   108   53  177 1    
   109   53  178 1    
   110   54   55 am   BACKBONE|DICT|INTERRES
   111   54  179 1    
   112   55   56 2    
   113   55   57 1    
   114   57   58 1    
   115   57   59 1    
   116   57  180 1    
   117   58  181 1    
   118   58  182 1    
   119   58  183 1    
   120   59   60 am   BACKBONE|DICT|INTERRES
   121   59  184 1    
   122   60   61 2    
   123   60   62 1    
   124   62   63 1    
   125   62   64 1    
   126   62  185 1    
   127   63  186 1    
   128   63  187 1    
   129   63  188 1    
   130   64   65 am   BACKBONE|DICT|INTERRES
   131   64  189 1    
   132   65   66 2    
   133   67   68 2    
   134   67   69 am   BACKBONE|DICT|INTERRES
   135   69   70 1    
   136   69  190 1    
   137   70   71 1    
   138   70   72 1    
   139   70  191 1    
   140   71  192 1    
   141   71  193 1    
   142   71  194 1    
   143   72   73 2    
   144   72   74 am   BACKBONE|DICT|INTERRES
   145   74   75 1    
   146   74  195 1    
   147   75   76 1    
   148   75   77 1    
   149   75  196 1    
   150   76  197 1    
   151   76  198 1    
   152   76  199 1    
   153   77   78 2    
   154   77   79 am   BACKBONE|DICT|INTERRES
   155   79   80 1    
   156   79  200 1    
   157   80   81 1    
   158   80   82 1    
   159   80  201 1    
   160   81  202 1    
   161   81  203 1    
   162   81  204 1    
   163   82   83 2    
   164   82   84 am   BACKBONE|DICT|INTERRES
   165   84   85 1    
   166   84  205 1    
   167   85   86 1    
   168   85   87 1    
   169   85  206 1    
   170   86  207 1    
   171   86  208 1    
   172   86  209 1    
   173   87   88 2    
   174   87   89 am   BACKBONE|DICT|INTERRES
   175   89   90 1    
   176   89  210 1    
   177   90   91 1    
   178   90   92 1    
   179   90  211 1    
   180   91  212 1    
   181   91  213 1    
   182   91  214 1    
   183   92   93 2    
   184   92   94 am   BACKBONE|DICT|INTERRES
   185   94   95 1    
   186   94  215 1    
   187   95   96 1    
   188   95   97 1    
   189   95  216 1    
   190   96  217 1    
   191   96  218 1    
   192   96  219 1    
   193   97   98 2    
   194   97   99 am   BACKBONE|DICT|INTERRES
   195   99  100 1    
   196   99  220 1    
   197  100  101 1    
   198  100  102 1    
   199  100  221 1    
   200  101  222 1    
   201  101  223 1    
   202  101  224 1    
   203  102  103 2    
   204  102  104 am   BACKBONE|DICT|INTERRES
   205  104  105 1    
   206  104  225 1    
   207  105  106 1    
   208  105  107 1    
   209  105  226 1    
   210  106  227 1    
   211  106  228 1    
   212  106  229 1    
   213  107  108 2    
   214  107  109 am   BACKBONE|DICT|INTERRES
   215  109  110 1    
   216  109  230 1    
   217  110  111 1    
   218  110  112 1    
   219  110  231 1    
   220  111  232 1    
   221  111  233 1    
   222  111  234 1    
   223  112  113 2    
   224  112  114 am   BACKBONE|DICT|INTERRES
   225  114  115 1    
   226  114  235 1    
   227  115  116 1    
   228  115  117 1    
   229  115  236 1    
   230  116  237 1    
   231  116  238 1    
   232  116  239 1    
   233  117  118 2    
   234  117  119 am   BACKBONE|DICT|INTERRES
   235  119  120 1    
   236  119  240 1    
   237  120  121 1    
   238  120  124 1    
   239  120  241 1    
   240  121  122 am   BACKBONE|DICT|INTERRES
   241  121  123 2    
   242  122  242 1    
   243  122  243 1    
   244  124  125 1    
   245  124  244 1    
   246  124  245 1    
   247  125  126 1    
   248  126  246 1    
   249  126  247 1    
@<TRIPOS>SUBSTRUCTURE
     1 UNK         1 GROUP             0       ****    0 ROOT    
