@<TRIPOS>MOLECULE
3R540
247   249    1
SMALL
USER_CHARGES


@<TRIPOS>ATOM
      1 CA          1.8610  -11.9061  -43.2978 C.3       0 UNK        -0.1800 
      2 C           3.0797  -12.3018  -44.1199 C.2       0 UNK         0.5000 
      3 O           3.9901  -11.4911  -44.2937 O.2       0 UNK        -0.5000 
      4 N           3.0914  -13.5362  -44.6304 N.am      1 UNK        -0.5000 
      5 CA          4.1803  -14.1143  -45.4224 C.3       1 UNK         0.1400 
      6 C6          3.6260  -15.0209  -46.5506 C.3       23 UNK        -0.0398 
      7 S7          2.5948  -14.0569  -47.7100 S.3       23 UNK        -0.2404 
      8 C8          3.3495  -14.3851  -49.3306 C.3       23 UNK        -0.0205 
      9 C9          2.7441  -15.6071  -50.0056 C.ar      23 UNK        -0.0193 
     10 C10         1.4283  -15.5634  -50.4817 C.ar      23 UNK        -0.1150 
     11 C11         0.8749  -16.6612  -51.1470 C.ar      23 UNK        -0.0193 
     12 C12         1.6652  -17.7922  -51.3675 C.ar      23 UNK        -0.1150 
     13 C13         2.9689  -17.8622  -50.8736 C.ar      23 UNK        -0.0193 
     14 C14         3.5033  -16.7668  -50.1883 C.ar      23 UNK        -0.1150 
     15 C15         3.8054  -19.1113  -51.1023 C.3       23 UNK        -0.0205 
     16 S16         3.5670  -20.3439  -49.7838 S.3       23 UNK        -0.2404 
     17 C17         2.0128  -21.1689  -50.2800 C.3       23 UNK        -0.0398 
     18 CA          1.0119  -21.2780  -49.1068 C.3       11 UNK         0.1400 
     19 N           0.5748  -19.9741  -48.5943 N.am      11 UNK        -0.5000 
     20 C           0.1350  -19.7945  -47.3422 C.2       10 UNK         0.5000 
     21 O           0.0664  -20.6983  -46.5071 O.2       10 UNK        -0.5000 
     22 CA         -0.3286  -18.3748  -46.9686 C.3       10 UNK         0.1400 
     23 CB          0.7836  -17.3417  -47.1960 C.3       10 UNK        -0.1800 
     24 N          -1.5463  -17.9287  -47.6501 N.am      10 UNK        -0.5000 
     25 C          -2.7136  -18.5854  -47.6903 C.2       9 UNK         0.5000 
     26 O          -2.8593  -19.7376  -47.2899 O.2       9 UNK        -0.5000 
     27 CA         -3.9307  -17.8371  -48.2599 C.3       9 UNK         0.1400 
     28 CB         -5.2531  -18.3233  -47.6363 C.3       9 UNK        -0.1800 
     29 N          -3.8122  -16.3921  -48.0737 N.am      9 UNK        -0.5000 
     30 C          -4.3003  -15.4773  -48.9225 C.2       8 UNK         0.5000 
     31 O          -4.8492  -15.7628  -49.9868 O.2       8 UNK        -0.5000 
     32 CA         -4.1881  -13.9913  -48.5205 C.3       8 UNK         0.1400 
     33 CB         -5.5341  -13.4833  -47.9803 C.3       8 UNK        -0.1800 
     34 N          -3.1504  -13.7179  -47.5256 N.am      8 UNK        -0.5000 
     35 C          -1.8351  -13.8186  -47.7521 C.2       7 UNK         0.5000 
     36 O          -1.3559  -14.1110  -48.8470 O.2       7 UNK        -0.5000 
     37 CA         -0.8931  -13.5748  -46.5563 C.3       7 UNK         0.1400 
     38 CB         -0.3613  -12.1339  -46.5855 C.3       7 UNK        -0.1800 
     39 N          -1.4344  -13.8560  -45.2195 N.am      7 UNK        -0.5000 
     40 C          -2.0173  -14.9940  -44.8154 C.2       6 UNK         0.5000 
     41 O          -2.3368  -15.9092  -45.5728 O.2       6 UNK        -0.5000 
     42 CA         -2.2071  -15.1444  -43.3001 C.3       6 UNK         0.1400 
     43 CB         -2.9787  -16.4214  -42.9111 C.3       6 UNK        -0.1800 
     44 N          -0.8779  -15.1577  -42.7012 N.am      6 UNK        -0.5000 
     45 C          -0.5597  -14.8490  -41.4422 C.2       5 UNK         0.5000 
     46 O          -1.3907  -14.5035  -40.6006 O.2       5 UNK        -0.5000 
     47 CA          0.9404  -14.9485  -41.0694 C.3       5 UNK         0.1400 
     48 CB          1.1947  -14.7196  -39.5687 C.3       5 UNK        -0.1800 
     49 N           1.5679  -16.2155  -41.4609 N.am      5 UNK        -0.5000 
     50 C           1.8729  -16.6029  -42.7058 C.2       4 UNK         0.5000 
     51 O           1.6385  -15.9230  -43.7091 O.2       4 UNK        -0.5000 
     52 CA          2.5829  -17.9579  -42.8253 C.3       4 UNK         0.1400 
     53 CB          2.5380  -18.5426  -44.2475 C.3       4 UNK        -0.1800 
     54 N           3.9694  -17.7964  -42.4037 N.am      4 UNK        -0.5000 
     55 C           4.7322  -18.7661  -41.8824 C.2       3 UNK         0.5000 
     56 O           4.3108  -19.8997  -41.6445 O.2       3 UNK        -0.5000 
     57 CA          6.2038  -18.4139  -41.5616 C.3       3 UNK         0.1400 
     58 CB          7.1361  -19.6433  -41.6038 C.3       3 UNK        -0.1800 
     59 N           6.7457  -17.3211  -42.3790 N.am      3 UNK        -0.5000 
     60 C           6.9004  -17.2965  -43.7111 C.2       2 UNK         0.5000 
     61 O           6.6419  -18.2374  -44.4637 O.2       2 UNK        -0.5000 
     62 CA          7.3856  -15.9576  -44.3028 C.3       2 UNK         0.1400 
     63 CB          8.5715  -16.1668  -45.2589 C.3       2 UNK        -0.1800 
     64 N           6.3215  -15.2396  -45.0104 N.am      2 UNK        -0.5000 
     65 C           5.1405  -14.8796  -44.4877 C.2       1 UNK         0.5000 
     66 O           4.8120  -15.1227  -43.3218 O.2       1 UNK        -0.5000 
     67 C          -0.1852  -22.1805  -49.4722 C.2       11 UNK         0.5000 
     68 O          -0.0273  -23.4011  -49.4922 O.2       11 UNK        -0.5000 
     69 N          -1.3640  -21.5882  -49.7206 N.am      12 UNK        -0.5000 
     70 CA         -2.6070  -22.3176  -49.9758 C.3       12 UNK         0.1400 
     71 CB         -3.7046  -21.3559  -50.4473 C.3       12 UNK        -0.1800 
     72 C          -3.0664  -23.1276  -48.7524 C.2       12 UNK         0.5000 
     73 O          -3.3625  -24.3116  -48.8946 O.2       12 UNK        -0.5000 
     74 N          -3.0533  -22.5053  -47.5659 N.am      13 UNK        -0.5000 
     75 CA         -3.3779  -23.1431  -46.2897 C.3       13 UNK         0.1400 
     76 CB         -3.4433  -22.0806  -45.1829 C.3       13 UNK        -0.1800 
     77 C          -2.3871  -24.2579  -45.9122 C.2       13 UNK         0.5000 
     78 O          -2.8097  -25.2836  -45.3792 O.2       13 UNK        -0.5000 
     79 N          -1.1010  -24.0665  -46.2421 N.am      14 UNK        -0.5000 
     80 CA         -0.0447  -25.0686  -46.0739 C.3       14 UNK         0.1400 
     81 CB          1.3243  -24.4175  -46.3221 C.3       14 UNK        -0.1800 
     82 C          -0.2417  -26.3002  -46.9817 C.2       14 UNK         0.5000 
     83 O           0.0555  -27.4191  -46.5626 O.2       14 UNK        -0.5000 
     84 N          -0.7755  -26.0760  -48.1899 N.am      15 UNK        -0.5000 
     85 CA         -1.1652  -27.1115  -49.1495 C.3       15 UNK         0.1400 
     86 CB         -1.1332  -26.5030  -50.5616 C.3       15 UNK        -0.1800 
     87 C          -2.5510  -27.7293  -48.8565 C.2       15 UNK         0.5000 
     88 O          -2.9339  -28.6817  -49.5373 O.2       15 UNK        -0.5000 
     89 N          -3.2784  -27.1752  -47.8739 N.am      16 UNK        -0.5000 
     90 CA         -4.6560  -27.4929  -47.4804 C.3       16 UNK         0.1400 
     91 CB         -4.7581  -28.9285  -46.9239 C.3       16 UNK        -0.1800 
     92 C          -5.6880  -27.1922  -48.5910 C.2       16 UNK         0.5000 
     93 O          -6.6856  -27.9046  -48.7214 O.2       16 UNK        -0.5000 
     94 N          -5.4281  -26.1351  -49.3671 N.am      17 UNK        -0.5000 
     95 CA         -6.2740  -25.6244  -50.4401 C.3       17 UNK         0.1400 
     96 CB         -5.3781  -25.3438  -51.6584 C.3       17 UNK        -0.1800 
     97 C          -6.9909  -24.3372  -49.9939 C.2       17 UNK         0.5000 
     98 O          -6.6325  -23.7384  -48.9760 O.2       17 UNK        -0.5000 
     99 N          -7.9894  -23.9232  -50.7832 N.am      18 UNK        -0.5000 
    100 CA        -8.6915  -22.6475  -50.6350 C.3       18 UNK         0.1400 
    101 CB        -9.9702  -22.6888  -51.4867 C.3       18 UNK        -0.1800 
    102 C         -7.8061  -21.4631  -51.0653 C.2       18 UNK         0.5000 
    103 O         -6.8943  -21.6432  -51.8745 O.2       18 UNK        -0.5000 
    104 N         -8.1261  -20.2612  -50.5650 N.am      19 UNK        -0.5000 
    105 CA        -7.3970  -19.0075  -50.8070 C.3       19 UNK         0.1400 
    106 CB        -8.1165  -17.8653  -50.0738 C.3       19 UNK        -0.1800 
    107 C         -7.2093  -18.6436  -52.2941 C.2       19 UNK         0.5000 
    108 O         -6.2007  -18.0356  -52.6496 O.2       19 UNK        -0.5000 
    109 N         -8.1536  -19.0696  -53.1442 N.am      20 UNK        -0.5000 
    110 CA        -8.1098  -18.9273  -54.6010 C.3       20 UNK         0.1400 
    111 CB        -9.4475  -19.4105  -55.1825 C.3       20 UNK        -0.1800 
    112 C         -6.9323  -19.6644  -55.2760 C.2       20 UNK         0.5000 
    113 O         -6.5555  -19.2947  -56.3886 O.2       20 UNK        -0.5000 
    114 N         -6.3672  -20.6790  -54.6049 N.am      21 UNK        -0.5000 
    115 CA        -5.2028  -21.4317  -55.0710 C.3       21 UNK         0.1400 
    116 CB        -5.2189  -22.8260  -54.4241 C.3       21 UNK        -0.1800 
    117 C         -3.8647  -20.7244  -54.7770 C.2       21 UNK         0.5000 
    118 O         -2.8405  -21.1585  -55.3063 O.2       21 UNK        -0.5000 
    119 N         -3.8722  -19.6822  -53.9320 N.am      22 UNK        -0.5000 
    120 CA        -2.6745  -18.9189  -53.5547 C.3       22 UNK         0.1400 
    121 C         -2.1312  -18.0657  -54.7342 C.2       22 UNK         0.5000 
    122 N         -0.8490  -18.1736  -55.0559 N.am      22 UNK        -0.7600 
    123 O         -2.8586  -17.2810  -55.3381 O.2       22 UNK        -0.5000 
    124 C124       -2.9171  -18.0549  -52.2848 C.3       23 UNK        -0.0398 
    125 S125       -1.4959  -18.1074  -51.1456 S.3       23 UNK        -0.2404 
    126 C126       -0.5628  -16.6232  -51.6491 C.3       23 UNK        -0.0205 
    127 H127        2.1260  -11.8322  -42.2433 H         1 UNK         0.0600 
    128 H128        1.0525  -12.6295  -43.4040 H         1 UNK         0.0600 
    129 H129        1.4867  -10.9359  -43.6245 H         1 UNK         0.0600 
    130 H130        2.3674  -14.1999  -44.3751 H         1 UNK         0.3000 
    131 H131        4.7577  -13.3132  -45.8891 H         1 UNK         0.0600 
    132 H132        4.4327  -15.5066  -47.1011 H         1 UNK         0.0800 
    133 H133        3.0173  -15.8211  -46.1307 H         1 UNK         0.0800 
    134 H134        4.4320  -14.4783  -49.2328 H         1 UNK         0.0800 
    135 H135        3.1801  -13.5176  -49.9698 H         1 UNK         0.0800 
    136 H136        0.8356  -14.6725  -50.3270 H         1 UNK         0.1150 
    137 H137        1.2538  -18.6231  -51.9203 H         1 UNK         0.1150 
    138 H138        4.5172  -16.8108  -49.8162 H         1 UNK         0.1150 
    139 H139        3.5761  -19.5540  -52.0729 H         1 UNK         0.0800 
    140 H140        4.8621  -18.8422  -51.1382 H         1 UNK         0.0800 
    141 H141        2.2834  -22.1640  -50.6384 H         1 UNK         0.0800 
    142 H142        1.5571  -20.6629  -51.1294 H         1 UNK         0.0800 
    143 H143        1.5379  -21.7941  -48.3003 H         1 UNK         0.0600 
    144 H144        0.6201  -19.1869  -49.2259 H         1 UNK         0.3000 
    145 H145       -0.5531  -18.3894  -45.9003 H         1 UNK         0.0600 
    146 H146        0.6146  -16.4524  -46.5908 H         1 UNK         0.0600 
    147 H147        1.7627  -17.7370  -46.9270 H         1 UNK         0.0600 
    148 H148        0.8388  -17.0345  -48.2382 H         1 UNK         0.0600 
    149 H149       -1.5248  -16.9923  -48.0263 H         1 UNK         0.3000 
    150 H150       -3.9526  -18.0645  -49.3263 H         1 UNK         0.0600 
    151 H151       -5.4363  -19.3741  -47.8647 H         1 UNK         0.0600 
    152 H152       -6.1010  -17.7553  -48.0149 H         1 UNK         0.0600 
    153 H153       -5.2423  -18.2175  -46.5508 H         1 UNK         0.0600 
    154 H154       -3.3593  -16.0923  -47.2129 H         1 UNK         0.3000 
    155 H155       -3.9480  -13.4273  -49.4243 H         1 UNK         0.0600 
    156 H156       -5.8201  -14.0013  -47.0640 H         1 UNK         0.0600 
    157 H157       -5.4966  -12.4150  -47.7664 H         1 UNK         0.0600 
    158 H158       -6.3317  -13.6396  -48.7079 H         1 UNK         0.0600 
    159 H159       -3.4598  -13.4864  -46.5934 H         1 UNK         0.3000 
    160 H160       -0.0490  -14.2492  -46.6900 H         1 UNK         0.0600 
    161 H161       -1.1490  -11.4097  -46.3748 H         1 UNK         0.0600 
    162 H162        0.0576  -11.8905  -47.5631 H         1 UNK         0.0600 
    163 H163        0.4345  -11.9916  -45.8557 H         1 UNK         0.0600 
    164 H164       -1.2314  -13.1624  -44.5150 H         1 UNK         0.3000 
    165 H165       -2.7614  -14.2731  -42.9455 H         1 UNK         0.0600 
    166 H166       -3.1330  -16.4789  -41.8337 H         1 UNK         0.0600 
    167 H167       -3.9627  -16.4414  -43.3811 H         1 UNK         0.0600 
    168 H168       -2.4467  -17.3218  -43.2212 H         1 UNK         0.0600 
    169 H169       -0.1174  -15.4284  -43.3214 H         1 UNK         0.3000 
    170 H170        1.4518  -14.1501  -41.6065 H         1 UNK         0.0600 
    171 H171        0.8089  -13.7512  -39.2473 H         1 UNK         0.0600 
    172 H172        0.7146  -15.4854  -38.9583 H         1 UNK         0.0600 
    173 H173        2.2614  -14.7299  -39.3434 H         1 UNK         0.0600 
    174 H174        1.7951  -16.8415  -40.7018 H         1 UNK         0.3000 
    175 H175        2.0698  -18.6507  -42.1550 H         1 UNK         0.0600 
    176 H176        3.0963  -17.9251  -44.9510 H         1 UNK         0.0600 
    177 H177        2.9648  -19.5452  -44.2767 H         1 UNK         0.0600 
    178 H178        1.5108  -18.6195  -44.6016 H         1 UNK         0.0600 
    179 H179        4.3718  -16.8764  -42.5688 H         1 UNK         0.3000 
    180 H180        6.2000  -18.0451  -40.5350 H         1 UNK         0.0600 
    181 H181        7.1350  -20.1195  -42.5847 H         1 UNK         0.0600 
    182 H182        6.8274  -20.3950  -40.8765 H         1 UNK         0.0600 
    183 H183        8.1635  -19.3680  -41.3654 H         1 UNK         0.0600 
    184 H184        6.9458  -16.4708  -41.8703 H         1 UNK         0.3000 
    185 H185        7.7268  -15.3179  -43.4863 H         1 UNK         0.0600 
    186 H186        9.3831  -16.7000  -44.7622 H         1 UNK         0.0600 
    187 H187        8.2855  -16.7485  -46.1362 H         1 UNK         0.0600 
    188 H188        8.9737  -15.2142  -45.6043 H         1 UNK         0.0600 
    189 H189        6.5171  -15.0110  -45.9739 H         1 UNK         0.3000 
    190 H190       -1.4235  -20.5828  -49.6567 H         1 UNK         0.3000 
    191 H191       -2.4180  -23.0265  -50.7850 H         1 UNK         0.0600 
    192 H192       -3.9085  -20.5745  -49.7170 H         1 UNK         0.0600 
    193 H193       -4.6362  -21.8955  -50.6158 H         1 UNK         0.0600 
    194 H194       -3.4309  -20.8819  -51.3880 H         1 UNK         0.0600 
    195 H195       -2.8279  -21.5121  -47.5240 H         1 UNK         0.3000 
    196 H196       -4.3666  -23.5966  -46.3875 H         1 UNK         0.0600 
    197 H197       -3.6874  -22.5307  -44.2199 H         1 UNK         0.0600 
    198 H198       -4.2102  -21.3362  -45.3981 H         1 UNK         0.0600 
    199 H199       -2.4922  -21.5575  -45.0727 H         1 UNK         0.0600 
    200 H200       -0.8386  -23.1868  -46.6653 H         1 UNK         0.3000 
    201 H201       -0.0734  -25.4119  -45.0377 H         1 UNK         0.0600 
    202 H202        1.4729  -23.5490  -45.6798 H         1 UNK         0.0600 
    203 H203        1.4370  -24.0935  -47.3562 H         1 UNK         0.0600 
    204 H204        2.1313  -25.1204  -46.1119 H         1 UNK         0.0600 
    205 H205       -0.9477  -25.1187  -48.4742 H         1 UNK         0.3000 
    206 H206       -0.4334  -27.9209  -49.1127 H         1 UNK         0.0600 
    207 H207       -0.1498  -26.0925  -50.7918 H         1 UNK         0.0600 
    208 H208       -1.3566  -27.2550  -51.3192 H         1 UNK         0.0600 
    209 H209       -1.8634  -25.7007  -50.6714 H         1 UNK         0.0600 
    210 H210       -2.8693  -26.3869  -47.3900 H         1 UNK         0.3000 
    211 H211       -4.8950  -26.8110  -46.6633 H         1 UNK         0.0600 
    212 H212       -4.6039  -29.6781  -47.7003 H         1 UNK         0.0600 
    213 H213       -5.7412  -29.1089  -46.4879 H         1 UNK         0.0600 
    214 H214       -4.0206  -29.0998  -46.1397 H         1 UNK         0.0600 
    215 H215       -4.6215  -25.5530  -49.1433 H         1 UNK         0.3000 
    216 H216       -7.0270  -26.3644  -50.7181 H         1 UNK         0.0600 
    217 H217       -5.9700  -25.0251  -52.5166 H         1 UNK         0.0600 
    218 H218       -4.8290  -26.2367  -51.9578 H         1 UNK         0.0600 
    219 H219       -4.6497  -24.5588  -51.4505 H         1 UNK         0.0600 
    220 H220       -8.1982  -24.4488  -51.6190 H         1 UNK         0.3000 
    221 H221       -8.9671  -22.5180  -49.5863 H         1 UNK         0.0600 
    222 H222       -9.7441  -22.8065  -52.5475 H         1 UNK         0.0600 
    223 H223      -10.6164  -23.5144  -51.1879 H         1 UNK         0.0600 
    224 H224      -10.5482  -21.7706  -51.3747 H         1 UNK         0.0600 
    225 H225       -8.9080  -20.1986  -49.9290 H         1 UNK         0.3000 
    226 H226       -6.4013  -19.1234  -50.3744 H         1 UNK         0.0600 
    227 H227       -8.2331  -18.0831  -49.0124 H         1 UNK         0.0600 
    228 H228       -7.5524  -16.9348  -50.1551 H         1 UNK         0.0600 
    229 H229       -9.1095  -17.6851  -50.4875 H         1 UNK         0.0600 
    230 H230       -8.9403  -19.5741  -52.7639 H         1 UNK         0.3000 
    231 H231       -7.9999  -17.8649  -54.8276 H         1 UNK         0.0600 
    232 H232       -9.4683  -19.2933  -56.2669 H         1 UNK         0.0600 
    233 H233      -10.2835  -18.8382  -54.7799 H         1 UNK         0.0600 
    234 H234       -9.6233  -20.4643  -54.9627 H         1 UNK         0.0600 
    235 H235       -6.7125  -20.9228  -53.6806 H         1 UNK         0.3000 
    236 H236       -5.2764  -21.5628  -56.1527 H         1 UNK         0.0600 
    237 H237       -6.1729  -23.3287  -54.5842 H         1 UNK         0.0600 
    238 H238       -4.4406  -23.4618  -54.8477 H         1 UNK         0.0600 
    239 H239       -5.0424  -22.7708  -53.3497 H         1 UNK         0.0600 
    240 H240       -4.7567  -19.3359  -53.5809 H         1 UNK         0.3000 
    241 H241       -1.9192  -19.6698  -53.3117 H         1 UNK         0.0600 
    242 H242       -0.4868  -17.6174  -55.8145 H         1 UNK         0.3800 
    243 H243       -0.2386  -18.8209  -54.5831 H         1 UNK         0.3800 
    244 H244       -3.1836  -17.0226  -52.5207 H         1 UNK         0.0800 
    245 H245       -3.7636  -18.4434  -51.7191 H         1 UNK         0.0800 
    246 H246       -0.5449  -16.5401  -52.7354 H         1 UNK         0.0800 
    247 H247       -1.0824  -15.7399  -51.2736 H         1 UNK         0.0800 
@<TRIPOS>BOND
     1    1    2 1    
     2    1  127 1    
     3    1  128 1    
     4    1  129 1    
     5    2    3 2    
     6    2    4 am   BACKBONE|DICT|INTERRES
     7    4    5 1    
     8    4  130 1    
     9    5    6 1    
    10    5   65 1    
    11    5  131 1    
    12    6    7 1    
    13    6  132 1    
    14    6  133 1    
    15    7    8 1    
    16    8    9 1    
    17    8  134 1    
    18    8  135 1    
    19    9   10 ar   
    20    9   14 ar   
    21   10   11 ar   
    22   10  136 1    
    23   11   12 ar   
    24   11  126 1    
    25   12   13 ar   
    26   12  137 1    
    27   13   14 ar   
    28   13   15 1    
    29   14  138 1    
    30   15   16 1    
    31   15  139 1    
    32   15  140 1    
    33   16   17 1    
    34   17   18 1    
    35   17  141 1    
    36   17  142 1    
    37   18   19 1    
    38   18   67 1    
    39   18  143 1    
    40   19   20 am   BACKBONE|DICT|INTERRES
    41   19  144 1    
    42   20   21 2    
    43   20   22 1    
    44   22   23 1    
    45   22   24 1    
    46   22  145 1    
    47   23  146 1    
    48   23  147 1    
    49   23  148 1    
    50   24   25 am   BACKBONE|DICT|INTERRES
    51   24  149 1    
    52   25   26 2    
    53   25   27 1    
    54   27   28 1    
    55   27   29 1    
    56   27  150 1    
    57   28  151 1    
    58   28  152 1    
    59   28  153 1    
    60   29   30 am   BACKBONE|DICT|INTERRES
    61   29  154 1    
    62   30   31 2    
    63   30   32 1    
    64   32   33 1    
    65   32   34 1    
    66   32  155 1    
    67   33  156 1    
    68   33  157 1    
    69   33  158 1    
    70   34   35 am   BACKBONE|DICT|INTERRES
    71   34  159 1    
    72   35   36 2    
    73   35   37 1    
    74   37   38 1    
    75   37   39 1    
    76   37  160 1    
    77   38  161 1    
    78   38  162 1    
    79   38  163 1    
    80   39   40 am   BACKBONE|DICT|INTERRES
    81   39  164 1    
    82   40   41 2    
    83   40   42 1    
    84   42   43 1    
    85   42   44 1    
    86   42  165 1    
    87   43  166 1    
    88   43  167 1    
    89   43  168 1    
    90   44   45 am   BACKBONE|DICT|INTERRES
    91   44  169 1    
    92   45   46 2    
    93   45   47 1    
    94   47   48 1    
    95   47   49 1    
    96   47  170 1    
    97   48  171 1    
    98   48  172 1    
    99   48  173 1    
   100   49   50 am   BACKBONE|DICT|INTERRES
   101   49  174 1    
   102   50   51 2    
   103   50   52 1    
   104   52   53 1    
   105   52   54 1    
   106   52  175 1    
   107   53  176 1    
   108   53  177 1    
   109   53  178 1    
   110   54   55 am   BACKBONE|DICT|INTERRES
   111   54  179 1    
   112   55   56 2    
   113   55   57 1    
   114   57   58 1    
   115   57   59 1    
   116   57  180 1    
   117   58  181 1    
   118   58  182 1    
   119   58  183 1    
   120   59   60 am   BACKBONE|DICT|INTERRES
   121   59  184 1    
   122   60   61 2    
   123   60   62 1    
   124   62   63 1    
   125   62   64 1    
   126   62  185 1    
   127   63  186 1    
   128   63  187 1    
   129   63  188 1    
   130   64   65 am   BACKBONE|DICT|INTERRES
   131   64  189 1    
   132   65   66 2    
   133   67   68 2    
   134   67   69 am   BACKBONE|DICT|INTERRES
   135   69   70 1    
   136   69  190 1    
   137   70   71 1    
   138   70   72 1    
   139   70  191 1    
   140   71  192 1    
   141   71  193 1    
   142   71  194 1    
   143   72   73 2    
   144   72   74 am   BACKBONE|DICT|INTERRES
   145   74   75 1    
   146   74  195 1    
   147   75   76 1    
   148   75   77 1    
   149   75  196 1    
   150   76  197 1    
   151   76  198 1    
   152   76  199 1    
   153   77   78 2    
   154   77   79 am   BACKBONE|DICT|INTERRES
   155   79   80 1    
   156   79  200 1    
   157   80   81 1    
   158   80   82 1    
   159   80  201 1    
   160   81  202 1    
   161   81  203 1    
   162   81  204 1    
   163   82   83 2    
   164   82   84 am   BACKBONE|DICT|INTERRES
   165   84   85 1    
   166   84  205 1    
   167   85   86 1    
   168   85   87 1    
   169   85  206 1    
   170   86  207 1    
   171   86  208 1    
   172   86  209 1    
   173   87   88 2    
   174   87   89 am   BACKBONE|DICT|INTERRES
   175   89   90 1    
   176   89  210 1    
   177   90   91 1    
   178   90   92 1    
   179   90  211 1    
   180   91  212 1    
   181   91  213 1    
   182   91  214 1    
   183   92   93 2    
   184   92   94 am   BACKBONE|DICT|INTERRES
   185   94   95 1    
   186   94  215 1    
   187   95   96 1    
   188   95   97 1    
   189   95  216 1    
   190   96  217 1    
   191   96  218 1    
   192   96  219 1    
   193   97   98 2    
   194   97   99 am   BACKBONE|DICT|INTERRES
   195   99  100 1    
   196   99  220 1    
   197  100  101 1    
   198  100  102 1    
   199  100  221 1    
   200  101  222 1    
   201  101  223 1    
   202  101  224 1    
   203  102  103 2    
   204  102  104 am   BACKBONE|DICT|INTERRES
   205  104  105 1    
   206  104  225 1    
   207  105  106 1    
   208  105  107 1    
   209  105  226 1    
   210  106  227 1    
   211  106  228 1    
   212  106  229 1    
   213  107  108 2    
   214  107  109 am   BACKBONE|DICT|INTERRES
   215  109  110 1    
   216  109  230 1    
   217  110  111 1    
   218  110  112 1    
   219  110  231 1    
   220  111  232 1    
   221  111  233 1    
   222  111  234 1    
   223  112  113 2    
   224  112  114 am   BACKBONE|DICT|INTERRES
   225  114  115 1    
   226  114  235 1    
   227  115  116 1    
   228  115  117 1    
   229  115  236 1    
   230  116  237 1    
   231  116  238 1    
   232  116  239 1    
   233  117  118 2    
   234  117  119 am   BACKBONE|DICT|INTERRES
   235  119  120 1    
   236  119  240 1    
   237  120  121 1    
   238  120  124 1    
   239  120  241 1    
   240  121  122 am   BACKBONE|DICT|INTERRES
   241  121  123 2    
   242  122  242 1    
   243  122  243 1    
   244  124  125 1    
   245  124  244 1    
   246  124  245 1    
   247  125  126 1    
   248  126  246 1    
   249  126  247 1    
@<TRIPOS>SUBSTRUCTURE
     1 UNK         1 GROUP             0       ****    0 ROOT    
