@<TRIPOS>MOLECULE
3R540
247   249    1
SMALL
USER_CHARGES


@<TRIPOS>ATOM
      1 CA         -0.8945  -10.8547  -49.7413 C.3       0 UNK        -0.1800 
      2 C          -0.2369  -11.8939  -48.8460 C.2       0 UNK         0.5000 
      3 O          -0.7148  -12.1404  -47.7398 O.2       0 UNK        -0.5000 
      4 N           0.8434  -12.5230  -49.3262 N.am      1 UNK        -0.5000 
      5 CA          1.6357  -13.5474  -48.6272 C.3       1 UNK         0.1400 
      6 C6          2.9652  -13.8802  -49.3570 C.3       23 UNK        -0.0398 
      7 S7          2.8462  -13.9661  -51.1804 S.3       23 UNK        -0.2404 
      8 C8          3.4148  -15.6559  -51.5459 C.3       23 UNK        -0.0205 
      9 C9          2.2958  -16.6797  -51.4362 C.ar      23 UNK        -0.0193 
     10 C10         1.2087  -16.6199  -52.3129 C.ar      23 UNK        -0.1150 
     11 C11         0.1924  -17.5759  -52.2532 C.ar      23 UNK        -0.0193 
     12 C12         0.2748  -18.6057  -51.3118 C.ar      23 UNK        -0.1150 
     13 C13         1.3595  -18.6827  -50.4344 C.ar      23 UNK        -0.0193 
     14 C14         2.3639  -17.7116  -50.4958 C.ar      23 UNK        -0.1150 
     15 C15         1.4713  -19.8331  -49.4462 C.3       23 UNK        -0.0205 
     16 S16         0.9973  -19.3293  -47.7643 S.3       23 UNK        -0.2404 
     17 C17        -0.5458  -20.2664  -47.4936 C.3       23 UNK        -0.0398 
     18 CA         -0.2836  -21.7189  -47.0253 C.3       11 UNK         0.1400 
     19 N           0.5230  -21.7945  -45.8019 N.am      11 UNK        -0.5000 
     20 C           1.0786  -22.9188  -45.3292 C.2       10 UNK         0.5000 
     21 O           0.9903  -24.0090  -45.8903 O.2       10 UNK        -0.5000 
     22 CA          1.8098  -22.8266  -43.9793 C.3       10 UNK         0.1400 
     23 CB          3.2413  -22.2972  -44.1541 C.3       10 UNK        -0.1800 
     24 N           1.0798  -21.9951  -43.0238 N.am      10 UNK        -0.5000 
     25 C          -0.0838  -22.3470  -42.4594 C.2       9 UNK         0.5000 
     26 O          -0.6322  -23.4336  -42.6457 O.2       9 UNK        -0.5000 
     27 CA         -0.7735  -21.2895  -41.5789 C.3       9 UNK         0.1400 
     28 CB         -0.2050  -21.3086  -40.1526 C.3       9 UNK        -0.1800 
     29 N          -0.6576  -19.9417  -42.1373 N.am      9 UNK        -0.5000 
     30 C          -1.2643  -19.5440  -43.2650 C.2       8 UNK         0.5000 
     31 O          -2.0113  -20.2633  -43.9253 O.2       8 UNK        -0.5000 
     32 CA         -0.9580  -18.1222  -43.7671 C.3       8 UNK         0.1400 
     33 CB         -1.9441  -17.1234  -43.1472 C.3       8 UNK        -0.1800 
     34 N           0.4142  -17.6775  -43.5142 N.am      8 UNK        -0.5000 
     35 C           1.5164  -18.3161  -43.9334 C.2       7 UNK         0.5000 
     36 O           1.4954  -19.3834  -44.5424 O.2       7 UNK        -0.5000 
     37 CA          2.8723  -17.7003  -43.5523 C.3       7 UNK         0.1400 
     38 CB          3.2434  -16.5702  -44.5220 C.3       7 UNK        -0.1800 
     39 N           2.9044  -17.1966  -42.1796 N.am      7 UNK        -0.5000 
     40 C           2.7153  -17.9254  -41.0723 C.2       6 UNK         0.5000 
     41 O           2.4995  -19.1377  -41.0876 O.2       6 UNK        -0.5000 
     42 CA          2.7328  -17.1819  -39.7200 C.3       6 UNK         0.1400 
     43 CB          4.1669  -17.0487  -39.1732 C.3       6 UNK        -0.1800 
     44 N           2.0284  -15.8903  -39.7305 N.am      6 UNK        -0.5000 
     45 C           2.3509  -14.7611  -40.3759 C.2       5 UNK         0.5000 
     46 O           3.3803  -14.6074  -41.0377 O.2       5 UNK        -0.5000 
     47 CA          1.3169  -13.6221  -40.3044 C.3       5 UNK         0.1400 
     48 CB          1.7873  -12.5249  -39.3377 C.3       5 UNK        -0.1800 
     49 N           1.0476  -13.0258  -41.6157 N.am      5 UNK        -0.5000 
     50 C           0.6231  -13.6904  -42.6995 C.2       4 UNK         0.5000 
     51 O           0.4228  -14.9076  -42.7250 O.2       4 UNK        -0.5000 
     52 CA          0.4071  -12.8467  -43.9694 C.3       4 UNK         0.1400 
     53 CB          1.7215  -12.6635  -44.7425 C.3       4 UNK        -0.1800 
     54 N          -0.5890  -13.4398  -44.8607 N.am      4 UNK        -0.5000 
     55 C          -1.9088  -13.4475  -44.6302 C.2       3 UNK         0.5000 
     56 O          -2.4229  -12.9283  -43.6379 O.2       3 UNK        -0.5000 
     57 CA         -2.8155  -14.1336  -45.6720 C.3       3 UNK         0.1400 
     58 CB         -3.9173  -13.1766  -46.1591 C.3       3 UNK        -0.1800 
     59 N          -2.0689  -14.5997  -46.8411 N.am      3 UNK        -0.5000 
     60 C          -1.9934  -15.8695  -47.2642 C.2       2 UNK         0.5000 
     61 O          -2.5153  -16.8175  -46.6783 O.2       2 UNK        -0.5000 
     62 CA         -1.2412  -16.1277  -48.5875 C.3       2 UNK         0.1400 
     63 CB         -2.2566  -16.2528  -49.7327 C.3       2 UNK        -0.1800 
     64 N          -0.2737  -15.0824  -48.9293 N.am      2 UNK        -0.5000 
     65 C           0.8408  -14.8131  -48.2350 C.2       1 UNK         0.5000 
     66 O           1.2124  -15.4723  -47.2646 O.2       1 UNK        -0.5000 
     67 C          -1.5979  -22.5199  -46.8960 C.2       11 UNK         0.5000 
     68 O          -1.9876  -23.2006  -47.8449 O.2       11 UNK        -0.5000 
     69 N          -2.2333  -22.4793  -45.7153 N.am      12 UNK        -0.5000 
     70 CA         -3.3931  -23.3034  -45.3735 C.3       12 UNK         0.1400 
     71 CB         -3.9721  -22.8684  -44.0192 C.3       12 UNK        -0.1800 
     72 C          -3.0624  -24.8070  -45.3751 C.2       12 UNK         0.5000 
     73 O          -3.7958  -25.5869  -45.9853 O.2       12 UNK        -0.5000 
     74 N          -1.9440  -25.1759  -44.7318 N.am      13 UNK        -0.5000 
     75 CA         -1.4255  -26.5451  -44.6760 C.3       13 UNK         0.1400 
     76 CB         -0.2353  -26.6072  -43.7075 C.3       13 UNK        -0.1800 
     77 C          -1.0360  -27.1086  -46.0562 C.2       13 UNK         0.5000 
     78 O          -1.2440  -28.2970  -46.3048 O.2       13 UNK        -0.5000 
     79 N          -0.5314  -26.2458  -46.9483 N.am      14 UNK        -0.5000 
     80 CA         -0.1895  -26.5332  -48.3441 C.3       14 UNK         0.1400 
     81 CB          0.7912  -25.4571  -48.8452 C.3       14 UNK        -0.1800 
     82 C          -1.4301  -26.6717  -49.2578 C.2       14 UNK         0.5000 
     83 O          -1.4778  -26.0690  -50.3310 O.2       14 UNK        -0.5000 
     84 N          -2.4058  -27.4782  -48.8170 N.am      15 UNK        -0.5000 
     85 CA         -3.6599  -27.8269  -49.4907 C.3       15 UNK         0.1400 
     86 CB         -3.3776  -28.7133  -50.7222 C.3       15 UNK        -0.1800 
     87 C          -4.5469  -26.6054  -49.8145 C.2       15 UNK         0.5000 
     88 O          -5.1333  -26.5444  -50.8970 O.2       15 UNK        -0.5000 
     89 N          -4.6376  -25.6677  -48.8581 N.am      16 UNK        -0.5000 
     90 CA         -5.4186  -24.4279  -48.9105 C.3       16 UNK         0.1400 
     91 CB         -6.9304  -24.7344  -48.8774 C.3       16 UNK        -0.1800 
     92 C          -5.0106  -23.5154  -50.0847 C.2       16 UNK         0.5000 
     93 O          -5.8362  -23.1867  -50.9406 O.2       16 UNK        -0.5000 
     94 N          -3.7326  -23.1174  -50.1030 N.am      17 UNK        -0.5000 
     95 CA         -3.1416  -22.2077  -51.0830 C.3       17 UNK         0.1400 
     96 CB         -1.6131  -22.3975  -51.0787 C.3       17 UNK        -0.1800 
     97 C          -3.5646  -20.7485  -50.8138 C.2       17 UNK         0.5000 
     98 O          -2.7505  -19.9298  -50.3891 O.2       17 UNK        -0.5000 
     99 N          -4.8501  -20.4573  -51.0399 N.am      18 UNK        -0.5000 
    100 CA        -5.4447  -19.1237  -50.9581 C.3       18 UNK         0.1400 
    101 CB        -6.9699  -19.2670  -51.0808 C.3       18 UNK        -0.1800 
    102 C         -4.9085  -18.1821  -52.0530 C.2       18 UNK         0.5000 
    103 O         -4.3929  -18.6511  -53.0688 O.2       18 UNK        -0.5000 
    104 N         -5.0928  -16.8689  -51.8585 N.am      19 UNK        -0.5000 
    105 CA        -4.6543  -15.8082  -52.7767 C.3       19 UNK         0.1400 
    106 CB        -4.9792  -14.4414  -52.1535 C.3       19 UNK        -0.1800 
    107 C         -5.2520  -15.9003  -54.1973 C.2       19 UNK         0.5000 
    108 O         -4.6236  -15.4426  -55.1517 O.2       19 UNK        -0.5000 
    109 N         -6.4445  -16.4998  -54.3097 N.am      20 UNK        -0.5000 
    110 CA        -7.1292  -16.7833  -55.5721 C.3       20 UNK         0.1400 
    111 CB        -8.6378  -16.8803  -55.2914 C.3       20 UNK        -0.1800 
    112 C         -6.6267  -18.0677  -56.2678 C.2       20 UNK         0.5000 
    113 O         -7.0122  -18.3149  -57.4117 O.2       20 UNK        -0.5000 
    114 N         -5.8092  -18.8691  -55.5737 N.am      21 UNK        -0.5000 
    115 CA        -5.2454  -20.1318  -56.0366 C.3       21 UNK         0.1400 
    116 CB        -5.7443  -21.2586  -55.1061 C.3       21 UNK        -0.1800 
    117 C         -3.7109  -19.9949  -56.1019 C.2       21 UNK         0.5000 
    118 O         -3.2247  -19.0558  -56.7326 O.2       21 UNK        -0.5000 
    119 N         -2.9918  -20.9429  -55.4846 N.am      22 UNK        -0.5000 
    120 CA        -1.5259  -21.0438  -55.3368 C.3       22 UNK         0.1400 
    121 C         -0.6783  -21.1462  -56.6436 C.2       22 UNK         0.5000 
    122 N         -1.2775  -21.3122  -57.8158 N.am      22 UNK        -0.7600 
    123 O          0.5487  -21.1331  -56.5912 O.2       22 UNK        -0.5000 
    124 C124       -0.9411  -20.0782  -54.2640 C.3       23 UNK        -0.0398 
    125 S125       -0.7116  -18.3371  -54.7665 S.3       23 UNK        -0.2404 
    126 C126       -1.0014  -17.4760  -53.1914 C.3       23 UNK        -0.0205 
    127 H127       -0.8953   -9.8828  -49.2479 H         1 UNK         0.0600 
    128 H128       -1.9277  -11.1359  -49.9448 H         1 UNK         0.0600 
    129 H129       -0.3745  -10.7530  -50.6941 H         1 UNK         0.0600 
    130 H130        1.1771  -12.2957  -50.2531 H         1 UNK         0.3000 
    131 H131        1.9192  -13.0958  -47.6753 H         1 UNK         0.0600 
    132 H132        3.4152  -14.7934  -48.9627 H         1 UNK         0.0800 
    133 H133        3.6874  -13.0935  -49.1351 H         1 UNK         0.0800 
    134 H134        4.2564  -15.9144  -50.9016 H         1 UNK         0.0800 
    135 H135        3.8003  -15.6765  -52.5662 H         1 UNK         0.0800 
    136 H136        1.1553  -15.8258  -53.0445 H         1 UNK         0.1150 
    137 H137       -0.5022  -19.3525  -51.2666 H         1 UNK         0.1150 
    138 H138        3.2055  -17.7719  -49.8200 H         1 UNK         0.1150 
    139 H139        0.8706  -20.6812  -49.7767 H         1 UNK         0.0800 
    140 H140        2.5024  -20.1886  -49.4237 H         1 UNK         0.0800 
    141 H141       -1.1268  -20.2528  -48.4154 H         1 UNK         0.0800 
    142 H142       -1.1408  -19.7293  -46.7532 H         1 UNK         0.0800 
    143 H143        0.2958  -22.2083  -47.8108 H         1 UNK         0.0600 
    144 H144        0.7051  -20.9188  -45.3168 H         1 UNK         0.3000 
    145 H145        1.8762  -23.8354  -43.5667 H         1 UNK         0.0600 
    146 H146        3.7652  -22.2541  -43.1991 H         1 UNK         0.0600 
    147 H147        3.8166  -22.9498  -44.8119 H         1 UNK         0.0600 
    148 H148        3.2589  -21.2991  -44.5911 H         1 UNK         0.0600 
    149 H149        1.4329  -21.0598  -42.8717 H         1 UNK         0.3000 
    150 H150       -1.8343  -21.5431  -41.5234 H         1 UNK         0.0600 
    151 H151       -0.3242  -22.2940  -39.7004 H         1 UNK         0.0600 
    152 H152       -0.7204  -20.5927  -39.5121 H         1 UNK         0.0600 
    153 H153        0.8585  -21.0686  -40.1372 H         1 UNK         0.0600 
    154 H154       -0.0191  -19.3074  -41.6789 H         1 UNK         0.3000 
    155 H155       -1.1002  -18.1217  -44.8485 H         1 UNK         0.0600 
    156 H156       -1.8112  -17.0416  -42.0678 H         1 UNK         0.0600 
    157 H157       -2.9762  -17.4221  -43.3351 H         1 UNK         0.0600 
    158 H158       -1.8131  -16.1325  -43.5757 H         1 UNK         0.0600 
    159 H159        0.5183  -16.7731  -43.0598 H         1 UNK         0.3000 
    160 H160        3.6275  -18.4845  -43.6349 H         1 UNK         0.0600 
    161 H161        2.5293  -15.7497  -44.4635 H         1 UNK         0.0600 
    162 H162        3.2474  -16.9256  -45.5536 H         1 UNK         0.0600 
    163 H163        4.2348  -16.1712  -44.3078 H         1 UNK         0.0600 
    164 H164        3.0760  -16.2031  -42.0566 H         1 UNK         0.3000 
    165 H165        2.1785  -17.8081  -39.0191 H         1 UNK         0.0600 
    166 H166        4.8089  -16.4713  -39.8386 H         1 UNK         0.0600 
    167 H167        4.1732  -16.5651  -38.1964 H         1 UNK         0.0600 
    168 H168        4.6268  -18.0303  -39.0530 H         1 UNK         0.0600 
    169 H169        1.1444  -15.9014  -39.2406 H         1 UNK         0.3000 
    170 H170        0.3729  -14.0261  -39.9331 H         1 UNK         0.0600 
    171 H171        2.7113  -12.0570  -39.6800 H         1 UNK         0.0600 
    172 H172        1.0347  -11.7437  -39.2288 H         1 UNK         0.0600 
    173 H173        1.9754  -12.9340  -38.3441 H         1 UNK         0.0600 
    174 H174        1.2201  -12.0343  -41.6929 H         1 UNK         0.3000 
    175 H175        0.0498  -11.8603  -43.6660 H         1 UNK         0.0600 
    176 H176        2.5093  -12.2719  -44.0977 H         1 UNK         0.0600 
    177 H177        1.5935  -11.9558  -45.5617 H         1 UNK         0.0600 
    178 H178        2.0780  -13.6028  -45.1640 H         1 UNK         0.0600 
    179 H179       -0.2402  -13.9290  -45.6715 H         1 UNK         0.3000 
    180 H180       -3.2958  -14.9721  -45.1646 H         1 UNK         0.0600 
    181 H181       -4.5793  -13.6691  -46.8715 H         1 UNK         0.0600 
    182 H182       -3.4954  -12.2966  -46.6467 H         1 UNK         0.0600 
    183 H183       -4.5356  -12.8302  -45.3301 H         1 UNK         0.0600 
    184 H184       -1.5950  -13.8715  -47.3678 H         1 UNK         0.3000 
    185 H185       -0.7031  -17.0719  -48.4959 H         1 UNK         0.0600 
    186 H186       -1.7623  -16.3965  -50.6901 H         1 UNK         0.0600 
    187 H187       -2.9151  -17.1083  -49.5765 H         1 UNK         0.0600 
    188 H188       -2.8814  -15.3634  -49.8112 H         1 UNK         0.0600 
    189 H189       -0.5032  -14.4865  -49.7105 H         1 UNK         0.3000 
    190 H190       -1.9068  -21.8382  -44.9973 H         1 UNK         0.3000 
    191 H191       -4.1576  -23.1257  -46.1297 H         1 UNK         0.0600 
    192 H192       -4.8392  -23.4738  -43.7525 H         1 UNK         0.0600 
    193 H193       -4.2993  -21.8290  -44.0474 H         1 UNK         0.0600 
    194 H194       -3.2430  -22.9670  -43.2152 H         1 UNK         0.0600 
    195 H195       -1.4148  -24.4724  -44.2267 H         1 UNK         0.3000 
    196 H196       -2.2191  -27.1798  -44.2766 H         1 UNK         0.0600 
    197 H197        0.5875  -25.9741  -44.0391 H         1 UNK         0.0600 
    198 H198       -0.5237  -26.2844  -42.7070 H         1 UNK         0.0600 
    199 H199        0.1471  -27.6252  -43.6231 H         1 UNK         0.0600 
    200 H200       -0.3426  -25.2992  -46.6346 H         1 UNK         0.3000 
    201 H201        0.3317  -27.4919  -48.3750 H         1 UNK         0.0600 
    202 H202        1.1299  -25.6733  -49.8590 H         1 UNK         0.0600 
    203 H203        0.3289  -24.4696  -48.8559 H         1 UNK         0.0600 
    204 H204        1.6780  -25.4055  -48.2135 H         1 UNK         0.0600 
    205 H205       -2.2517  -27.9193  -47.9150 H         1 UNK         0.3000 
    206 H206       -4.2277  -28.4281  -48.7793 H         1 UNK         0.0600 
    207 H207       -2.7744  -29.5806  -50.4538 H         1 UNK         0.0600 
    208 H208       -4.3051  -29.0876  -51.1569 H         1 UNK         0.0600 
    209 H209       -2.8483  -28.1650  -51.5022 H         1 UNK         0.0600 
    210 H210       -4.1191  -25.8102  -47.9970 H         1 UNK         0.3000 
    211 H211       -5.1835  -23.8768  -48.0015 H         1 UNK         0.0600 
    212 H212       -7.5127  -23.8138  -48.8232 H         1 UNK         0.0600 
    213 H213       -7.1907  -25.3345  -48.0055 H         1 UNK         0.0600 
    214 H214       -7.2575  -25.2748  -49.7661 H         1 UNK         0.0600 
    215 H215       -3.1211  -23.3897  -49.3364 H         1 UNK         0.3000 
    216 H216       -3.5038  -22.4785  -52.0769 H         1 UNK         0.0600 
    217 H217       -1.1347  -21.7786  -51.8360 H         1 UNK         0.0600 
    218 H218       -1.3450  -23.4324  -51.2912 H         1 UNK         0.0600 
    219 H219       -1.1730  -22.1323  -50.1183 H         1 UNK         0.0600 
    220 H220       -5.4579  -21.2146  -51.3316 H         1 UNK         0.3000 
    221 H221       -5.2005  -18.6979  -49.9827 H         1 UNK         0.0600 
    222 H222       -7.3676  -19.9210  -50.3043 H         1 UNK         0.0600 
    223 H223       -7.2573  -19.6832  -52.0476 H         1 UNK         0.0600 
    224 H224       -7.4688  -18.3028  -50.9762 H         1 UNK         0.0600 
    225 H225       -5.5488  -16.5612  -51.0118 H         1 UNK         0.3000 
    226 H226       -3.5707  -15.8881  -52.8759 H         1 UNK         0.0600 
    227 H227       -4.4940  -14.3166  -51.1862 H         1 UNK         0.0600 
    228 H228       -4.6338  -13.6284  -52.7936 H         1 UNK         0.0600 
    229 H229       -6.0524  -14.3113  -52.0093 H         1 UNK         0.0600 
    230 H230       -6.8894  -16.8375  -53.4693 H         1 UNK         0.3000 
    231 H231       -6.9642  -15.9525  -56.2613 H         1 UNK         0.0600 
    232 H232       -8.8684  -17.7014  -54.6114 H         1 UNK         0.0600 
    233 H233       -9.1983  -17.0494  -56.2118 H         1 UNK         0.0600 
    234 H234       -9.0168  -15.9594  -54.8480 H         1 UNK         0.0600 
    235 H235       -5.4595  -18.5585  -54.6720 H         1 UNK         0.3000 
    236 H236       -5.5823  -20.3566  -57.0503 H         1 UNK         0.0600 
    237 H237       -6.8339  -21.2940  -55.0924 H         1 UNK         0.0600 
    238 H238       -5.4017  -22.2375  -55.4433 H         1 UNK         0.0600 
    239 H239       -5.4103  -21.1162  -54.0772 H         1 UNK         0.0600 
    240 H240       -3.5103  -21.6842  -55.0373 H         1 UNK         0.3000 
    241 H241       -1.4043  -22.0391  -54.9079 H         1 UNK         0.0600 
    242 H242       -0.7199  -21.3958  -58.6514 H         1 UNK         0.3800 
    243 H243       -2.2824  -21.3099  -57.8803 H         1 UNK         0.3800 
    244 H244        0.0270  -20.4487  -53.9234 H         1 UNK         0.0800 
    245 H245       -1.5891  -20.0999  -53.3878 H         1 UNK         0.0800 
    246 H246       -1.8949  -17.8717  -52.7085 H         1 UNK         0.0800 
    247 H247       -1.2118  -16.4271  -53.4039 H         1 UNK         0.0800 
@<TRIPOS>BOND
     1    1    2 1    
     2    1  127 1    
     3    1  128 1    
     4    1  129 1    
     5    2    3 2    
     6    2    4 am   BACKBONE|DICT|INTERRES
     7    4    5 1    
     8    4  130 1    
     9    5    6 1    
    10    5   65 1    
    11    5  131 1    
    12    6    7 1    
    13    6  132 1    
    14    6  133 1    
    15    7    8 1    
    16    8    9 1    
    17    8  134 1    
    18    8  135 1    
    19    9   10 ar   
    20    9   14 ar   
    21   10   11 ar   
    22   10  136 1    
    23   11   12 ar   
    24   11  126 1    
    25   12   13 ar   
    26   12  137 1    
    27   13   14 ar   
    28   13   15 1    
    29   14  138 1    
    30   15   16 1    
    31   15  139 1    
    32   15  140 1    
    33   16   17 1    
    34   17   18 1    
    35   17  141 1    
    36   17  142 1    
    37   18   19 1    
    38   18   67 1    
    39   18  143 1    
    40   19   20 am   BACKBONE|DICT|INTERRES
    41   19  144 1    
    42   20   21 2    
    43   20   22 1    
    44   22   23 1    
    45   22   24 1    
    46   22  145 1    
    47   23  146 1    
    48   23  147 1    
    49   23  148 1    
    50   24   25 am   BACKBONE|DICT|INTERRES
    51   24  149 1    
    52   25   26 2    
    53   25   27 1    
    54   27   28 1    
    55   27   29 1    
    56   27  150 1    
    57   28  151 1    
    58   28  152 1    
    59   28  153 1    
    60   29   30 am   BACKBONE|DICT|INTERRES
    61   29  154 1    
    62   30   31 2    
    63   30   32 1    
    64   32   33 1    
    65   32   34 1    
    66   32  155 1    
    67   33  156 1    
    68   33  157 1    
    69   33  158 1    
    70   34   35 am   BACKBONE|DICT|INTERRES
    71   34  159 1    
    72   35   36 2    
    73   35   37 1    
    74   37   38 1    
    75   37   39 1    
    76   37  160 1    
    77   38  161 1    
    78   38  162 1    
    79   38  163 1    
    80   39   40 am   BACKBONE|DICT|INTERRES
    81   39  164 1    
    82   40   41 2    
    83   40   42 1    
    84   42   43 1    
    85   42   44 1    
    86   42  165 1    
    87   43  166 1    
    88   43  167 1    
    89   43  168 1    
    90   44   45 am   BACKBONE|DICT|INTERRES
    91   44  169 1    
    92   45   46 2    
    93   45   47 1    
    94   47   48 1    
    95   47   49 1    
    96   47  170 1    
    97   48  171 1    
    98   48  172 1    
    99   48  173 1    
   100   49   50 am   BACKBONE|DICT|INTERRES
   101   49  174 1    
   102   50   51 2    
   103   50   52 1    
   104   52   53 1    
   105   52   54 1    
   106   52  175 1    
   107   53  176 1    
   108   53  177 1    
   109   53  178 1    
   110   54   55 am   BACKBONE|DICT|INTERRES
   111   54  179 1    
   112   55   56 2    
   113   55   57 1    
   114   57   58 1    
   115   57   59 1    
   116   57  180 1    
   117   58  181 1    
   118   58  182 1    
   119   58  183 1    
   120   59   60 am   BACKBONE|DICT|INTERRES
   121   59  184 1    
   122   60   61 2    
   123   60   62 1    
   124   62   63 1    
   125   62   64 1    
   126   62  185 1    
   127   63  186 1    
   128   63  187 1    
   129   63  188 1    
   130   64   65 am   BACKBONE|DICT|INTERRES
   131   64  189 1    
   132   65   66 2    
   133   67   68 2    
   134   67   69 am   BACKBONE|DICT|INTERRES
   135   69   70 1    
   136   69  190 1    
   137   70   71 1    
   138   70   72 1    
   139   70  191 1    
   140   71  192 1    
   141   71  193 1    
   142   71  194 1    
   143   72   73 2    
   144   72   74 am   BACKBONE|DICT|INTERRES
   145   74   75 1    
   146   74  195 1    
   147   75   76 1    
   148   75   77 1    
   149   75  196 1    
   150   76  197 1    
   151   76  198 1    
   152   76  199 1    
   153   77   78 2    
   154   77   79 am   BACKBONE|DICT|INTERRES
   155   79   80 1    
   156   79  200 1    
   157   80   81 1    
   158   80   82 1    
   159   80  201 1    
   160   81  202 1    
   161   81  203 1    
   162   81  204 1    
   163   82   83 2    
   164   82   84 am   BACKBONE|DICT|INTERRES
   165   84   85 1    
   166   84  205 1    
   167   85   86 1    
   168   85   87 1    
   169   85  206 1    
   170   86  207 1    
   171   86  208 1    
   172   86  209 1    
   173   87   88 2    
   174   87   89 am   BACKBONE|DICT|INTERRES
   175   89   90 1    
   176   89  210 1    
   177   90   91 1    
   178   90   92 1    
   179   90  211 1    
   180   91  212 1    
   181   91  213 1    
   182   91  214 1    
   183   92   93 2    
   184   92   94 am   BACKBONE|DICT|INTERRES
   185   94   95 1    
   186   94  215 1    
   187   95   96 1    
   188   95   97 1    
   189   95  216 1    
   190   96  217 1    
   191   96  218 1    
   192   96  219 1    
   193   97   98 2    
   194   97   99 am   BACKBONE|DICT|INTERRES
   195   99  100 1    
   196   99  220 1    
   197  100  101 1    
   198  100  102 1    
   199  100  221 1    
   200  101  222 1    
   201  101  223 1    
   202  101  224 1    
   203  102  103 2    
   204  102  104 am   BACKBONE|DICT|INTERRES
   205  104  105 1    
   206  104  225 1    
   207  105  106 1    
   208  105  107 1    
   209  105  226 1    
   210  106  227 1    
   211  106  228 1    
   212  106  229 1    
   213  107  108 2    
   214  107  109 am   BACKBONE|DICT|INTERRES
   215  109  110 1    
   216  109  230 1    
   217  110  111 1    
   218  110  112 1    
   219  110  231 1    
   220  111  232 1    
   221  111  233 1    
   222  111  234 1    
   223  112  113 2    
   224  112  114 am   BACKBONE|DICT|INTERRES
   225  114  115 1    
   226  114  235 1    
   227  115  116 1    
   228  115  117 1    
   229  115  236 1    
   230  116  237 1    
   231  116  238 1    
   232  116  239 1    
   233  117  118 2    
   234  117  119 am   BACKBONE|DICT|INTERRES
   235  119  120 1    
   236  119  240 1    
   237  120  121 1    
   238  120  124 1    
   239  120  241 1    
   240  121  122 am   BACKBONE|DICT|INTERRES
   241  121  123 2    
   242  122  242 1    
   243  122  243 1    
   244  124  125 1    
   245  124  244 1    
   246  124  245 1    
   247  125  126 1    
   248  126  246 1    
   249  126  247 1    
@<TRIPOS>SUBSTRUCTURE
     1 UNK         1 GROUP             0       ****    0 ROOT    
