@<TRIPOS>MOLECULE
3R540
247   249    1
SMALL
USER_CHARGES


@<TRIPOS>ATOM
      1 CA          2.9760  -10.8214  -42.7418 C.3       0 UNK        -0.1800 
      2 C           3.3697  -10.6146  -44.1959 C.2       0 UNK         0.5000 
      3 O           4.4320  -10.0537  -44.4667 O.2       0 UNK        -0.5000 
      4 N           2.5191  -11.0545  -45.1341 N.am      1 UNK        -0.5000 
      5 CA          2.6638  -10.8102  -46.5766 C.3       1 UNK         0.1400 
      6 C6          1.3387  -11.0456  -47.3424 C.3       23 UNK        -0.0398 
      7 S7          0.7874  -12.7877  -47.4372 S.3       23 UNK        -0.2404 
      8 C8          1.0744  -13.0973  -49.2067 C.3       23 UNK        -0.0205 
      9 C9          0.5635  -14.4579  -49.6493 C.ar      23 UNK        -0.0193 
     10 C10        -0.7874  -14.6294  -49.9681 C.ar      23 UNK        -0.1150 
     11 C11        -1.2623  -15.8578  -50.4391 C.ar      23 UNK        -0.0193 
     12 C12        -0.3555  -16.9077  -50.6123 C.ar      23 UNK        -0.1150 
     13 C13         0.9901  -16.7643  -50.2615 C.ar      23 UNK        -0.0193 
     14 C14         1.4446  -15.5349  -49.7782 C.ar      23 UNK        -0.1150 
     15 C15         1.9488  -17.9386  -50.4125 C.3       23 UNK        -0.0205 
     16 S16         1.9091  -19.0501  -48.9666 S.3       23 UNK        -0.2404 
     17 C17         0.2080  -19.6915  -49.0895 C.3       23 UNK        -0.0398 
     18 CA         -0.0457  -20.9810  -48.2852 C.3       11 UNK         0.1400 
     19 N          -0.0134  -20.7558  -46.8393 N.am      11 UNK        -0.5000 
     20 C          -0.1005  -21.7207  -45.9135 C.2       10 UNK         0.5000 
     21 O          -0.1501  -22.9228  -46.1774 O.2       10 UNK        -0.5000 
     22 CA         -0.2153  -21.2611  -44.4495 C.3       10 UNK         0.1400 
     23 CB          1.1547  -20.8546  -43.8857 C.3       10 UNK        -0.1800 
     24 N          -1.1614  -20.1569  -44.2889 N.am      10 UNK        -0.5000 
     25 C          -2.4749  -20.2340  -44.5434 C.2       9 UNK         0.5000 
     26 O          -3.0425  -21.2652  -44.9005 O.2       9 UNK        -0.5000 
     27 CA         -3.2851  -18.9331  -44.4195 C.3       9 UNK         0.1400 
     28 CB         -3.6386  -18.6399  -42.9537 C.3       9 UNK        -0.1800 
     29 N          -2.5823  -17.7885  -44.9965 N.am      9 UNK        -0.5000 
     30 C          -2.3678  -17.6116  -46.3077 C.2       8 UNK         0.5000 
     31 O          -2.7579  -18.3876  -47.1796 O.2       8 UNK        -0.5000 
     32 CA         -1.5438  -16.3755  -46.7091 C.3       8 UNK         0.1400 
     33 CB         -2.4443  -15.1358  -46.8117 C.3       8 UNK        -0.1800 
     34 N          -0.4329  -16.0992  -45.7972 N.am      8 UNK        -0.5000 
     35 C           0.5902  -16.9387  -45.5888 C.2       7 UNK         0.5000 
     36 O           0.6770  -18.0551  -46.0968 O.2       7 UNK        -0.5000 
     37 CA          1.6742  -16.4709  -44.6031 C.3       7 UNK         0.1400 
     38 CB          2.4698  -15.3035  -45.2108 C.3       7 UNK        -0.1800 
     39 N           1.1717  -16.0947  -43.2744 N.am      7 UNK        -0.5000 
     40 C           0.3210  -16.8087  -42.5162 C.2       6 UNK         0.5000 
     41 O          -0.1814  -17.8721  -42.8786 O.2       6 UNK        -0.5000 
     42 CA         -0.0299  -16.2590  -41.1195 C.3       6 UNK         0.1400 
     43 CB         -0.3027  -17.3875  -40.1079 C.3       6 UNK        -0.1800 
     44 N           1.0389  -15.4119  -40.5950 N.am      6 UNK        -0.5000 
     45 C           0.9489  -14.0989  -40.3537 C.2       5 UNK         0.5000 
     46 O          -0.0734  -13.4349  -40.5274 O.2       5 UNK        -0.5000 
     47 CA          2.2265  -13.4035  -39.8410 C.3       5 UNK         0.1400 
     48 CB          2.1729  -13.2453  -38.3139 C.3       5 UNK        -0.1800 
     49 N           3.4765  -14.0823  -40.2050 N.am      5 UNK        -0.5000 
     50 C           3.9110  -14.2643  -41.4583 C.2       4 UNK         0.5000 
     51 O           3.2592  -13.9578  -42.4581 O.2       4 UNK        -0.5000 
     52 CA          5.2900  -14.9227  -41.6278 C.3       4 UNK         0.1400 
     53 CB          5.1399  -16.3769  -42.1002 C.3       4 UNK        -0.1800 
     54 N           6.0979  -14.1819  -42.5937 N.am      4 UNK        -0.5000 
     55 C           6.5955  -12.9556  -42.3956 C.2       3 UNK         0.5000 
     56 O           6.5145  -12.3567  -41.3222 O.2       3 UNK        -0.5000 
     57 CA          7.2836  -12.2642  -43.5886 C.3       3 UNK         0.1400 
     58 CB          8.7640  -12.6763  -43.6990 C.3       3 UNK        -0.1800 
     59 N           6.5788  -12.4114  -44.8697 N.am      3 UNK        -0.5000 
     60 C           6.4179  -13.5019  -45.6342 C.2       2 UNK         0.5000 
     61 O           6.8400  -14.6199  -45.3355 O.2       2 UNK        -0.5000 
     62 CA          5.5966  -13.2958  -46.9176 C.3       2 UNK         0.1400 
     63 CB          5.2678  -14.6052  -47.6584 C.3       2 UNK        -0.1800 
     64 N           4.3658  -12.5892  -46.5716 N.am      2 UNK        -0.5000 
     65 C           3.8658  -11.5348  -47.2264 C.2       1 UNK         0.5000 
     66 O           4.3271  -11.1060  -48.2850 O.2       1 UNK        -0.5000 
     67 C          -1.3768  -21.6178  -48.7323 C.2       11 UNK         0.5000 
     68 O          -1.3495  -22.5984  -49.4730 O.2       11 UNK        -0.5000 
     69 N          -2.5130  -21.0813  -48.2591 N.am      12 UNK        -0.5000 
     70 CA         -3.8480  -21.6138  -48.5375 C.3       12 UNK         0.1400 
     71 CB         -4.9240  -20.6824  -47.9633 C.3       12 UNK        -0.1800 
     72 C          -4.0389  -23.0514  -48.0255 C.2       12 UNK         0.5000 
     73 O          -4.5920  -23.8748  -48.7532 O.2       12 UNK        -0.5000 
     74 N          -3.5476  -23.3412  -46.8130 N.am      13 UNK        -0.5000 
     75 CA         -3.5436  -24.6765  -46.2145 C.3       13 UNK         0.1400 
     76 CB         -3.0689  -24.5931  -44.7562 C.3       13 UNK        -0.1800 
     77 C          -2.6950  -25.6804  -47.0153 C.2       13 UNK         0.5000 
     78 O          -3.1647  -26.7866  -47.2856 O.2       13 UNK        -0.5000 
     79 N          -1.4894  -25.2618  -47.4296 N.am      14 UNK        -0.5000 
     80 CA         -0.5956  -26.0313  -48.3017 C.3       14 UNK         0.1400 
     81 CB          0.7584  -25.3142  -48.4102 C.3       14 UNK        -0.1800 
     82 C          -1.1951  -26.2877  -49.6993 C.2       14 UNK         0.5000 
     83 O          -0.9919  -27.3625  -50.2640 O.2       14 UNK        -0.5000 
     84 N          -1.9699  -25.3185  -50.2010 N.am      15 UNK        -0.5000 
     85 CA         -2.7520  -25.3839  -51.4351 C.3       15 UNK         0.1400 
     86 CB         -2.9218  -23.9569  -51.9856 C.3       15 UNK        -0.1800 
     87 C          -4.1138  -26.0968  -51.2679 C.2       15 UNK         0.5000 
     88 O          -4.9768  -25.9358  -52.1294 O.2       15 UNK        -0.5000 
     89 N          -4.2985  -26.8641  -50.1819 N.am      16 UNK        -0.5000 
     90 CA         -5.4652  -27.6995  -49.8736 C.3       16 UNK         0.1400 
     91 CB         -5.5721  -28.8693  -50.8749 C.3       16 UNK        -0.1800 
     92 C          -6.7697  -26.8857  -49.7529 C.2       16 UNK         0.5000 
     93 O          -7.7674  -27.2056  -50.4013 O.2       16 UNK        -0.5000 
     94 N          -6.7134  -25.8339  -48.9247 N.am      17 UNK        -0.5000 
     95 CA         -7.7482  -24.8196  -48.6982 C.3       17 UNK         0.1400 
     96 CB         -9.0503  -25.4372  -48.1452 C.3       17 UNK        -0.1800 
     97 C          -7.9570  -23.9338  -49.9428 C.2       17 UNK         0.5000 
     98 O          -9.0937  -23.6523  -50.3264 O.2       17 UNK        -0.5000 
     99 N          -6.8303  -23.5079  -50.5329 N.am      18 UNK        -0.5000 
    100 CA        -6.7052  -22.6364  -51.7037 C.3       18 UNK         0.1400 
    101 CB        -7.1446  -21.1993  -51.3515 C.3       18 UNK        -0.1800 
    102 C         -7.4022  -23.1970  -52.9615 C.2       18 UNK         0.5000 
    103 O         -8.1202  -22.4678  -53.6513 O.2       18 UNK        -0.5000 
    104 N         -7.1726  -24.4858  -53.2472 N.am      19 UNK        -0.5000 
    105 CA        -7.6211  -25.1543  -54.4658 C.3       19 UNK         0.1400 
    106 CB        -7.4557  -26.6748  -54.3087 C.3       19 UNK        -0.1800 
    107 C         -6.8264  -24.6136  -55.6680 C.2       19 UNK         0.5000 
    108 O         -5.6136  -24.8212  -55.7367 O.2       19 UNK        -0.5000 
    109 N         -7.5249  -23.8931  -56.5574 N.am      20 UNK        -0.5000 
    110 CA        -6.9769  -23.0767  -57.6483 C.3       20 UNK         0.1400 
    111 CB        -6.2438  -23.9424  -58.6959 C.3       20 UNK        -0.1800 
    112 C         -6.1328  -21.8937  -57.1199 C.2       20 UNK         0.5000 
    113 O         -5.0711  -21.5944  -57.6697 O.2       20 UNK        -0.5000 
    114 N         -6.6517  -21.2440  -56.0657 N.am      21 UNK        -0.5000 
    115 CA        -6.0792  -20.1316  -55.2991 C.3       21 UNK         0.1400 
    116 CB        -5.6953  -18.9435  -56.2084 C.3       21 UNK        -0.1800 
    117 C         -4.9251  -20.5671  -54.3729 C.2       21 UNK         0.5000 
    118 O         -4.5463  -21.7384  -54.3416 O.2       21 UNK        -0.5000 
    119 N         -4.4217  -19.6112  -53.5838 N.am      22 UNK        -0.5000 
    120 CA        -3.3509  -19.8022  -52.5906 C.3       22 UNK         0.1400 
    121 C         -1.9208  -20.0066  -53.1768 C.2       22 UNK         0.5000 
    122 N         -1.7010  -19.8570  -54.4771 N.am      22 UNK        -0.7600 
    123 O         -0.9938  -20.3156  -52.4363 O.2       22 UNK        -0.5000 
    124 C124       -3.3891  -18.6889  -51.5093 C.3       23 UNK        -0.0398 
    125 S125       -3.1657  -17.0026  -52.1906 S.3       23 UNK        -0.2404 
    126 C126       -2.7585  -16.0400  -50.6943 C.3       23 UNK        -0.0205 
    127 H127        3.8016  -11.2689  -42.1889 H         1 UNK         0.0600 
    128 H128        2.1068  -11.4728  -42.6484 H         1 UNK         0.0600 
    129 H129        2.7370   -9.8642  -42.2790 H         1 UNK         0.0600 
    130 H130        1.6733  -11.5316  -44.8556 H         1 UNK         0.3000 
    131 H131        2.8844   -9.7450  -46.6770 H         1 UNK         0.0600 
    132 H132        0.5406  -10.4721  -46.8692 H         1 UNK         0.0800 
    133 H133        1.4220  -10.6311  -48.3484 H         1 UNK         0.0800 
    134 H134        2.1411  -13.0073  -49.4190 H         1 UNK         0.0800 
    135 H135        0.5784  -12.3244  -49.7960 H         1 UNK         0.0800 
    136 H136       -1.4706  -13.8014  -49.8403 H         1 UNK         0.1150 
    137 H137       -0.6965  -17.8536  -51.0007 H         1 UNK         0.1150 
    138 H138        2.4862  -15.4121  -49.5173 H         1 UNK         0.1150 
    139 H139        1.7097  -18.5031  -51.3153 H         1 UNK         0.0800 
    140 H140        2.9681  -17.5731  -50.5452 H         1 UNK         0.0800 
    141 H141        0.0152  -19.8736  -50.1461 H         1 UNK         0.0800 
    142 H142       -0.4840  -18.9116  -48.7691 H         1 UNK         0.0800 
    143 H143        0.7475  -21.6928  -48.5236 H         1 UNK         0.0600 
    144 H144        0.0831  -19.7892  -46.5349 H         1 UNK         0.3000 
    145 H145       -0.5862  -22.1050  -43.8643 H         1 UNK         0.0600 
    146 H146        1.0830  -20.5929  -42.8298 H         1 UNK         0.0600 
    147 H147        1.8708  -21.6726  -43.9722 H         1 UNK         0.0600 
    148 H148        1.5705  -19.9957  -44.4131 H         1 UNK         0.0600 
    149 H149       -0.7778  -19.2719  -43.9647 H         1 UNK         0.3000 
    150 H150       -4.2187  -19.0685  -44.9694 H         1 UNK         0.0600 
    151 H151       -4.1936  -19.4700  -42.5148 H         1 UNK         0.0600 
    152 H152       -4.2634  -17.7508  -42.8689 H         1 UNK         0.0600 
    153 H153       -2.7485  -18.4839  -42.3443 H         1 UNK         0.0600 
    154 H154       -2.1628  -17.1387  -44.3484 H         1 UNK         0.3000 
    155 H155       -1.1160  -16.5738  -47.6929 H         1 UNK         0.0600 
    156 H156       -2.8755  -14.8689  -45.8462 H         1 UNK         0.0600 
    157 H157       -3.2689  -15.3087  -47.5042 H         1 UNK         0.0600 
    158 H158       -1.8889  -14.2739  -47.1805 H         1 UNK         0.0600 
    159 H159       -0.4293  -15.2025  -45.3345 H         1 UNK         0.3000 
    160 H160        2.3589  -17.3098  -44.4647 H         1 UNK         0.0600 
    161 H161        1.9562  -14.3517  -45.0755 H         1 UNK         0.0600 
    162 H162        2.6171  -15.4405  -46.2828 H         1 UNK         0.0600 
    163 H163        3.4569  -15.2184  -44.7588 H         1 UNK         0.0600 
    164 H164        1.5599  -15.2429  -42.8867 H         1 UNK         0.3000 
    165 H165       -0.9510  -15.6854  -41.2377 H         1 UNK         0.0600 
    166 H166        0.5614  -18.0435  -39.9955 H         1 UNK         0.0600 
    167 H167       -0.5472  -16.9838  -39.1252 H         1 UNK         0.0600 
    168 H168       -1.1461  -18.0043  -40.4200 H         1 UNK         0.0600 
    169 H169        1.9283  -15.8626  -40.4354 H         1 UNK         0.3000 
    170 H170        2.2507  -12.4061  -40.2839 H         1 UNK         0.0600 
    171 H171        1.2692  -12.7173  -38.0063 H         1 UNK         0.0600 
    172 H172        2.1759  -14.2122  -37.8092 H         1 UNK         0.0600 
    173 H173        3.0231  -12.6704  -37.9461 H         1 UNK         0.0600 
    174 H174        4.0668  -14.3689  -39.4372 H         1 UNK         0.3000 
    175 H175        5.8115  -14.9209  -40.6684 H         1 UNK         0.0600 
    176 H176        4.6464  -16.4391  -43.0703 H         1 UNK         0.0600 
    177 H177        6.1113  -16.8636  -42.1889 H         1 UNK         0.0600 
    178 H178        4.5478  -16.9594  -41.3932 H         1 UNK         0.0600 
    179 H179        6.2153  -14.5916  -43.5152 H         1 UNK         0.3000 
    180 H180        7.2627  -11.1943  -43.3749 H         1 UNK         0.0600 
    181 H181        8.8802  -13.7450  -43.8807 H         1 UNK         0.0600 
    182 H182        9.2993  -12.4456  -42.7772 H         1 UNK         0.0600 
    183 H183        9.2632  -12.1415  -44.5069 H         1 UNK         0.0600 
    184 H184        6.1165  -11.5657  -45.1808 H         1 UNK         0.3000 
    185 H185        6.2093  -12.6786  -47.5780 H         1 UNK         0.0600 
    186 H186        6.1778  -15.0750  -48.0327 H         1 UNK         0.0600 
    187 H187        4.7758  -15.3280  -47.0094 H         1 UNK         0.0600 
    188 H188        4.6192  -14.4231  -48.5152 H         1 UNK         0.0600 
    189 H189        3.9296  -12.8554  -45.6996 H         1 UNK         0.3000 
    190 H190       -2.4714  -20.2471  -47.6803 H         1 UNK         0.3000 
    191 H191       -3.9726  -21.6344  -49.6216 H         1 UNK         0.0600 
    192 H192       -4.8151  -20.5571  -46.8862 H         1 UNK         0.0600 
    193 H193       -5.9238  -21.0778  -48.1466 H         1 UNK         0.0600 
    194 H194       -4.8754  -19.6948  -48.4221 H         1 UNK         0.0600 
    195 H195       -3.1585  -22.5895  -46.2490 H         1 UNK         0.3000 
    196 H196       -4.5729  -25.0410  -46.2129 H         1 UNK         0.0600 
    197 H197       -3.0709  -25.5777  -44.2872 H         1 UNK         0.0600 
    198 H198       -3.7228  -23.9504  -44.1666 H         1 UNK         0.0600 
    199 H199       -2.0567  -24.1952  -44.6826 H         1 UNK         0.0600 
    200 H200       -1.1615  -24.3454  -47.1379 H         1 UNK         0.3000 
    201 H201       -0.4286  -27.0024  -47.8315 H         1 UNK         0.0600 
    202 H202        1.2193  -25.1925  -47.4298 H         1 UNK         0.0600 
    203 H203        0.6560  -24.3244  -48.8555 H         1 UNK         0.0600 
    204 H204        1.4534  -25.8829  -49.0291 H         1 UNK         0.0600 
    205 H205       -2.0188  -24.4396  -49.6943 H         1 UNK         0.3000 
    206 H206       -2.1891  -25.9579  -52.1734 H         1 UNK         0.0600 
    207 H207       -1.9555  -23.4825  -52.1584 H         1 UNK         0.0600 
    208 H208       -3.4545  -23.9550  -52.9377 H         1 UNK         0.0600 
    209 H209       -3.4791  -23.3278  -51.2933 H         1 UNK         0.0600 
    210 H210       -3.5610  -26.8844  -49.4890 H         1 UNK         0.3000 
    211 H211       -5.2809  -28.1292  -48.8879 H         1 UNK         0.0600 
    212 H212       -5.7915  -28.5217  -51.8851 H         1 UNK         0.0600 
    213 H213       -6.3678  -29.5573  -50.5870 H         1 UNK         0.0600 
    214 H214       -4.6456  -29.4422  -50.9114 H         1 UNK         0.0600 
    215 H215       -5.8089  -25.6071  -48.5282 H         1 UNK         0.3000 
    216 H216       -7.3539  -24.1592  -47.9243 H         1 UNK         0.0600 
    217 H217       -9.7461  -24.6573  -47.8342 H         1 UNK         0.0600 
    218 H218       -8.8520  -26.0612  -47.2739 H         1 UNK         0.0600 
    219 H219       -9.5628  -26.0489  -48.8879 H         1 UNK         0.0600 
    220 H220       -5.9560  -23.8051  -50.1090 H         1 UNK         0.3000 
    221 H221       -5.6432  -22.6006  -51.9447 H         1 UNK         0.0600 
    222 H222       -6.9900  -20.5207  -52.1897 H         1 UNK         0.0600 
    223 H223       -8.2014  -21.1525  -51.0879 H         1 UNK         0.0600 
    224 H224       -6.5713  -20.8063  -50.5130 H         1 UNK         0.0600 
    225 H225       -6.5030  -25.0039  -52.6821 H         1 UNK         0.3000 
    226 H226       -8.6836  -24.9439  -54.6045 H         1 UNK         0.0600 
    227 H227       -8.0062  -27.0438  -53.4428 H         1 UNK         0.0600 
    228 H228       -7.8342  -27.1993  -55.1866 H         1 UNK         0.0600 
    229 H229       -6.4103  -26.9584  -54.1828 H         1 UNK         0.0600 
    230 H230       -8.5175  -23.7850  -56.3991 H         1 UNK         0.3000 
    231 H231       -7.8362  -22.6285  -58.1492 H         1 UNK         0.0600 
    232 H232       -6.8707  -24.7669  -59.0352 H         1 UNK         0.0600 
    233 H233       -5.3174  -24.3630  -58.3046 H         1 UNK         0.0600 
    234 H234       -5.9839  -23.3503  -59.5741 H         1 UNK         0.0600 
    235 H235       -7.4832  -21.6425  -55.6471 H         1 UNK         0.3000 
    236 H236       -6.8843  -19.7951  -54.6442 H         1 UNK         0.0600 
    237 H237       -5.5007  -18.0444  -55.6232 H         1 UNK         0.0600 
    238 H238       -4.7976  -19.1481  -56.7921 H         1 UNK         0.0600 
    239 H239       -6.4997  -18.7026  -56.9035 H         1 UNK         0.0600 
    240 H240       -4.7671  -18.6659  -53.6680 H         1 UNK         0.3000 
    241 H241       -3.5714  -20.7383  -52.0737 H         1 UNK         0.0600 
    242 H242       -0.7719  -19.9981  -54.8403 H         1 UNK         0.3800 
    243 H243       -2.4531  -19.6135  -55.1002 H         1 UNK         0.3800 
    244 H244       -4.3530  -18.7157  -50.9992 H         1 UNK         0.0800 
    245 H245       -2.6507  -18.8842  -50.7308 H         1 UNK         0.0800 
    246 H246       -3.2118  -16.5092  -49.8199 H         1 UNK         0.0800 
    247 H247       -3.2352  -15.0638  -50.7952 H         1 UNK         0.0800 
@<TRIPOS>BOND
     1    1    2 1    
     2    1  127 1    
     3    1  128 1    
     4    1  129 1    
     5    2    3 2    
     6    2    4 am   BACKBONE|DICT|INTERRES
     7    4    5 1    
     8    4  130 1    
     9    5    6 1    
    10    5   65 1    
    11    5  131 1    
    12    6    7 1    
    13    6  132 1    
    14    6  133 1    
    15    7    8 1    
    16    8    9 1    
    17    8  134 1    
    18    8  135 1    
    19    9   10 ar   
    20    9   14 ar   
    21   10   11 ar   
    22   10  136 1    
    23   11   12 ar   
    24   11  126 1    
    25   12   13 ar   
    26   12  137 1    
    27   13   14 ar   
    28   13   15 1    
    29   14  138 1    
    30   15   16 1    
    31   15  139 1    
    32   15  140 1    
    33   16   17 1    
    34   17   18 1    
    35   17  141 1    
    36   17  142 1    
    37   18   19 1    
    38   18   67 1    
    39   18  143 1    
    40   19   20 am   BACKBONE|DICT|INTERRES
    41   19  144 1    
    42   20   21 2    
    43   20   22 1    
    44   22   23 1    
    45   22   24 1    
    46   22  145 1    
    47   23  146 1    
    48   23  147 1    
    49   23  148 1    
    50   24   25 am   BACKBONE|DICT|INTERRES
    51   24  149 1    
    52   25   26 2    
    53   25   27 1    
    54   27   28 1    
    55   27   29 1    
    56   27  150 1    
    57   28  151 1    
    58   28  152 1    
    59   28  153 1    
    60   29   30 am   BACKBONE|DICT|INTERRES
    61   29  154 1    
    62   30   31 2    
    63   30   32 1    
    64   32   33 1    
    65   32   34 1    
    66   32  155 1    
    67   33  156 1    
    68   33  157 1    
    69   33  158 1    
    70   34   35 am   BACKBONE|DICT|INTERRES
    71   34  159 1    
    72   35   36 2    
    73   35   37 1    
    74   37   38 1    
    75   37   39 1    
    76   37  160 1    
    77   38  161 1    
    78   38  162 1    
    79   38  163 1    
    80   39   40 am   BACKBONE|DICT|INTERRES
    81   39  164 1    
    82   40   41 2    
    83   40   42 1    
    84   42   43 1    
    85   42   44 1    
    86   42  165 1    
    87   43  166 1    
    88   43  167 1    
    89   43  168 1    
    90   44   45 am   BACKBONE|DICT|INTERRES
    91   44  169 1    
    92   45   46 2    
    93   45   47 1    
    94   47   48 1    
    95   47   49 1    
    96   47  170 1    
    97   48  171 1    
    98   48  172 1    
    99   48  173 1    
   100   49   50 am   BACKBONE|DICT|INTERRES
   101   49  174 1    
   102   50   51 2    
   103   50   52 1    
   104   52   53 1    
   105   52   54 1    
   106   52  175 1    
   107   53  176 1    
   108   53  177 1    
   109   53  178 1    
   110   54   55 am   BACKBONE|DICT|INTERRES
   111   54  179 1    
   112   55   56 2    
   113   55   57 1    
   114   57   58 1    
   115   57   59 1    
   116   57  180 1    
   117   58  181 1    
   118   58  182 1    
   119   58  183 1    
   120   59   60 am   BACKBONE|DICT|INTERRES
   121   59  184 1    
   122   60   61 2    
   123   60   62 1    
   124   62   63 1    
   125   62   64 1    
   126   62  185 1    
   127   63  186 1    
   128   63  187 1    
   129   63  188 1    
   130   64   65 am   BACKBONE|DICT|INTERRES
   131   64  189 1    
   132   65   66 2    
   133   67   68 2    
   134   67   69 am   BACKBONE|DICT|INTERRES
   135   69   70 1    
   136   69  190 1    
   137   70   71 1    
   138   70   72 1    
   139   70  191 1    
   140   71  192 1    
   141   71  193 1    
   142   71  194 1    
   143   72   73 2    
   144   72   74 am   BACKBONE|DICT|INTERRES
   145   74   75 1    
   146   74  195 1    
   147   75   76 1    
   148   75   77 1    
   149   75  196 1    
   150   76  197 1    
   151   76  198 1    
   152   76  199 1    
   153   77   78 2    
   154   77   79 am   BACKBONE|DICT|INTERRES
   155   79   80 1    
   156   79  200 1    
   157   80   81 1    
   158   80   82 1    
   159   80  201 1    
   160   81  202 1    
   161   81  203 1    
   162   81  204 1    
   163   82   83 2    
   164   82   84 am   BACKBONE|DICT|INTERRES
   165   84   85 1    
   166   84  205 1    
   167   85   86 1    
   168   85   87 1    
   169   85  206 1    
   170   86  207 1    
   171   86  208 1    
   172   86  209 1    
   173   87   88 2    
   174   87   89 am   BACKBONE|DICT|INTERRES
   175   89   90 1    
   176   89  210 1    
   177   90   91 1    
   178   90   92 1    
   179   90  211 1    
   180   91  212 1    
   181   91  213 1    
   182   91  214 1    
   183   92   93 2    
   184   92   94 am   BACKBONE|DICT|INTERRES
   185   94   95 1    
   186   94  215 1    
   187   95   96 1    
   188   95   97 1    
   189   95  216 1    
   190   96  217 1    
   191   96  218 1    
   192   96  219 1    
   193   97   98 2    
   194   97   99 am   BACKBONE|DICT|INTERRES
   195   99  100 1    
   196   99  220 1    
   197  100  101 1    
   198  100  102 1    
   199  100  221 1    
   200  101  222 1    
   201  101  223 1    
   202  101  224 1    
   203  102  103 2    
   204  102  104 am   BACKBONE|DICT|INTERRES
   205  104  105 1    
   206  104  225 1    
   207  105  106 1    
   208  105  107 1    
   209  105  226 1    
   210  106  227 1    
   211  106  228 1    
   212  106  229 1    
   213  107  108 2    
   214  107  109 am   BACKBONE|DICT|INTERRES
   215  109  110 1    
   216  109  230 1    
   217  110  111 1    
   218  110  112 1    
   219  110  231 1    
   220  111  232 1    
   221  111  233 1    
   222  111  234 1    
   223  112  113 2    
   224  112  114 am   BACKBONE|DICT|INTERRES
   225  114  115 1    
   226  114  235 1    
   227  115  116 1    
   228  115  117 1    
   229  115  236 1    
   230  116  237 1    
   231  116  238 1    
   232  116  239 1    
   233  117  118 2    
   234  117  119 am   BACKBONE|DICT|INTERRES
   235  119  120 1    
   236  119  240 1    
   237  120  121 1    
   238  120  124 1    
   239  120  241 1    
   240  121  122 am   BACKBONE|DICT|INTERRES
   241  121  123 2    
   242  122  242 1    
   243  122  243 1    
   244  124  125 1    
   245  124  244 1    
   246  124  245 1    
   247  125  126 1    
   248  126  246 1    
   249  126  247 1    
@<TRIPOS>SUBSTRUCTURE
     1 UNK         1 GROUP             0       ****    0 ROOT    
