@<TRIPOS>MOLECULE
3R540
247   249    1
SMALL
USER_CHARGES


@<TRIPOS>ATOM
      1 CA         -5.2125  -10.7292  -46.9829 C.3       0 UNK        -0.1800 
      2 C          -3.8609  -11.4202  -47.0785 C.2       0 UNK         0.5000 
      3 O          -2.8301  -10.7847  -46.8593 O.2       0 UNK        -0.5000 
      4 N          -3.8544  -12.7241  -47.3837 N.am      1 UNK        -0.5000 
      5 CA         -2.6479  -13.5499  -47.5256 C.3       1 UNK         0.1400 
      6 C6         -2.9434  -14.9350  -48.1498 C.3       23 UNK        -0.0398 
      7 S7         -4.2727  -15.8725  -47.3195 S.3       23 UNK        -0.2404 
      8 C8         -4.5747  -17.1783  -48.5501 C.3       23 UNK        -0.0205 
      9 C9         -3.4529  -18.2069  -48.5759 C.ar      23 UNK        -0.0193 
     10 C10        -2.3934  -18.0882  -49.4822 C.ar      23 UNK        -0.1150 
     11 C11        -1.3623  -19.0330  -49.4951 C.ar      23 UNK        -0.0193 
     12 C12        -1.4073  -20.1127  -48.6089 C.ar      23 UNK        -0.1150 
     13 C13        -2.4616  -20.2424  -47.7012 C.ar      23 UNK        -0.0193 
     14 C14        -3.4784  -19.2841  -47.6865 C.ar      23 UNK        -0.1150 
     15 C15        -2.4948  -21.4080  -46.7275 C.3       23 UNK        -0.0205 
     16 S16        -1.3177  -21.1408  -45.3675 S.3       23 UNK        -0.2404 
     17 C17        -1.8626  -22.4060  -44.1736 C.3       23 UNK        -0.0398 
     18 CA         -1.2137  -23.7874  -44.4230 C.3       11 UNK         0.1400 
     19 N           0.2542  -23.7415  -44.3749 N.am      11 UNK        -0.5000 
     20 C           1.0778  -24.7040  -44.8188 C.2       10 UNK         0.5000 
     21 O           0.6771  -25.7491  -45.3316 O.2       10 UNK        -0.5000 
     22 CA          2.5927  -24.5097  -44.6052 C.3       10 UNK         0.1400 
     23 CB          3.2409  -23.9653  -45.8865 C.3       10 UNK        -0.1800 
     24 N           2.9267  -23.6223  -43.4896 N.am      10 UNK        -0.5000 
     25 C           2.5664  -23.7978  -42.2094 C.2       9 UNK         0.5000 
     26 O           1.9809  -24.8003  -41.7992 O.2       9 UNK        -0.5000 
     27 CA          2.8503  -22.6308  -41.2387 C.3       9 UNK         0.1400 
     28 CB          4.1147  -22.9158  -40.4145 C.3       9 UNK        -0.1800 
     29 N           2.9880  -21.3186  -41.8877 N.am      9 UNK        -0.5000 
     30 C           2.0604  -20.7271  -42.6547 C.2       8 UNK         0.5000 
     31 O           0.9633  -21.2343  -42.8982 O.2       8 UNK        -0.5000 
     32 CA          2.4379  -19.3782  -43.2892 C.3       8 UNK         0.1400 
     33 CB          3.8269  -19.4226  -43.9629 C.3       8 UNK        -0.1800 
     34 N           1.4246  -19.0134  -44.2766 N.am      8 UNK        -0.5000 
     35 C           1.2193  -17.7844  -44.7558 C.2       7 UNK         0.5000 
     36 O           1.8185  -16.7838  -44.3512 O.2       7 UNK        -0.5000 
     37 CA          0.1610  -17.6469  -45.8655 C.3       7 UNK         0.1400 
     38 CB         -1.2238  -17.3606  -45.2686 C.3       7 UNK        -0.1800 
     39 N           0.5279  -16.5590  -46.7680 N.am      7 UNK        -0.5000 
     40 C           1.4692  -16.6513  -47.7182 C.2       6 UNK         0.5000 
     41 O           2.0040  -17.7067  -48.0579 O.2       6 UNK        -0.5000 
     42 CA          1.9247  -15.3285  -48.3581 C.3       6 UNK         0.1400 
     43 CB          0.9711  -14.8953  -49.4820 C.3       6 UNK        -0.1800 
     44 N           1.9928  -14.2728  -47.3519 N.am      6 UNK        -0.5000 
     45 C           3.0063  -14.0900  -46.4961 C.2       5 UNK         0.5000 
     46 O           4.0750  -14.7001  -46.5633 O.2       5 UNK        -0.5000 
     47 CA          2.7647  -13.0579  -45.3729 C.3       5 UNK         0.1400 
     48 CB          4.0686  -12.5014  -44.7642 C.3       5 UNK        -0.1800 
     49 N           1.8613  -11.9746  -45.7776 N.am      5 UNK        -0.5000 
     50 C           2.0614  -11.0500  -46.7298 C.2       4 UNK         0.5000 
     51 O           3.1034  -10.9414  -47.3768 O.2       4 UNK        -0.5000 
     52 CA          0.8871  -10.0969  -47.0363 C.3       4 UNK         0.1400 
     53 CB          0.2344  -10.4785  -48.3743 C.3       4 UNK        -0.1800 
     54 N          -0.1465  -10.0901  -45.9991 N.am      4 UNK        -0.5000 
     55 C          -0.0199   -9.5305  -44.7881 C.2       3 UNK         0.5000 
     56 O           0.9702   -8.8946  -44.4256 O.2       3 UNK        -0.5000 
     57 CA         -1.1824   -9.7594  -43.8062 C.3       3 UNK         0.1400 
     58 CB         -2.2968   -8.7239  -44.0223 C.3       3 UNK        -0.1800 
     59 N          -1.7382  -11.1095  -43.9241 N.am      3 UNK        -0.5000 
     60 C          -1.1383  -12.2189  -43.4688 C.2       2 UNK         0.5000 
     61 O          -0.0600  -12.2175  -42.8757 O.2       2 UNK        -0.5000 
     62 CA         -1.8441  -13.5577  -43.7504 C.3       2 UNK         0.1400 
     63 CB         -2.8903  -13.8622  -42.6685 C.3       2 UNK        -0.1800 
     64 N          -2.4864  -13.5836  -45.0646 N.am      2 UNK        -0.5000 
     65 C          -1.8248  -13.6738  -46.2260 C.2       1 UNK         0.5000 
     66 O          -0.6046  -13.8206  -46.3033 O.2       1 UNK        -0.5000 
     67 C          -1.8333  -24.8620  -43.4972 C.2       11 UNK         0.5000 
     68 O          -3.0410  -25.0911  -43.5635 O.2       11 UNK        -0.5000 
     69 N          -1.0146  -25.5322  -42.6716 N.am      12 UNK        -0.5000 
     70 CA         -1.3866  -26.7614  -41.9701 C.3       12 UNK         0.1400 
     71 CB         -0.3147  -27.0832  -40.9183 C.3       12 UNK        -0.1800 
     72 C          -1.5779  -27.9579  -42.9285 C.2       12 UNK         0.5000 
     73 O          -2.3107  -28.8865  -42.5853 O.2       12 UNK        -0.5000 
     74 N          -0.9261  -27.9154  -44.1001 N.am      13 UNK        -0.5000 
     75 CA         -1.0179  -28.9240  -45.1539 C.3       13 UNK         0.1400 
     76 CB          0.3899  -29.4591  -45.4622 C.3       13 UNK        -0.1800 
     77 C          -1.6682  -28.3475  -46.4228 C.2       13 UNK         0.5000 
     78 O          -2.5435  -28.9952  -46.9988 O.2       13 UNK        -0.5000 
     79 N          -1.2318  -27.1530  -46.8460 N.am      14 UNK        -0.5000 
     80 CA         -1.7313  -26.4591  -48.0321 C.3       14 UNK         0.1400 
     81 CB         -0.7358  -25.3567  -48.4296 C.3       14 UNK        -0.1800 
     82 C          -3.1266  -25.8585  -47.7932 C.2       14 UNK         0.5000 
     83 O          -3.3619  -25.2528  -46.7470 O.2       14 UNK        -0.5000 
     84 N          -4.0159  -26.0022  -48.7807 N.am      15 UNK        -0.5000 
     85 CA         -5.3290  -25.3613  -48.7914 C.3       15 UNK         0.1400 
     86 CB         -6.2363  -26.1024  -49.7864 C.3       15 UNK        -0.1800 
     87 C          -5.2052  -23.8814  -49.1902 C.2       15 UNK         0.5000 
     88 O          -4.3454  -23.5381  -50.0041 O.2       15 UNK        -0.5000 
     89 N          -6.1133  -23.0402  -48.6778 N.am      16 UNK        -0.5000 
     90 CA         -6.2010  -21.6127  -49.0128 C.3       16 UNK         0.1400 
     91 CB         -7.1941  -20.9270  -48.0635 C.3       16 UNK        -0.1800 
     92 C          -6.5707  -21.3404  -50.4862 C.2       16 UNK         0.5000 
     93 O          -6.2993  -20.2518  -50.9897 O.2       16 UNK        -0.5000 
     94 N          -7.1304  -22.3492  -51.1702 N.am      17 UNK        -0.5000 
     95 CA         -7.3929  -22.3655  -52.6113 C.3       17 UNK         0.1400 
     96 CB         -8.1596  -23.6513  -52.9568 C.3       17 UNK        -0.1800 
     97 C          -6.1222  -22.2462  -53.4813 C.2       17 UNK         0.5000 
     98 O          -6.2266  -21.8616  -54.6467 O.2       17 UNK        -0.5000 
     99 N          -4.9456  -22.5411  -52.9054 N.am      18 UNK        -0.5000 
    100 CA        -3.6361  -22.3756  -53.5388 C.3       18 UNK         0.1400 
    101 CB        -2.5686  -23.0705  -52.6801 C.3       18 UNK        -0.1800 
    102 C         -3.2415  -20.9056  -53.7848 C.2       18 UNK         0.5000 
    103 O         -2.3061  -20.6668  -54.5498 O.2       18 UNK        -0.5000 
    104 N         -3.9479  -19.9478  -53.1600 N.am      19 UNK        -0.5000 
    105 CA        -3.7034  -18.5016  -53.2307 C.3       19 UNK         0.1400 
    106 CB        -4.7555  -17.7741  -52.3854 C.3       19 UNK        -0.1800 
    107 C         -3.6739  -17.9136  -54.6540 C.2       19 UNK         0.5000 
    108 O         -3.0143  -16.8976  -54.8712 O.2       19 UNK        -0.5000 
    109 N         -4.3387  -18.5811  -55.6070 N.am      20 UNK        -0.5000 
    110 CA        -4.2731  -18.2815  -57.0383 C.3       20 UNK         0.1400 
    111 CB        -5.2824  -19.1739  -57.7764 C.3       20 UNK        -0.1800 
    112 C         -2.8609  -18.4496  -57.6417 C.2       20 UNK         0.5000 
    113 O         -2.5578  -17.8007  -58.6440 O.2       20 UNK        -0.5000 
    114 N         -2.0292  -19.3006  -57.0249 N.am      21 UNK        -0.5000 
    115 CA        -0.6353  -19.5281  -57.3890 C.3       21 UNK         0.1400 
    116 CB        -0.3637  -21.0406  -57.4454 C.3       21 UNK        -0.1800 
    117 C          0.3145  -18.8390  -56.3952 C.2       21 UNK         0.5000 
    118 O          1.2149  -18.1216  -56.8336 O.2       21 UNK        -0.5000 
    119 N          0.1208  -19.0724  -55.0876 N.am      22 UNK        -0.5000 
    120 CA         1.0210  -18.5755  -54.0284 C.3       22 UNK         0.1400 
    121 C          0.7824  -17.1088  -53.5663 C.2       22 UNK         0.5000 
    122 N         -0.2886  -16.4358  -53.9647 N.am      22 UNK        -0.7600 
    123 O          1.6054  -16.5577  -52.8410 O.2       22 UNK        -0.5000 
    124 C124        1.1477  -19.5616  -52.8364 C.3       23 UNK        -0.0398 
    125 S125       -0.4030  -19.8956  -51.9355 S.3       23 UNK        -0.2404 
    126 C126       -0.1860  -18.8810  -50.4460 C.3       23 UNK        -0.0205 
    127 H127       -5.3472  -10.3066  -45.9873 H         1 UNK         0.0600 
    128 H128       -6.0347  -11.4186  -47.1756 H         1 UNK         0.0600 
    129 H129       -5.2695   -9.9184  -47.7090 H         1 UNK         0.0600 
    130 H130       -4.7293  -13.2067  -47.5354 H         1 UNK         0.3000 
    131 H131       -2.0013  -13.0249  -48.2312 H         1 UNK         0.0600 
    132 H132       -3.2283  -14.7955  -49.1935 H         1 UNK         0.0800 
    133 H133       -2.0438  -15.5519  -48.1694 H         1 UNK         0.0800 
    134 H134       -5.5183  -17.6734  -48.3160 H         1 UNK         0.0800 
    135 H135       -4.7081  -16.7242  -49.5320 H         1 UNK         0.0800 
    136 H136       -2.3657  -17.2559  -50.1709 H         1 UNK         0.1150 
    137 H137       -0.6133  -20.8461  -48.6157 H         1 UNK         0.1150 
    138 H138       -4.2911  -19.3730  -46.9794 H         1 UNK         0.1150 
    139 H139       -3.5023  -21.5351  -46.3286 H         1 UNK         0.0800 
    140 H140       -2.2496  -22.3350  -47.2486 H         1 UNK         0.0800 
    141 H141       -2.9513  -22.4724  -44.2135 H         1 UNK         0.0800 
    142 H142       -1.6209  -22.0514  -43.1703 H         1 UNK         0.0800 
    143 H143       -1.4785  -24.0856  -45.4372 H         1 UNK         0.0600 
    144 H144        0.6481  -22.9126  -43.9405 H         1 UNK         0.3000 
    145 H145        3.0206  -25.4907  -44.3895 H         1 UNK         0.0600 
    146 H146        4.3246  -23.9030  -45.7859 H         1 UNK         0.0600 
    147 H147        3.0317  -24.6157  -46.7371 H         1 UNK         0.0600 
    148 H148        2.8674  -22.9707  -46.1344 H         1 UNK         0.0600 
    149 H149        3.4061  -22.7671  -43.7267 H         1 UNK         0.3000 
    150 H150        2.0015  -22.5702  -40.5546 H         1 UNK         0.0600 
    151 H151        5.0044  -22.9561  -41.0442 H         1 UNK         0.0600 
    152 H152        4.0361  -23.8721  -39.8954 H         1 UNK         0.0600 
    153 H153        4.2732  -22.1492  -39.6558 H         1 UNK         0.0600 
    154 H154        3.8655  -20.8421  -41.7380 H         1 UNK         0.3000 
    155 H155        2.4431  -18.6331  -42.4913 H         1 UNK         0.0600 
    156 H156        3.8734  -20.1943  -44.7324 H         1 UNK         0.0600 
    157 H157        4.6192  -19.6241  -43.2417 H         1 UNK         0.0600 
    158 H158        4.0712  -18.4711  -44.4355 H         1 UNK         0.0600 
    159 H159        0.8288  -19.7804  -44.5671 H         1 UNK         0.3000 
    160 H160        0.1110  -18.5788  -46.4328 H         1 UNK         0.0600 
    161 H161       -1.2353  -16.4328  -44.6990 H         1 UNK         0.0600 
    162 H162       -1.5349  -18.1613  -44.5973 H         1 UNK         0.0600 
    163 H163       -1.9770  -17.2854  -46.0512 H         1 UNK         0.0600 
    164 H164        0.1947  -15.6366  -46.5132 H         1 UNK         0.3000 
    165 H165        2.9159  -15.4808  -48.7906 H         1 UNK         0.0600 
    166 H166        0.8993  -15.6650  -50.2506 H         1 UNK         0.0600 
    167 H167       -0.0347  -14.7036  -49.1105 H         1 UNK         0.0600 
    168 H168        1.3254  -13.9858  -49.9673 H         1 UNK         0.0600 
    169 H169        1.1289  -13.7763  -47.1603 H         1 UNK         0.3000 
    170 H170        2.2420  -13.5996  -44.5829 H         1 UNK         0.0600 
    171 H171        4.6621  -13.3003  -44.3184 H         1 UNK         0.0600 
    172 H172        4.6915  -12.0124  -45.5133 H         1 UNK         0.0600 
    173 H173        3.8576  -11.7775  -43.9770 H         1 UNK         0.0600 
    174 H174        0.9567  -11.9806  -45.3276 H         1 UNK         0.3000 
    175 H175        1.2936   -9.0875  -47.1258 H         1 UNK         0.0600 
    176 H176       -0.5844   -9.8029  -48.6226 H         1 UNK         0.0600 
    177 H177        0.9561  -10.4293  -49.1906 H         1 UNK         0.0600 
    178 H178       -0.1632  -11.4931  -48.3497 H         1 UNK         0.0600 
    179 H179       -1.0348  -10.5222  -46.2397 H         1 UNK         0.3000 
    180 H180       -0.7949   -9.6317  -42.7931 H         1 UNK         0.0600 
    181 H181       -2.7316   -8.7962  -45.0196 H         1 UNK         0.0600 
    182 H182       -1.9127   -7.7097  -43.9059 H         1 UNK         0.0600 
    183 H183       -3.0999   -8.8520  -43.2963 H         1 UNK         0.0600 
    184 H184       -2.5946  -11.2002  -44.4508 H         1 UNK         0.3000 
    185 H185       -1.0833  -14.3397  -43.7164 H         1 UNK         0.0600 
    186 H186       -2.4360  -13.8666  -41.6768 H         1 UNK         0.0600 
    187 H187       -3.6910  -13.1217  -42.6602 H         1 UNK         0.0600 
    188 H188       -3.3407  -14.8430  -42.8230 H         1 UNK         0.0600 
    189 H189       -3.4907  -13.4840  -45.0900 H         1 UNK         0.3000 
    190 H190       -0.0394  -25.2626  -42.6216 H         1 UNK         0.3000 
    191 H191       -2.3335  -26.5917  -41.4534 H         1 UNK         0.0600 
    192 H192       -0.1959  -26.2620  -40.2112 H         1 UNK         0.0600 
    193 H193       -0.5839  -27.9709  -40.3446 H         1 UNK         0.0600 
    194 H194        0.6561  -27.2712  -41.3789 H         1 UNK         0.0600 
    195 H195       -0.3612  -27.1008  -44.3140 H         1 UNK         0.3000 
    196 H196       -1.6313  -29.7663  -44.8274 H         1 UNK         0.0600 
    197 H197        0.3593  -30.2062  -46.2563 H         1 UNK         0.0600 
    198 H198        0.8289  -29.9345  -44.5849 H         1 UNK         0.0600 
    199 H199        1.0642  -28.6639  -45.7831 H         1 UNK         0.0600 
    200 H200       -0.5155  -26.6665  -46.3124 H         1 UNK         0.3000 
    201 H201       -1.7882  -27.1785  -48.8519 H         1 UNK         0.0600 
    202 H202       -1.0649  -24.8412  -49.3330 H         1 UNK         0.0600 
    203 H203       -0.6290  -24.6055  -47.6465 H         1 UNK         0.0600 
    204 H204        0.2523  -25.7707  -48.6313 H         1 UNK         0.0600 
    205 H205       -3.7387  -26.4694  -49.6313 H         1 UNK         0.3000 
    206 H206       -5.7715  -25.4293  -47.7950 H         1 UNK         0.0600 
    207 H207       -6.3356  -27.1549  -49.5201 H         1 UNK         0.0600 
    208 H208       -7.2400  -25.6759  -49.7956 H         1 UNK         0.0600 
    209 H209       -5.8478  -26.0494  -50.8046 H         1 UNK         0.0600 
    210 H210       -6.8004  -23.3924  -48.0264 H         1 UNK         0.3000 
    211 H211       -5.2152  -21.1743  -48.8498 H         1 UNK         0.0600 
    212 H212       -8.1982  -21.3405  -48.1640 H         1 UNK         0.0600 
    213 H213       -7.2561  -19.8576  -48.2700 H         1 UNK         0.0600 
    214 H214       -6.8854  -21.0370  -47.0237 H         1 UNK         0.0600 
    215 H215       -7.3249  -23.2033  -50.6705 H         1 UNK         0.3000 
    216 H216       -8.0290  -21.5094  -52.8447 H         1 UNK         0.0600 
    217 H217       -8.4012  -23.6892  -54.0199 H         1 UNK         0.0600 
    218 H218       -9.1007  -23.7095  -52.4096 H         1 UNK         0.0600 
    219 H219       -7.5767  -24.5426  -52.7204 H         1 UNK         0.0600 
    220 H220       -4.9330  -22.8456  -51.9383 H         1 UNK         0.3000 
    221 H221       -3.6672  -22.8706  -54.5114 H         1 UNK         0.0600 
    222 H222       -2.4623  -22.5888  -51.7070 H         1 UNK         0.0600 
    223 H223       -2.8134  -24.1193  -52.5116 H         1 UNK         0.0600 
    224 H224       -1.5929  -23.0369  -53.1666 H         1 UNK         0.0600 
    225 H225       -4.6960  -20.2350  -52.5408 H         1 UNK         0.3000 
    226 H226       -2.7249  -18.3153  -52.7863 H         1 UNK         0.0600 
    227 H227       -4.5662  -16.7003  -52.3569 H         1 UNK         0.0600 
    228 H228       -5.7617  -17.9252  -52.7782 H         1 UNK         0.0600 
    229 H229       -4.7421  -18.1355  -51.3590 H         1 UNK         0.0600 
    230 H230       -4.8501  -19.4103  -55.3391 H         1 UNK         0.3000 
    231 H231       -4.5679  -17.2394  -57.1767 H         1 UNK         0.0600 
    232 H232       -5.0517  -20.2323  -57.6475 H         1 UNK         0.0600 
    233 H233       -5.2805  -18.9646  -58.8470 H         1 UNK         0.0600 
    234 H234       -6.2970  -19.0052  -57.4150 H         1 UNK         0.0600 
    235 H235       -2.3451  -19.7728  -56.1820 H         1 UNK         0.3000 
    236 H236       -0.4311  -19.1199  -58.3811 H         1 UNK         0.0600 
    237 H237        0.6737  -21.2406  -57.7163 H         1 UNK         0.0600 
    238 H238       -0.5522  -21.5257  -56.4871 H         1 UNK         0.0600 
    239 H239       -0.9936  -21.5238  -58.1924 H         1 UNK         0.0600 
    240 H240       -0.6506  -19.6622  -54.7889 H         1 UNK         0.3000 
    241 H241        2.0219  -18.5452  -54.4638 H         1 UNK         0.0600 
    242 H242       -1.0116  -16.8578  -54.5339 H         1 UNK         0.3800 
    243 H243       -0.4030  -15.4831  -53.6602 H         1 UNK         0.3800 
    244 H244        1.9099  -19.2175  -52.1350 H         1 UNK         0.0800 
    245 H245        1.5152  -20.5189  -53.2078 H         1 UNK         0.0800 
    246 H246        0.7339  -19.1755  -49.9393 H         1 UNK         0.0800 
    247 H247       -0.0635  -17.8360  -50.7312 H         1 UNK         0.0800 
@<TRIPOS>BOND
     1    1    2 1    
     2    1  127 1    
     3    1  128 1    
     4    1  129 1    
     5    2    3 2    
     6    2    4 am   BACKBONE|DICT|INTERRES
     7    4    5 1    
     8    4  130 1    
     9    5    6 1    
    10    5   65 1    
    11    5  131 1    
    12    6    7 1    
    13    6  132 1    
    14    6  133 1    
    15    7    8 1    
    16    8    9 1    
    17    8  134 1    
    18    8  135 1    
    19    9   10 ar   
    20    9   14 ar   
    21   10   11 ar   
    22   10  136 1    
    23   11   12 ar   
    24   11  126 1    
    25   12   13 ar   
    26   12  137 1    
    27   13   14 ar   
    28   13   15 1    
    29   14  138 1    
    30   15   16 1    
    31   15  139 1    
    32   15  140 1    
    33   16   17 1    
    34   17   18 1    
    35   17  141 1    
    36   17  142 1    
    37   18   19 1    
    38   18   67 1    
    39   18  143 1    
    40   19   20 am   BACKBONE|DICT|INTERRES
    41   19  144 1    
    42   20   21 2    
    43   20   22 1    
    44   22   23 1    
    45   22   24 1    
    46   22  145 1    
    47   23  146 1    
    48   23  147 1    
    49   23  148 1    
    50   24   25 am   BACKBONE|DICT|INTERRES
    51   24  149 1    
    52   25   26 2    
    53   25   27 1    
    54   27   28 1    
    55   27   29 1    
    56   27  150 1    
    57   28  151 1    
    58   28  152 1    
    59   28  153 1    
    60   29   30 am   BACKBONE|DICT|INTERRES
    61   29  154 1    
    62   30   31 2    
    63   30   32 1    
    64   32   33 1    
    65   32   34 1    
    66   32  155 1    
    67   33  156 1    
    68   33  157 1    
    69   33  158 1    
    70   34   35 am   BACKBONE|DICT|INTERRES
    71   34  159 1    
    72   35   36 2    
    73   35   37 1    
    74   37   38 1    
    75   37   39 1    
    76   37  160 1    
    77   38  161 1    
    78   38  162 1    
    79   38  163 1    
    80   39   40 am   BACKBONE|DICT|INTERRES
    81   39  164 1    
    82   40   41 2    
    83   40   42 1    
    84   42   43 1    
    85   42   44 1    
    86   42  165 1    
    87   43  166 1    
    88   43  167 1    
    89   43  168 1    
    90   44   45 am   BACKBONE|DICT|INTERRES
    91   44  169 1    
    92   45   46 2    
    93   45   47 1    
    94   47   48 1    
    95   47   49 1    
    96   47  170 1    
    97   48  171 1    
    98   48  172 1    
    99   48  173 1    
   100   49   50 am   BACKBONE|DICT|INTERRES
   101   49  174 1    
   102   50   51 2    
   103   50   52 1    
   104   52   53 1    
   105   52   54 1    
   106   52  175 1    
   107   53  176 1    
   108   53  177 1    
   109   53  178 1    
   110   54   55 am   BACKBONE|DICT|INTERRES
   111   54  179 1    
   112   55   56 2    
   113   55   57 1    
   114   57   58 1    
   115   57   59 1    
   116   57  180 1    
   117   58  181 1    
   118   58  182 1    
   119   58  183 1    
   120   59   60 am   BACKBONE|DICT|INTERRES
   121   59  184 1    
   122   60   61 2    
   123   60   62 1    
   124   62   63 1    
   125   62   64 1    
   126   62  185 1    
   127   63  186 1    
   128   63  187 1    
   129   63  188 1    
   130   64   65 am   BACKBONE|DICT|INTERRES
   131   64  189 1    
   132   65   66 2    
   133   67   68 2    
   134   67   69 am   BACKBONE|DICT|INTERRES
   135   69   70 1    
   136   69  190 1    
   137   70   71 1    
   138   70   72 1    
   139   70  191 1    
   140   71  192 1    
   141   71  193 1    
   142   71  194 1    
   143   72   73 2    
   144   72   74 am   BACKBONE|DICT|INTERRES
   145   74   75 1    
   146   74  195 1    
   147   75   76 1    
   148   75   77 1    
   149   75  196 1    
   150   76  197 1    
   151   76  198 1    
   152   76  199 1    
   153   77   78 2    
   154   77   79 am   BACKBONE|DICT|INTERRES
   155   79   80 1    
   156   79  200 1    
   157   80   81 1    
   158   80   82 1    
   159   80  201 1    
   160   81  202 1    
   161   81  203 1    
   162   81  204 1    
   163   82   83 2    
   164   82   84 am   BACKBONE|DICT|INTERRES
   165   84   85 1    
   166   84  205 1    
   167   85   86 1    
   168   85   87 1    
   169   85  206 1    
   170   86  207 1    
   171   86  208 1    
   172   86  209 1    
   173   87   88 2    
   174   87   89 am   BACKBONE|DICT|INTERRES
   175   89   90 1    
   176   89  210 1    
   177   90   91 1    
   178   90   92 1    
   179   90  211 1    
   180   91  212 1    
   181   91  213 1    
   182   91  214 1    
   183   92   93 2    
   184   92   94 am   BACKBONE|DICT|INTERRES
   185   94   95 1    
   186   94  215 1    
   187   95   96 1    
   188   95   97 1    
   189   95  216 1    
   190   96  217 1    
   191   96  218 1    
   192   96  219 1    
   193   97   98 2    
   194   97   99 am   BACKBONE|DICT|INTERRES
   195   99  100 1    
   196   99  220 1    
   197  100  101 1    
   198  100  102 1    
   199  100  221 1    
   200  101  222 1    
   201  101  223 1    
   202  101  224 1    
   203  102  103 2    
   204  102  104 am   BACKBONE|DICT|INTERRES
   205  104  105 1    
   206  104  225 1    
   207  105  106 1    
   208  105  107 1    
   209  105  226 1    
   210  106  227 1    
   211  106  228 1    
   212  106  229 1    
   213  107  108 2    
   214  107  109 am   BACKBONE|DICT|INTERRES
   215  109  110 1    
   216  109  230 1    
   217  110  111 1    
   218  110  112 1    
   219  110  231 1    
   220  111  232 1    
   221  111  233 1    
   222  111  234 1    
   223  112  113 2    
   224  112  114 am   BACKBONE|DICT|INTERRES
   225  114  115 1    
   226  114  235 1    
   227  115  116 1    
   228  115  117 1    
   229  115  236 1    
   230  116  237 1    
   231  116  238 1    
   232  116  239 1    
   233  117  118 2    
   234  117  119 am   BACKBONE|DICT|INTERRES
   235  119  120 1    
   236  119  240 1    
   237  120  121 1    
   238  120  124 1    
   239  120  241 1    
   240  121  122 am   BACKBONE|DICT|INTERRES
   241  121  123 2    
   242  122  242 1    
   243  122  243 1    
   244  124  125 1    
   245  124  244 1    
   246  124  245 1    
   247  125  126 1    
   248  126  246 1    
   249  126  247 1    
@<TRIPOS>SUBSTRUCTURE
     1 UNK         1 GROUP             0       ****    0 ROOT    
