@<TRIPOS>MOLECULE
3R540
247   249    1
SMALL
USER_CHARGES


@<TRIPOS>ATOM
      1 CA         -3.3107  -11.3362  -48.7784 C.3       0 UNK        -0.1800 
      2 C          -2.0295  -11.9565  -48.2407 C.2       0 UNK         0.5000 
      3 O          -1.3209  -11.3186  -47.4615 O.2       0 UNK        -0.5000 
      4 N          -1.7373  -13.2015  -48.6433 N.am      1 UNK        -0.5000 
      5 CA         -0.5352  -13.9631  -48.2714 C.3       1 UNK         0.1400 
      6 C6         -0.4522  -15.3232  -49.0046 C.3       23 UNK        -0.0398 
      7 S7         -0.3647  -15.1446  -50.8156 S.3       23 UNK        -0.2404 
      8 C8          1.4330  -15.2197  -51.0990 C.3       23 UNK        -0.0205 
      9 C9          1.9746  -16.6441  -51.1184 C.ar      23 UNK        -0.0193 
     10 C10         1.6865  -17.4837  -52.1993 C.ar      23 UNK        -0.1150 
     11 C11         2.2442  -18.7633  -52.2755 C.ar      23 UNK        -0.0193 
     12 C12         3.1076  -19.1942  -51.2672 C.ar      23 UNK        -0.1150 
     13 C13         3.3679  -18.3879  -50.1586 C.ar      23 UNK        -0.0193 
     14 C14         2.8031  -17.1087  -50.0900 C.ar      23 UNK        -0.1150 
     15 C15         4.2643  -18.9134  -49.0457 C.3       23 UNK        -0.0205 
     16 S16         3.5106  -20.3279  -48.1704 S.3       23 UNK        -0.2404 
     17 C17         2.0706  -19.5281  -47.3971 C.3       23 UNK        -0.0398 
     18 CA          0.7189  -20.1305  -47.8495 C.3       11 UNK         0.1400 
     19 N           0.4779  -21.4472  -47.2588 N.am      11 UNK        -0.5000 
     20 C          -0.4728  -22.2949  -47.6686 C.2       10 UNK         0.5000 
     21 O          -1.1990  -22.0873  -48.6411 O.2       10 UNK        -0.5000 
     22 CA         -0.6854  -23.5553  -46.8071 C.3       10 UNK         0.1400 
     23 CB          0.3448  -24.6417  -47.1413 C.3       10 UNK        -0.1800 
     24 N          -0.6351  -23.2672  -45.3722 N.am      10 UNK        -0.5000 
     25 C          -1.5512  -22.5317  -44.7296 C.2       9 UNK         0.5000 
     26 O          -2.5310  -22.0355  -45.2840 O.2       9 UNK        -0.5000 
     27 CA         -1.3319  -22.2811  -43.2264 C.3       9 UNK         0.1400 
     28 CB         -1.9569  -23.4155  -42.4017 C.3       9 UNK        -0.1800 
     29 N           0.0640  -22.1022  -42.8158 N.am      9 UNK        -0.5000 
     30 C           0.9427  -21.2299  -43.3268 C.2       8 UNK         0.5000 
     31 O           0.7142  -20.5209  -44.3075 O.2       8 UNK        -0.5000 
     32 CA          2.2895  -21.1162  -42.5873 C.3       8 UNK         0.1400 
     33 CB          3.4117  -20.5802  -43.4933 C.3       8 UNK        -0.1800 
     34 N           2.1631  -20.2606  -41.4046 N.am      8 UNK        -0.5000 
     35 C           1.5707  -20.6314  -40.2587 C.2       7 UNK         0.5000 
     36 O           1.1143  -21.7614  -40.0736 O.2       7 UNK        -0.5000 
     37 CA          1.4736  -19.5999  -39.1158 C.3       7 UNK         0.1400 
     38 CB          2.4752  -19.9411  -38.0014 C.3       7 UNK        -0.1800 
     39 N           1.6941  -18.2150  -39.5308 N.am      7 UNK        -0.5000 
     40 C           0.8251  -17.4583  -40.2136 C.2       6 UNK         0.5000 
     41 O          -0.2791  -17.8541  -40.5885 O.2       6 UNK        -0.5000 
     42 CA          1.2668  -16.0154  -40.5455 C.3       6 UNK         0.1400 
     43 CB          2.3751  -15.4696  -39.6179 C.3       6 UNK        -0.1800 
     44 N           1.6661  -15.8668  -41.9467 N.am      6 UNK        -0.5000 
     45 C           2.5796  -16.5960  -42.6056 C.2       5 UNK         0.5000 
     46 O           3.2367  -17.5050  -42.0962 O.2       5 UNK        -0.5000 
     47 CA          2.7932  -16.2641  -44.0905 C.3       5 UNK         0.1400 
     48 CB          1.7487  -16.9835  -44.9503 C.3       5 UNK        -0.1800 
     49 N           2.7328  -14.8375  -44.3948 N.am      5 UNK        -0.5000 
     50 C           3.6462  -13.9266  -44.0358 C.2       4 UNK         0.5000 
     51 O           4.6276  -14.1749  -43.3349 O.2       4 UNK        -0.5000 
     52 CA          3.4327  -12.5007  -44.5695 C.3       4 UNK         0.1400 
     53 CB          3.9047  -12.3985  -46.0289 C.3       4 UNK        -0.1800 
     54 N           2.0244  -12.1148  -44.4979 N.am      4 UNK        -0.5000 
     55 C           1.4863  -11.3792  -43.5165 C.2       3 UNK         0.5000 
     56 O           2.1335  -10.8995  -42.5848 O.2       3 UNK        -0.5000 
     57 CA         -0.0355  -11.1388  -43.5775 C.3       3 UNK         0.1400 
     58 CB         -0.3428   -9.8200  -44.3026 C.3       3 UNK        -0.1800 
     59 N          -0.7719  -12.2236  -44.2286 N.am      3 UNK        -0.5000 
     60 C          -0.8849  -13.4657  -43.7375 C.2       2 UNK         0.5000 
     61 O          -0.3874  -13.8295  -42.6720 O.2       2 UNK        -0.5000 
     62 CA         -1.6399  -14.4948  -44.5980 C.3       2 UNK         0.1400 
     63 CB         -3.1217  -14.5463  -44.2004 C.3       2 UNK        -0.1800 
     64 N          -1.5390  -14.2793  -46.0441 N.am      2 UNK        -0.5000 
     65 C          -0.4029  -14.1861  -46.7519 C.2       1 UNK         0.5000 
     66 O           0.7196  -14.2385  -46.2503 O.2       1 UNK        -0.5000 
     67 C          -0.4279  -19.1612  -47.5039 C.2       11 UNK         0.5000 
     68 O          -0.8793  -18.4287  -48.3793 O.2       11 UNK        -0.5000 
     69 N          -0.8509  -19.1556  -46.2329 N.am      12 UNK        -0.5000 
     70 CA         -1.8132  -18.2052  -45.6857 C.3       12 UNK         0.1400 
     71 CB         -1.7621  -18.2555  -44.1483 C.3       12 UNK        -0.1800 
     72 C          -3.2539  -18.4167  -46.1778 C.2       12 UNK         0.5000 
     73 O          -3.8735  -17.4637  -46.6512 O.2       12 UNK        -0.5000 
     74 N          -3.7779  -19.6353  -45.9971 N.am      13 UNK        -0.5000 
     75 CA         -5.2015  -19.9357  -46.1300 C.3       13 UNK         0.1400 
     76 CB         -5.6449  -20.8315  -44.9614 C.3       13 UNK        -0.1800 
     77 C          -5.5468  -20.5946  -47.4705 C.2       13 UNK         0.5000 
     78 O          -6.5633  -20.2283  -48.0590 O.2       13 UNK        -0.5000 
     79 N          -4.7316  -21.5603  -47.9220 N.am      14 UNK        -0.5000 
     80 CA         -4.9687  -22.2824  -49.1758 C.3       14 UNK         0.1400 
     81 CB         -4.2564  -23.6433  -49.1571 C.3       14 UNK        -0.1800 
     82 C          -4.5750  -21.4267  -50.3900 C.2       14 UNK         0.5000 
     83 O          -5.4248  -21.1518  -51.2408 O.2       14 UNK        -0.5000 
     84 N          -3.3095  -20.9800  -50.4028 N.am      15 UNK        -0.5000 
     85 CA         -2.7554  -19.8834  -51.2079 C.3       15 UNK         0.1400 
     86 CB         -3.3068  -18.5462  -50.6681 C.3       15 UNK        -0.1800 
     87 C          -2.9587  -19.9872  -52.7378 C.2       15 UNK         0.5000 
     88 O          -2.9192  -18.9590  -53.4154 O.2       15 UNK        -0.5000 
     89 N          -3.2275  -21.1942  -53.2596 N.am      16 UNK        -0.5000 
     90 CA         -3.5942  -21.5419  -54.6416 C.3       16 UNK         0.1400 
     91 CB         -2.4733  -21.1634  -55.6295 C.3       16 UNK        -0.1800 
     92 C          -4.9575  -20.9955  -55.1177 C.2       16 UNK         0.5000 
     93 O          -5.6138  -21.6447  -55.9324 O.2       16 UNK        -0.5000 
     94 N          -5.3592  -19.8188  -54.6274 N.am      17 UNK        -0.5000 
     95 CA         -6.5985  -19.1355  -54.9795 C.3       17 UNK         0.1400 
     96 CB         -6.4689  -17.6504  -54.6077 C.3       17 UNK        -0.1800 
     97 C          -7.8403  -19.7488  -54.3107 C.2       17 UNK         0.5000 
     98 O          -8.8991  -19.7822  -54.9399 O.2       17 UNK        -0.5000 
     99 N          -7.7069  -20.1940  -53.0533 N.am      18 UNK        -0.5000 
    100 CA        -8.8252  -20.6883  -52.2480 C.3       18 UNK         0.1400 
    101 CB        -8.7160  -20.1221  -50.8255 C.3       18 UNK        -0.1800 
    102 C         -8.8889  -22.2223  -52.2130 C.2       18 UNK         0.5000 
    103 O         -9.9907  -22.7739  -52.2070 O.2       18 UNK        -0.5000 
    104 N         -7.7275  -22.8868  -52.1888 N.am      19 UNK        -0.5000 
    105 CA        -7.6127  -24.3420  -52.1320 C.3       19 UNK         0.1400 
    106 CB        -7.7910  -24.8376  -50.6785 C.3       19 UNK        -0.1800 
    107 C         -6.3070  -24.7887  -52.8112 C.2       19 UNK         0.5000 
    108 O         -6.0614  -24.3949  -53.9520 O.2       19 UNK        -0.5000 
    109 N         -5.5172  -25.6235  -52.1210 N.am      20 UNK        -0.5000 
    110 CA        -4.2569  -26.2136  -52.5774 C.3       20 UNK         0.1400 
    111 CB        -3.6858  -27.0833  -51.4467 C.3       20 UNK        -0.1800 
    112 C         -3.2079  -25.1794  -53.0267 C.2       20 UNK         0.5000 
    113 O         -3.1761  -24.0606  -52.5051 O.2       20 UNK        -0.5000 
    114 N         -2.3510  -25.5978  -53.9679 N.am      21 UNK        -0.5000 
    115 CA        -1.3150  -24.8094  -54.6427 C.3       21 UNK         0.1400 
    116 CB        -0.8895  -25.5548  -55.9206 C.3       21 UNK        -0.1800 
    117 C         -0.1154  -24.4364  -53.7437 C.2       21 UNK         0.5000 
    118 O          1.0331  -24.7206  -54.0878 O.2       21 UNK        -0.5000 
    119 N         -0.4142  -23.8040  -52.6058 N.am      22 UNK        -0.5000 
    120 CA         0.5250  -23.2674  -51.6082 C.3       22 UNK         0.1400 
    121 C          1.3148  -24.3447  -50.8038 C.2       22 UNK         0.5000 
    122 N          0.9375  -25.6168  -50.8494 N.am      22 UNK        -0.7600 
    123 O          2.2684  -24.0239  -50.1007 O.2       22 UNK        -0.5000 
    124 C124        1.4563  -22.1583  -52.1695 C.3       23 UNK        -0.0398 
    125 S125        0.5653  -20.8243  -53.0435 S.3       23 UNK        -0.2404 
    126 C126        1.9199  -19.6776  -53.4464 C.3       23 UNK        -0.0205 
    127 H127       -3.9786  -11.0830  -47.9552 H         1 UNK         0.0600 
    128 H128       -3.8388  -12.0137  -49.4498 H         1 UNK         0.0600 
    129 H129       -3.0826  -10.4226  -49.3273 H         1 UNK         0.0600 
    130 H130       -2.3534  -13.6631  -49.2975 H         1 UNK         0.3000 
    131 H131        0.3273  -13.3644  -48.5715 H         1 UNK         0.0600 
    132 H132       -1.3334  -15.9235  -48.7735 H         1 UNK         0.0800 
    133 H133        0.4078  -15.9046  -48.6665 H         1 UNK         0.0800 
    134 H134        1.6494  -14.7524  -52.0607 H         1 UNK         0.0800 
    135 H135        1.9479  -14.6158  -50.3503 H         1 UNK         0.0800 
    136 H136        1.0333  -17.1346  -52.9868 H         1 UNK         0.1150 
    137 H137        3.5668  -20.1699  -51.3284 H         1 UNK         0.1150 
    138 H138        3.0213  -16.4695  -49.2461 H         1 UNK         0.1150 
    139 H139        5.2159  -19.2303  -49.4748 H         1 UNK         0.0800 
    140 H140        4.4995  -18.1262  -48.3276 H         1 UNK         0.0800 
    141 H141        2.1085  -18.4632  -47.6267 H         1 UNK         0.0800 
    142 H142        2.1877  -19.6088  -46.3173 H         1 UNK         0.0800 
    143 H143        0.7356  -20.2368  -48.9372 H         1 UNK         0.0600 
    144 H144        0.9886  -21.6601  -46.4142 H         1 UNK         0.3000 
    145 H145       -1.6774  -23.9513  -47.0345 H         1 UNK         0.0600 
    146 H146        0.2108  -25.5224  -46.5130 H         1 UNK         0.0600 
    147 H147        0.2345  -24.9677  -48.1743 H         1 UNK         0.0600 
    148 H148        1.3683  -24.2871  -47.0125 H         1 UNK         0.0600 
    149 H149        0.1452  -23.6372  -44.8498 H         1 UNK         0.3000 
    150 H150       -1.8580  -21.3606  -42.9723 H         1 UNK         0.0600 
    151 H151       -3.0068  -23.5571  -42.6625 H         1 UNK         0.0600 
    152 H152       -1.9160  -23.1960  -41.3345 H         1 UNK         0.0600 
    153 H153       -1.4450  -24.3639  -42.5694 H         1 UNK         0.0600 
    154 H154        0.3358  -22.5747  -41.9622 H         1 UNK         0.3000 
    155 H155        2.5825  -22.1187  -42.2683 H         1 UNK         0.0600 
    156 H156        3.2142  -19.5649  -43.8327 H         1 UNK         0.0600 
    157 H157        3.5288  -21.2036  -44.3806 H         1 UNK         0.0600 
    158 H158        4.3684  -20.5740  -42.9710 H         1 UNK         0.0600 
    159 H159        2.5020  -19.3079  -41.4971 H         1 UNK         0.3000 
    160 H160        0.4664  -19.6744  -38.7006 H         1 UNK         0.0600 
    161 H161        3.5057  -19.8724  -38.3525 H         1 UNK         0.0600 
    162 H162        2.3211  -20.9561  -37.6324 H         1 UNK         0.0600 
    163 H163        2.3639  -19.2685  -37.1507 H         1 UNK         0.0600 
    164 H164        2.5950  -17.8173  -39.3076 H         1 UNK         0.3000 
    165 H165        0.3853  -15.3876  -40.4069 H         1 UNK         0.0600 
    166 H166        2.5521  -14.4115  -39.8115 H         1 UNK         0.0600 
    167 H167        2.0906  -15.5600  -38.5688 H         1 UNK         0.0600 
    168 H168        3.3246  -15.9884  -39.7534 H         1 UNK         0.0600 
    169 H169        1.1571  -15.1518  -42.4551 H         1 UNK         0.3000 
    170 H170        3.7818  -16.6321  -44.3729 H         1 UNK         0.0600 
    171 H171        1.7117  -18.0472  -44.7246 H         1 UNK         0.0600 
    172 H172        0.7518  -16.5839  -44.7797 H         1 UNK         0.0600 
    173 H173        1.9710  -16.8665  -46.0096 H         1 UNK         0.0600 
    174 H174        1.9779  -14.5502  -45.0136 H         1 UNK         0.3000 
    175 H175        4.0437  -11.8217  -43.9710 H         1 UNK         0.0600 
    176 H176        3.3302  -13.0508  -46.6880 H         1 UNK         0.0600 
    177 H177        3.8082  -11.3787  -46.4018 H         1 UNK         0.0600 
    178 H178        4.9545  -12.6802  -46.1204 H         1 UNK         0.0600 
    179 H179        1.4117  -12.5063  -45.2024 H         1 UNK         0.3000 
    180 H180       -0.3969  -11.0561  -42.5503 H         1 UNK         0.0600 
    181 H181       -1.4107   -9.6016  -44.2897 H         1 UNK         0.0600 
    182 H182       -0.0194   -9.8498  -45.3440 H         1 UNK         0.0600 
    183 H183        0.1661   -8.9824  -43.8239 H         1 UNK         0.0600 
    184 H184       -1.1782  -12.0180  -45.1322 H         1 UNK         0.3000 
    185 H185       -1.1988  -15.4658  -44.3794 H         1 UNK         0.0600 
    186 H186       -3.6460  -15.3425  -44.7290 H         1 UNK         0.0600 
    187 H187       -3.2338  -14.7395  -43.1326 H         1 UNK         0.0600 
    188 H188       -3.6293  -13.6062  -44.4199 H         1 UNK         0.0600 
    189 H189       -2.4119  -14.1990  -46.5454 H         1 UNK         0.3000 
    190 H190       -0.3905  -19.7699  -45.5648 H         1 UNK         0.3000 
    191 H191       -1.5024  -17.2083  -46.0020 H         1 UNK         0.0600 
    192 H192       -2.4362  -17.5203  -43.7079 H         1 UNK         0.0600 
    193 H193       -0.7625  -18.0499  -43.7671 H         1 UNK         0.0600 
    194 H194       -2.0599  -19.2314  -43.7690 H         1 UNK         0.0600 
    195 H195       -3.1903  -20.3941  -45.6581 H         1 UNK         0.3000 
    196 H196       -5.7803  -19.0118  -46.0609 H         1 UNK         0.0600 
    197 H197       -5.1494  -21.8024  -44.9793 H         1 UNK         0.0600 
    198 H198       -5.4284  -20.3627  -44.0013 H         1 UNK         0.0600 
    199 H199       -6.7195  -21.0143  -44.9988 H         1 UNK         0.0600 
    200 H200       -3.9058  -21.7980  -47.3893 H         1 UNK         0.3000 
    201 H201       -6.0393  -22.4810  -49.2569 H         1 UNK         0.0600 
    202 H202       -4.6110  -24.2621  -48.3328 H         1 UNK         0.0600 
    203 H203       -3.1775  -23.5504  -49.0640 H         1 UNK         0.0600 
    204 H204       -4.4492  -24.1883  -50.0786 H         1 UNK         0.0600 
    205 H205       -2.6780  -21.3362  -49.6900 H         1 UNK         0.3000 
    206 H206       -1.6782  -19.8961  -51.0354 H         1 UNK         0.0600 
    207 H207       -4.3579  -18.4120  -50.9266 H         1 UNK         0.0600 
    208 H208       -3.2261  -18.4899  -49.5827 H         1 UNK         0.0600 
    209 H209       -2.7535  -17.6990  -51.0753 H         1 UNK         0.0600 
    210 H210       -3.2857  -21.9745  -52.6144 H         1 UNK         0.3000 
    211 H211       -3.6955  -22.6263  -54.6548 H         1 UNK         0.0600 
    212 H212       -2.6693  -21.5834  -56.6166 H         1 UNK         0.0600 
    213 H213       -1.5057  -21.5402  -55.2996 H         1 UNK         0.0600 
    214 H214       -2.3839  -20.0835  -55.7493 H         1 UNK         0.0600 
    215 H215       -4.7131  -19.3271  -54.0187 H         1 UNK         0.3000 
    216 H216       -6.7344  -19.2027  -56.0610 H         1 UNK         0.0600 
    217 H217       -6.3039  -17.5161  -53.5378 H         1 UNK         0.0600 
    218 H218       -7.3725  -17.1002  -54.8732 H         1 UNK         0.0600 
    219 H219       -5.6372  -17.1834  -55.1355 H         1 UNK         0.0600 
    220 H220       -6.7958  -20.1841  -52.6092 H         1 UNK         0.3000 
    221 H221       -9.7716  -20.3328  -52.6613 H         1 UNK         0.0600 
    222 H222       -8.7130  -19.0322  -50.8321 H         1 UNK         0.0600 
    223 H223       -7.8053  -20.4563  -50.3315 H         1 UNK         0.0600 
    224 H224       -9.5576  -20.4430  -50.2105 H         1 UNK         0.0600 
    225 H225       -6.8579  -22.3651  -52.2038 H         1 UNK         0.3000 
    226 H226       -8.4130  -24.7786  -52.7331 H         1 UNK         0.0600 
    227 H227       -7.0073  -24.4661  -50.0201 H         1 UNK         0.0600 
    228 H228       -8.7458  -24.5111  -50.2664 H         1 UNK         0.0600 
    229 H229       -7.7860  -25.9270  -50.6272 H         1 UNK         0.0600 
    230 H230       -5.8105  -25.8851  -51.1921 H         1 UNK         0.3000 
    231 H231       -4.4923  -26.8553  -53.4287 H         1 UNK         0.0600 
    232 H232       -3.4533  -26.4902  -50.5612 H         1 UNK         0.0600 
    233 H233       -2.7659  -27.5799  -51.7578 H         1 UNK         0.0600 
    234 H234       -4.3886  -27.8635  -51.1535 H         1 UNK         0.0600 
    235 H235       -2.4369  -26.5507  -54.2908 H         1 UNK         0.3000 
    236 H236       -1.7657  -23.8698  -54.9576 H         1 UNK         0.0600 
    237 H237       -1.7420  -25.7329  -56.5763 H         1 UNK         0.0600 
    238 H238       -0.1631  -24.9741  -56.4907 H         1 UNK         0.0600 
    239 H239       -0.4341  -26.5189  -55.6911 H         1 UNK         0.0600 
    240 H240       -1.4018  -23.6762  -52.3995 H         1 UNK         0.3000 
    241 H241       -0.1126  -22.7894  -50.8667 H         1 UNK         0.0600 
    242 H242        0.1628  -25.8995  -51.4266 H         1 UNK         0.3800 
    243 H243        1.4533  -26.3056  -50.3253 H         1 UNK         0.3800 
    244 H244        2.1999  -22.5845  -52.8444 H         1 UNK         0.0800 
    245 H245        2.0057  -21.7117  -51.3426 H         1 UNK         0.0800 
    246 H246        2.8059  -20.2368  -53.7506 H         1 UNK         0.0800 
    247 H247        1.6253  -19.0820  -54.3116 H         1 UNK         0.0800 
@<TRIPOS>BOND
     1    1    2 1    
     2    1  127 1    
     3    1  128 1    
     4    1  129 1    
     5    2    3 2    
     6    2    4 am   BACKBONE|DICT|INTERRES
     7    4    5 1    
     8    4  130 1    
     9    5    6 1    
    10    5   65 1    
    11    5  131 1    
    12    6    7 1    
    13    6  132 1    
    14    6  133 1    
    15    7    8 1    
    16    8    9 1    
    17    8  134 1    
    18    8  135 1    
    19    9   10 ar   
    20    9   14 ar   
    21   10   11 ar   
    22   10  136 1    
    23   11   12 ar   
    24   11  126 1    
    25   12   13 ar   
    26   12  137 1    
    27   13   14 ar   
    28   13   15 1    
    29   14  138 1    
    30   15   16 1    
    31   15  139 1    
    32   15  140 1    
    33   16   17 1    
    34   17   18 1    
    35   17  141 1    
    36   17  142 1    
    37   18   19 1    
    38   18   67 1    
    39   18  143 1    
    40   19   20 am   BACKBONE|DICT|INTERRES
    41   19  144 1    
    42   20   21 2    
    43   20   22 1    
    44   22   23 1    
    45   22   24 1    
    46   22  145 1    
    47   23  146 1    
    48   23  147 1    
    49   23  148 1    
    50   24   25 am   BACKBONE|DICT|INTERRES
    51   24  149 1    
    52   25   26 2    
    53   25   27 1    
    54   27   28 1    
    55   27   29 1    
    56   27  150 1    
    57   28  151 1    
    58   28  152 1    
    59   28  153 1    
    60   29   30 am   BACKBONE|DICT|INTERRES
    61   29  154 1    
    62   30   31 2    
    63   30   32 1    
    64   32   33 1    
    65   32   34 1    
    66   32  155 1    
    67   33  156 1    
    68   33  157 1    
    69   33  158 1    
    70   34   35 am   BACKBONE|DICT|INTERRES
    71   34  159 1    
    72   35   36 2    
    73   35   37 1    
    74   37   38 1    
    75   37   39 1    
    76   37  160 1    
    77   38  161 1    
    78   38  162 1    
    79   38  163 1    
    80   39   40 am   BACKBONE|DICT|INTERRES
    81   39  164 1    
    82   40   41 2    
    83   40   42 1    
    84   42   43 1    
    85   42   44 1    
    86   42  165 1    
    87   43  166 1    
    88   43  167 1    
    89   43  168 1    
    90   44   45 am   BACKBONE|DICT|INTERRES
    91   44  169 1    
    92   45   46 2    
    93   45   47 1    
    94   47   48 1    
    95   47   49 1    
    96   47  170 1    
    97   48  171 1    
    98   48  172 1    
    99   48  173 1    
   100   49   50 am   BACKBONE|DICT|INTERRES
   101   49  174 1    
   102   50   51 2    
   103   50   52 1    
   104   52   53 1    
   105   52   54 1    
   106   52  175 1    
   107   53  176 1    
   108   53  177 1    
   109   53  178 1    
   110   54   55 am   BACKBONE|DICT|INTERRES
   111   54  179 1    
   112   55   56 2    
   113   55   57 1    
   114   57   58 1    
   115   57   59 1    
   116   57  180 1    
   117   58  181 1    
   118   58  182 1    
   119   58  183 1    
   120   59   60 am   BACKBONE|DICT|INTERRES
   121   59  184 1    
   122   60   61 2    
   123   60   62 1    
   124   62   63 1    
   125   62   64 1    
   126   62  185 1    
   127   63  186 1    
   128   63  187 1    
   129   63  188 1    
   130   64   65 am   BACKBONE|DICT|INTERRES
   131   64  189 1    
   132   65   66 2    
   133   67   68 2    
   134   67   69 am   BACKBONE|DICT|INTERRES
   135   69   70 1    
   136   69  190 1    
   137   70   71 1    
   138   70   72 1    
   139   70  191 1    
   140   71  192 1    
   141   71  193 1    
   142   71  194 1    
   143   72   73 2    
   144   72   74 am   BACKBONE|DICT|INTERRES
   145   74   75 1    
   146   74  195 1    
   147   75   76 1    
   148   75   77 1    
   149   75  196 1    
   150   76  197 1    
   151   76  198 1    
   152   76  199 1    
   153   77   78 2    
   154   77   79 am   BACKBONE|DICT|INTERRES
   155   79   80 1    
   156   79  200 1    
   157   80   81 1    
   158   80   82 1    
   159   80  201 1    
   160   81  202 1    
   161   81  203 1    
   162   81  204 1    
   163   82   83 2    
   164   82   84 am   BACKBONE|DICT|INTERRES
   165   84   85 1    
   166   84  205 1    
   167   85   86 1    
   168   85   87 1    
   169   85  206 1    
   170   86  207 1    
   171   86  208 1    
   172   86  209 1    
   173   87   88 2    
   174   87   89 am   BACKBONE|DICT|INTERRES
   175   89   90 1    
   176   89  210 1    
   177   90   91 1    
   178   90   92 1    
   179   90  211 1    
   180   91  212 1    
   181   91  213 1    
   182   91  214 1    
   183   92   93 2    
   184   92   94 am   BACKBONE|DICT|INTERRES
   185   94   95 1    
   186   94  215 1    
   187   95   96 1    
   188   95   97 1    
   189   95  216 1    
   190   96  217 1    
   191   96  218 1    
   192   96  219 1    
   193   97   98 2    
   194   97   99 am   BACKBONE|DICT|INTERRES
   195   99  100 1    
   196   99  220 1    
   197  100  101 1    
   198  100  102 1    
   199  100  221 1    
   200  101  222 1    
   201  101  223 1    
   202  101  224 1    
   203  102  103 2    
   204  102  104 am   BACKBONE|DICT|INTERRES
   205  104  105 1    
   206  104  225 1    
   207  105  106 1    
   208  105  107 1    
   209  105  226 1    
   210  106  227 1    
   211  106  228 1    
   212  106  229 1    
   213  107  108 2    
   214  107  109 am   BACKBONE|DICT|INTERRES
   215  109  110 1    
   216  109  230 1    
   217  110  111 1    
   218  110  112 1    
   219  110  231 1    
   220  111  232 1    
   221  111  233 1    
   222  111  234 1    
   223  112  113 2    
   224  112  114 am   BACKBONE|DICT|INTERRES
   225  114  115 1    
   226  114  235 1    
   227  115  116 1    
   228  115  117 1    
   229  115  236 1    
   230  116  237 1    
   231  116  238 1    
   232  116  239 1    
   233  117  118 2    
   234  117  119 am   BACKBONE|DICT|INTERRES
   235  119  120 1    
   236  119  240 1    
   237  120  121 1    
   238  120  124 1    
   239  120  241 1    
   240  121  122 am   BACKBONE|DICT|INTERRES
   241  121  123 2    
   242  122  242 1    
   243  122  243 1    
   244  124  125 1    
   245  124  244 1    
   246  124  245 1    
   247  125  126 1    
   248  126  246 1    
   249  126  247 1    
@<TRIPOS>SUBSTRUCTURE
     1 UNK         1 GROUP             0       ****    0 ROOT    
