@<TRIPOS>MOLECULE
3R540
247   249    1
SMALL
USER_CHARGES


@<TRIPOS>ATOM
      1 CA         -4.8337  -19.5727  -45.7674 C.3       0 UNK        -0.1800 
      2 C          -4.8294  -18.0532  -45.8381 C.2       0 UNK         0.5000 
      3 O          -5.7748  -17.4082  -45.3838 O.2       0 UNK        -0.5000 
      4 N          -3.7683  -17.4766  -46.4126 N.am      1 UNK        -0.5000 
      5 CA         -3.5405  -16.0378  -46.5467 C.3       1 UNK         0.1400 
      6 C6         -2.6011  -15.7008  -47.7379 C.3       23 UNK        -0.0398 
      7 S7         -1.0407  -16.6533  -47.8378 S.3       23 UNK        -0.2404 
      8 C8         -1.5408  -18.0896  -48.8510 C.3       23 UNK        -0.0205 
      9 C9         -0.3899  -18.8251  -49.5351 C.ar      23 UNK        -0.0193 
     10 C10        -0.6374  -19.4797  -50.7462 C.ar      23 UNK        -0.1150 
     11 C11         0.3877  -20.1473  -51.4212 C.ar      23 UNK        -0.0193 
     12 C12         1.6735  -20.1606  -50.8761 C.ar      23 UNK        -0.1150 
     13 C13         1.9326  -19.5446  -49.6491 C.ar      23 UNK        -0.0193 
     14 C14         0.8969  -18.8812  -48.9836 C.ar      23 UNK        -0.1150 
     15 C15         3.3327  -19.5701  -49.0467 C.3       23 UNK        -0.0205 
     16 S16         4.0550  -21.2427  -48.9242 S.3       23 UNK        -0.2404 
     17 C17         2.7176  -22.2065  -48.1414 C.3       23 UNK        -0.0398 
     18 CA          3.2697  -23.3010  -47.1938 C.3       11 UNK         0.1400 
     19 N           3.7779  -22.7269  -45.9434 N.am      11 UNK        -0.5000 
     20 C           4.6012  -23.3492  -45.0904 C.2       10 UNK         0.5000 
     21 O           5.0863  -24.4624  -45.2959 O.2       10 UNK        -0.5000 
     22 CA          4.9030  -22.6199  -43.7677 C.3       10 UNK         0.1400 
     23 CB          6.0064  -21.5692  -43.9628 C.3       10 UNK        -0.1800 
     24 N           3.7162  -21.9912  -43.1791 N.am      10 UNK        -0.5000 
     25 C           2.6608  -22.6653  -42.6978 C.2       9 UNK         0.5000 
     26 O           2.5822  -23.8936  -42.6877 O.2       9 UNK        -0.5000 
     27 CA          1.4799  -21.8368  -42.1599 C.3       9 UNK         0.1400 
     28 CB          1.7609  -21.3600  -40.7271 C.3       9 UNK        -0.1800 
     29 N           1.1573  -20.6878  -43.0039 N.am      9 UNK        -0.5000 
     30 C           0.6863  -20.7658  -44.2564 C.2       8 UNK         0.5000 
     31 O           0.4233  -21.8234  -44.8267 O.2       8 UNK        -0.5000 
     32 CA          0.5413  -19.4403  -45.0253 C.3       8 UNK         0.1400 
     33 CB         -0.7522  -18.7172  -44.6229 C.3       8 UNK        -0.1800 
     34 N           1.6913  -18.5530  -44.8364 N.am      8 UNK        -0.5000 
     35 C           2.9586  -18.8772  -45.1340 C.2       7 UNK         0.5000 
     36 O           3.2917  -19.9519  -45.6293 O.2       7 UNK        -0.5000 
     37 CA          4.0436  -17.8571  -44.7620 C.3       7 UNK         0.1400 
     38 CB          4.1290  -16.7338  -45.8070 C.3       7 UNK        -0.1800 
     39 N           3.8030  -17.2971  -43.4337 N.am      7 UNK        -0.5000 
     40 C           3.9950  -17.9697  -42.2899 C.2       6 UNK         0.5000 
     41 O           4.4477  -19.1135  -42.2381 O.2       6 UNK        -0.5000 
     42 CA          3.5738  -17.2610  -40.9887 C.3       6 UNK         0.1400 
     43 CB          4.6901  -16.3303  -40.4924 C.3       6 UNK        -0.1800 
     44 N           2.3337  -16.4968  -41.1345 N.am      6 UNK        -0.5000 
     45 C           1.1346  -17.0452  -41.3736 C.2       5 UNK         0.5000 
     46 O           0.9438  -18.2577  -41.4542 O.2       5 UNK        -0.5000 
     47 CA         -0.0447  -16.0805  -41.5999 C.3       5 UNK         0.1400 
     48 CB         -0.7081  -15.7367  -40.2580 C.3       5 UNK        -0.1800 
     49 N           0.2925  -14.8417  -42.3113 N.am      5 UNK        -0.5000 
     50 C           0.9136  -14.7638  -43.4987 C.2       4 UNK         0.5000 
     51 O           1.3770  -15.7396  -44.0900 O.2       4 UNK        -0.5000 
     52 CA          0.9850  -13.3657  -44.1339 C.3       4 UNK         0.1400 
     53 CB          1.6364  -13.3687  -45.5290 C.3       4 UNK        -0.1800 
     54 N          -0.3761  -12.8566  -44.2380 N.am      4 UNK        -0.5000 
     55 C          -0.7930  -11.6294  -43.9045 C.2       3 UNK         0.5000 
     56 O          -0.0384  -10.7276  -43.5384 O.2       3 UNK        -0.5000 
     57 CA         -2.3146  -11.3653  -43.9688 C.3       3 UNK         0.1400 
     58 CB         -2.6792  -10.6500  -45.2787 C.3       3 UNK        -0.1800 
     59 N          -3.1238  -12.5825  -43.8541 N.am      3 UNK        -0.5000 
     60 C          -3.1704  -13.3759  -42.7745 C.2       2 UNK         0.5000 
     61 O          -2.6408  -13.0868  -41.7015 O.2       2 UNK        -0.5000 
     62 CA         -3.8847  -14.7375  -42.9194 C.3       2 UNK         0.1400 
     63 CB         -5.2572  -14.6986  -42.2312 C.3       2 UNK        -0.1800 
     64 N          -4.0605  -15.2238  -44.2946 N.am      2 UNK        -0.5000 
     65 C          -3.0939  -15.4312  -45.2000 C.2       1 UNK         0.5000 
     66 O          -1.9109  -15.1670  -44.9974 O.2       1 UNK        -0.5000 
     67 C           2.1990  -24.3893  -46.9551 C.2       11 UNK         0.5000 
     68 O           1.9424  -25.1782  -47.8654 O.2       11 UNK        -0.5000 
     69 N           1.5840  -24.3990  -45.7617 N.am      12 UNK        -0.5000 
     70 CA          0.4205  -25.1990  -45.3616 C.3       12 UNK         0.1400 
     71 CB          0.7751  -26.6985  -45.2896 C.3       12 UNK        -0.1800 
     72 C          -0.8054  -24.8960  -46.2499 C.2       12 UNK         0.5000 
     73 O          -1.5022  -25.8093  -46.6971 O.2       12 UNK        -0.5000 
     74 N          -1.0077  -23.6016  -46.5218 N.am      13 UNK        -0.5000 
     75 CA         -2.0423  -23.0769  -47.4031 C.3       13 UNK         0.1400 
     76 CB         -1.6628  -21.6444  -47.8060 C.3       13 UNK        -0.1800 
     77 C          -3.4319  -23.1026  -46.7452 C.2       13 UNK         0.5000 
     78 O          -3.5471  -22.9800  -45.5231 O.2       13 UNK        -0.5000 
     79 N          -4.4570  -23.2200  -47.5908 N.am      14 UNK        -0.5000 
     80 CA         -5.8729  -23.1537  -47.2366 C.3       14 UNK         0.1400 
     81 CB         -6.5202  -24.5217  -47.5024 C.3       14 UNK        -0.1800 
     82 C          -6.5966  -22.0507  -48.0293 C.2       14 UNK         0.5000 
     83 O          -7.5893  -21.5139  -47.5362 O.2       14 UNK        -0.5000 
     84 N          -6.0968  -21.7174  -49.2274 N.am      15 UNK        -0.5000 
     85 CA         -6.5825  -20.6131  -50.0478 C.3       15 UNK         0.1400 
     86 CB         -6.2344  -20.8897  -51.5195 C.3       15 UNK        -0.1800 
     87 C          -5.9354  -19.2965  -49.5959 C.2       15 UNK         0.5000 
     88 O          -4.7553  -19.2810  -49.2351 O.2       15 UNK        -0.5000 
     89 N          -6.6893  -18.1962  -49.6951 N.am      16 UNK        -0.5000 
     90 CA         -6.2346  -16.8334  -49.4076 C.3       16 UNK         0.1400 
     91 CB         -7.4493  -15.9749  -49.0135 C.3       16 UNK        -0.1800 
     92 C          -5.4249  -16.2330  -50.5788 C.2       16 UNK         0.5000 
     93 O          -5.7069  -15.1176  -51.0199 O.2       16 UNK        -0.5000 
     94 N          -4.4387  -17.0022  -51.0608 N.am      17 UNK        -0.5000 
     95 CA         -3.5953  -16.7547  -52.2332 C.3       17 UNK         0.1400 
     96 CB         -2.6513  -15.5570  -51.9831 C.3       17 UNK        -0.1800 
     97 C          -4.4281  -16.6486  -53.5313 C.2       17 UNK         0.5000 
     98 O          -5.4598  -17.3165  -53.6418 O.2       17 UNK        -0.5000 
     99 N          -3.9536  -15.8460  -54.4958 N.am      18 UNK        -0.5000 
    100 CA        -4.5228  -15.5389  -55.8178 C.3       18 UNK         0.1400 
    101 CB        -5.9097  -14.8789  -55.6938 C.3       18 UNK        -0.1800 
    102 C         -4.5549  -16.7254  -56.8033 C.2       18 UNK         0.5000 
    103 O         -4.1325  -16.5703  -57.9502 O.2       18 UNK        -0.5000 
    104 N         -5.0433  -17.8827  -56.3475 N.am      19 UNK        -0.5000 
    105 CA        -5.0502  -19.1494  -57.0734 C.3       19 UNK         0.1400 
    106 CB        -5.9987  -20.1199  -56.3528 C.3       19 UNK        -0.1800 
    107 C         -3.6368  -19.7521  -57.1789 C.2       19 UNK         0.5000 
    108 O         -2.7936  -19.5115  -56.3104 O.2       19 UNK        -0.5000 
    109 N         -3.4134  -20.5465  -58.2343 N.am      20 UNK        -0.5000 
    110 CA        -2.1565  -21.2602  -58.4784 C.3       20 UNK         0.1400 
    111 CB        -2.1371  -21.7712  -59.9273 C.3       20 UNK        -0.1800 
    112 C         -1.9282  -22.4203  -57.4904 C.2       20 UNK         0.5000 
    113 O         -0.7832  -22.6952  -57.1299 O.2       20 UNK        -0.5000 
    114 N         -3.0214  -23.0647  -57.0629 N.am      21 UNK        -0.5000 
    115 CA        -3.0348  -24.0536  -55.9901 C.3       21 UNK         0.1400 
    116 CB        -4.1603  -25.0665  -56.2516 C.3       21 UNK        -0.1800 
    117 C         -3.2521  -23.3321  -54.6517 C.2       21 UNK         0.5000 
    118 O         -4.1365  -22.4781  -54.5606 O.2       21 UNK        -0.5000 
    119 N         -2.4559  -23.6914  -53.6405 N.am      22 UNK        -0.5000 
    120 CA        -2.4850  -23.0666  -52.3064 C.3       22 UNK         0.1400 
    121 C         -3.6166  -23.5894  -51.3754 C.2       22 UNK         0.5000 
    122 N         -4.3871  -24.6004  -51.7548 N.am      22 UNK        -0.7600 
    123 O         -3.8068  -23.0601  -50.2852 O.2       22 UNK        -0.5000 
    124 C124       -1.1086  -23.1296  -51.5911 C.3       23 UNK        -0.0398 
    125 S125        0.3040  -22.6458  -52.6457 S.3       23 UNK        -0.2404 
    126 C126        0.1164  -20.8366  -52.7497 C.3       23 UNK        -0.0205 
    127 H127       -5.8384  -19.9531  -45.9479 H         1 UNK         0.0600 
    128 H128       -4.5132  -19.9073  -44.7809 H         1 UNK         0.0600 
    129 H129       -4.1693  -20.0101  -46.5132 H         1 UNK         0.0600 
    130 H130       -3.0119  -18.0546  -46.7456 H         1 UNK         0.3000 
    131 H131       -4.4985  -15.5686  -46.7815 H         1 UNK         0.0600 
    132 H132       -3.1446  -15.8388  -48.6713 H         1 UNK         0.0800 
    133 H133       -2.3428  -14.6404  -47.7235 H         1 UNK         0.0800 
    134 H134       -2.2386  -17.7479  -49.6132 H         1 UNK         0.0800 
    135 H135       -2.0865  -18.7984  -48.2304 H         1 UNK         0.0800 
    136 H136       -1.6321  -19.4639  -51.1688 H         1 UNK         0.1150 
    137 H137        2.4707  -20.6685  -51.4005 H         1 UNK         0.1150 
    138 H138        1.1017  -18.3972  -48.0397 H         1 UNK         0.1150 
    139 H139        3.9878  -18.9530  -49.6625 H         1 UNK         0.0800 
    140 H140        3.3326  -19.1138  -48.0588 H         1 UNK         0.0800 
    141 H141        2.0409  -21.5415  -47.6015 H         1 UNK         0.0800 
    142 H142        2.1315  -22.6410  -48.9540 H         1 UNK         0.0800 
    143 H143        4.1003  -23.8002  -47.6976 H         1 UNK         0.0600 
    144 H144        3.4865  -21.7735  -45.7337 H         1 UNK         0.3000 
    145 H145        5.2707  -23.3636  -43.0577 H         1 UNK         0.0600 
    146 H146        6.2783  -21.1026  -43.0159 H         1 UNK         0.0600 
    147 H147        5.6968  -20.7804  -44.6483 H         1 UNK         0.0600 
    148 H148        6.9093  -22.0234  -44.3724 H         1 UNK         0.0600 
    149 H149        3.7175  -20.9794  -43.1290 H         1 UNK         0.3000 
    150 H150        0.6031  -22.4873  -42.1345 H         1 UNK         0.0600 
    151 H151        1.9998  -22.2003  -40.0740 H         1 UNK         0.0600 
    152 H152        0.8925  -20.8556  -40.3032 H         1 UNK         0.0600 
    153 H153        2.6007  -20.6651  -40.6914 H         1 UNK         0.0600 
    154 H154        1.2893  -19.7698  -42.5878 H         1 UNK         0.3000 
    155 H155        0.4836  -19.6767  -46.0891 H         1 UNK         0.0600 
    156 H156       -1.6282  -19.3002  -44.9087 H         1 UNK         0.0600 
    157 H157       -0.8307  -17.7446  -45.1067 H         1 UNK         0.0600 
    158 H158       -0.8063  -18.5559  -43.5471 H         1 UNK         0.0600 
    159 H159        1.5062  -17.6268  -44.4604 H         1 UNK         0.3000 
    160 H160        5.0051  -18.3745  -44.7480 H         1 UNK         0.0600 
    161 H161        3.1794  -16.2128  -45.9275 H         1 UNK         0.0600 
    162 H162        4.4036  -17.1353  -46.7830 H         1 UNK         0.0600 
    163 H163        4.8846  -15.9970  -45.5346 H         1 UNK         0.0600 
    164 H164        3.3232  -16.4072  -43.4028 H         1 UNK         0.3000 
    165 H165        3.4094  -18.0304  -40.2312 H         1 UNK         0.0600 
    166 H166        4.4342  -15.8854  -39.5306 H         1 UNK         0.0600 
    167 H167        5.6234  -16.8787  -40.3576 H         1 UNK         0.0600 
    168 H168        4.8839  -15.5204  -41.1969 H         1 UNK         0.0600 
    169 H169        2.4034  -15.4910  -41.0880 H         1 UNK         0.3000 
    170 H170       -0.7788  -16.6050  -42.2134 H         1 UNK         0.0600 
    171 H171       -0.0505  -15.1389  -39.6259 H         1 UNK         0.0600 
    172 H172       -1.6328  -15.1796  -40.4015 H         1 UNK         0.0600 
    173 H173       -0.9632  -16.6412  -39.7039 H         1 UNK         0.0600 
    174 H174       -0.0795  -13.9897  -41.9156 H         1 UNK         0.3000 
    175 H175        1.5810  -12.7383  -43.4682 H         1 UNK         0.0600 
    176 H176        1.0911  -14.0096  -46.2237 H         1 UNK         0.0600 
    177 H177        1.6655  -12.3646  -45.9519 H         1 UNK         0.0600 
    178 H178        2.6635  -13.7317  -45.4801 H         1 UNK         0.0600 
    179 H179       -1.0635  -13.5585  -44.5063 H         1 UNK         0.3000 
    180 H180       -2.5705  -10.7092  -43.1343 H         1 UNK         0.0600 
    181 H181       -3.7380  -10.3922  -45.3068 H         1 UNK         0.0600 
    182 H182       -2.4594  -11.2693  -46.1493 H         1 UNK         0.0600 
    183 H183       -2.1171   -9.7213  -45.3862 H         1 UNK         0.0600 
    184 H184       -3.5939  -12.8935  -44.6906 H         1 UNK         0.3000 
    185 H185       -3.2660  -15.4723  -42.4007 H         1 UNK         0.0600 
    186 H186       -5.9359  -14.0057  -42.7300 H         1 UNK         0.0600 
    187 H187       -5.7251  -15.6834  -42.2274 H         1 UNK         0.0600 
    188 H188       -5.1670  -14.3801  -41.1918 H         1 UNK         0.0600 
    189 H189       -4.9917  -15.5431  -44.5346 H         1 UNK         0.3000 
    190 H190        1.8568  -23.6863  -45.0980 H         1 UNK         0.3000 
    191 H191        0.1580  -24.8725  -44.3543 H         1 UNK         0.0600 
    192 H192       -0.0522  -27.2737  -44.8724 H         1 UNK         0.0600 
    193 H193        1.6420  -26.8661  -44.6504 H         1 UNK         0.0600 
    194 H194        0.9973  -27.1133  -46.2730 H         1 UNK         0.0600 
    195 H195       -0.4371  -22.9175  -46.0301 H         1 UNK         0.3000 
    196 H196       -2.0651  -23.6956  -48.3026 H         1 UNK         0.0600 
    197 H197       -2.3856  -21.2351  -48.5135 H         1 UNK         0.0600 
    198 H198       -0.6849  -21.6142  -48.2871 H         1 UNK         0.0600 
    199 H199       -1.6321  -20.9797  -46.9422 H         1 UNK         0.0600 
    200 H200       -4.2437  -23.2781  -48.5852 H         1 UNK         0.3000 
    201 H201       -5.9890  -22.9159  -46.1771 H         1 UNK         0.0600 
    202 H202       -6.0493  -25.3014  -46.9035 H         1 UNK         0.0600 
    203 H203       -6.4371  -24.8086  -48.5514 H         1 UNK         0.0600 
    204 H204       -7.5803  -24.5095  -47.2462 H         1 UNK         0.0600 
    205 H205       -5.2524  -22.1700  -49.5634 H         1 UNK         0.3000 
    206 H206       -7.6679  -20.5381  -49.9533 H         1 UNK         0.0600 
    207 H207       -6.6518  -21.8394  -51.8546 H         1 UNK         0.0600 
    208 H208       -6.6337  -20.1101  -52.1698 H         1 UNK         0.0600 
    209 H209       -5.1561  -20.9243  -51.6804 H         1 UNK         0.0600 
    210 H210       -7.6316  -18.2816  -50.0483 H         1 UNK         0.3000 
    211 H211       -5.5670  -16.8652  -48.5469 H         1 UNK         0.0600 
    212 H212       -8.1652  -15.8900  -49.8319 H         1 UNK         0.0600 
    213 H213       -7.1430  -14.9654  -48.7363 H         1 UNK         0.0600 
    214 H214       -7.9684  -16.4001  -48.1542 H         1 UNK         0.0600 
    215 H215       -4.3299  -17.9115  -50.6243 H         1 UNK         0.3000 
    216 H216       -2.9746  -17.6440  -52.3492 H         1 UNK         0.0600 
    217 H217       -1.8887  -15.4816  -52.7587 H         1 UNK         0.0600 
    218 H218       -2.1230  -15.6651  -51.0358 H         1 UNK         0.0600 
    219 H219       -3.1926  -14.6108  -51.9536 H         1 UNK         0.0600 
    220 H220       -3.0807  -15.3754  -54.3029 H         1 UNK         0.3000 
    221 H221       -3.8531  -14.7960  -56.2540 H         1 UNK         0.0600 
    222 H222       -6.6518  -15.5595  -55.2757 H         1 UNK         0.0600 
    223 H223       -5.8696  -13.9953  -55.0568 H         1 UNK         0.0600 
    224 H224       -6.2762  -14.5598  -56.6703 H         1 UNK         0.0600 
    225 H225       -5.3294  -17.9092  -55.3718 H         1 UNK         0.3000 
    226 H226       -5.4313  -18.9684  -58.0807 H         1 UNK         0.0600 
    227 H227       -7.0157  -19.7284  -56.3233 H         1 UNK         0.0600 
    228 H228       -6.0363  -21.0856  -56.8582 H         1 UNK         0.0600 
    229 H229       -5.6806  -20.3004  -55.3248 H         1 UNK         0.0600 
    230 H230       -4.1516  -20.6896  -58.9086 H         1 UNK         0.3000 
    231 H231       -1.3323  -20.5540  -58.3563 H         1 UNK         0.0600 
    232 H232       -1.2018  -22.2885  -60.1456 H         1 UNK         0.0600 
    233 H233       -2.2251  -20.9485  -60.6372 H         1 UNK         0.0600 
    234 H234       -2.9515  -22.4708  -60.1198 H         1 UNK         0.0600 
    235 H235       -3.9225  -22.7294  -57.3688 H         1 UNK         0.3000 
    236 H236       -2.0848  -24.5922  -55.9667 H         1 UNK         0.0600 
    237 H237       -5.1397  -24.5865  -56.2744 H         1 UNK         0.0600 
    238 H238       -4.0159  -25.5779  -57.2034 H         1 UNK         0.0600 
    239 H239       -4.1864  -25.8298  -55.4731 H         1 UNK         0.0600 
    240 H240       -1.7484  -24.3969  -53.7858 H         1 UNK         0.3000 
    241 H241       -2.7104  -22.0081  -52.4487 H         1 UNK         0.0600 
    242 H242       -5.1185  -24.9282  -51.1456 H         1 UNK         0.3800 
    243 H243       -4.2482  -25.0404  -52.6495 H         1 UNK         0.3800 
    244 H244       -0.9156  -24.1444  -51.2392 H         1 UNK         0.0800 
    245 H245       -1.1111  -22.5001  -50.6999 H         1 UNK         0.0800 
    246 H246        0.8200  -20.4567  -53.4916 H         1 UNK         0.0800 
    247 H247       -0.8780  -20.5928  -53.1262 H         1 UNK         0.0800 
@<TRIPOS>BOND
     1    1    2 1    
     2    1  127 1    
     3    1  128 1    
     4    1  129 1    
     5    2    3 2    
     6    2    4 am   BACKBONE|DICT|INTERRES
     7    4    5 1    
     8    4  130 1    
     9    5    6 1    
    10    5   65 1    
    11    5  131 1    
    12    6    7 1    
    13    6  132 1    
    14    6  133 1    
    15    7    8 1    
    16    8    9 1    
    17    8  134 1    
    18    8  135 1    
    19    9   10 ar   
    20    9   14 ar   
    21   10   11 ar   
    22   10  136 1    
    23   11   12 ar   
    24   11  126 1    
    25   12   13 ar   
    26   12  137 1    
    27   13   14 ar   
    28   13   15 1    
    29   14  138 1    
    30   15   16 1    
    31   15  139 1    
    32   15  140 1    
    33   16   17 1    
    34   17   18 1    
    35   17  141 1    
    36   17  142 1    
    37   18   19 1    
    38   18   67 1    
    39   18  143 1    
    40   19   20 am   BACKBONE|DICT|INTERRES
    41   19  144 1    
    42   20   21 2    
    43   20   22 1    
    44   22   23 1    
    45   22   24 1    
    46   22  145 1    
    47   23  146 1    
    48   23  147 1    
    49   23  148 1    
    50   24   25 am   BACKBONE|DICT|INTERRES
    51   24  149 1    
    52   25   26 2    
    53   25   27 1    
    54   27   28 1    
    55   27   29 1    
    56   27  150 1    
    57   28  151 1    
    58   28  152 1    
    59   28  153 1    
    60   29   30 am   BACKBONE|DICT|INTERRES
    61   29  154 1    
    62   30   31 2    
    63   30   32 1    
    64   32   33 1    
    65   32   34 1    
    66   32  155 1    
    67   33  156 1    
    68   33  157 1    
    69   33  158 1    
    70   34   35 am   BACKBONE|DICT|INTERRES
    71   34  159 1    
    72   35   36 2    
    73   35   37 1    
    74   37   38 1    
    75   37   39 1    
    76   37  160 1    
    77   38  161 1    
    78   38  162 1    
    79   38  163 1    
    80   39   40 am   BACKBONE|DICT|INTERRES
    81   39  164 1    
    82   40   41 2    
    83   40   42 1    
    84   42   43 1    
    85   42   44 1    
    86   42  165 1    
    87   43  166 1    
    88   43  167 1    
    89   43  168 1    
    90   44   45 am   BACKBONE|DICT|INTERRES
    91   44  169 1    
    92   45   46 2    
    93   45   47 1    
    94   47   48 1    
    95   47   49 1    
    96   47  170 1    
    97   48  171 1    
    98   48  172 1    
    99   48  173 1    
   100   49   50 am   BACKBONE|DICT|INTERRES
   101   49  174 1    
   102   50   51 2    
   103   50   52 1    
   104   52   53 1    
   105   52   54 1    
   106   52  175 1    
   107   53  176 1    
   108   53  177 1    
   109   53  178 1    
   110   54   55 am   BACKBONE|DICT|INTERRES
   111   54  179 1    
   112   55   56 2    
   113   55   57 1    
   114   57   58 1    
   115   57   59 1    
   116   57  180 1    
   117   58  181 1    
   118   58  182 1    
   119   58  183 1    
   120   59   60 am   BACKBONE|DICT|INTERRES
   121   59  184 1    
   122   60   61 2    
   123   60   62 1    
   124   62   63 1    
   125   62   64 1    
   126   62  185 1    
   127   63  186 1    
   128   63  187 1    
   129   63  188 1    
   130   64   65 am   BACKBONE|DICT|INTERRES
   131   64  189 1    
   132   65   66 2    
   133   67   68 2    
   134   67   69 am   BACKBONE|DICT|INTERRES
   135   69   70 1    
   136   69  190 1    
   137   70   71 1    
   138   70   72 1    
   139   70  191 1    
   140   71  192 1    
   141   71  193 1    
   142   71  194 1    
   143   72   73 2    
   144   72   74 am   BACKBONE|DICT|INTERRES
   145   74   75 1    
   146   74  195 1    
   147   75   76 1    
   148   75   77 1    
   149   75  196 1    
   150   76  197 1    
   151   76  198 1    
   152   76  199 1    
   153   77   78 2    
   154   77   79 am   BACKBONE|DICT|INTERRES
   155   79   80 1    
   156   79  200 1    
   157   80   81 1    
   158   80   82 1    
   159   80  201 1    
   160   81  202 1    
   161   81  203 1    
   162   81  204 1    
   163   82   83 2    
   164   82   84 am   BACKBONE|DICT|INTERRES
   165   84   85 1    
   166   84  205 1    
   167   85   86 1    
   168   85   87 1    
   169   85  206 1    
   170   86  207 1    
   171   86  208 1    
   172   86  209 1    
   173   87   88 2    
   174   87   89 am   BACKBONE|DICT|INTERRES
   175   89   90 1    
   176   89  210 1    
   177   90   91 1    
   178   90   92 1    
   179   90  211 1    
   180   91  212 1    
   181   91  213 1    
   182   91  214 1    
   183   92   93 2    
   184   92   94 am   BACKBONE|DICT|INTERRES
   185   94   95 1    
   186   94  215 1    
   187   95   96 1    
   188   95   97 1    
   189   95  216 1    
   190   96  217 1    
   191   96  218 1    
   192   96  219 1    
   193   97   98 2    
   194   97   99 am   BACKBONE|DICT|INTERRES
   195   99  100 1    
   196   99  220 1    
   197  100  101 1    
   198  100  102 1    
   199  100  221 1    
   200  101  222 1    
   201  101  223 1    
   202  101  224 1    
   203  102  103 2    
   204  102  104 am   BACKBONE|DICT|INTERRES
   205  104  105 1    
   206  104  225 1    
   207  105  106 1    
   208  105  107 1    
   209  105  226 1    
   210  106  227 1    
   211  106  228 1    
   212  106  229 1    
   213  107  108 2    
   214  107  109 am   BACKBONE|DICT|INTERRES
   215  109  110 1    
   216  109  230 1    
   217  110  111 1    
   218  110  112 1    
   219  110  231 1    
   220  111  232 1    
   221  111  233 1    
   222  111  234 1    
   223  112  113 2    
   224  112  114 am   BACKBONE|DICT|INTERRES
   225  114  115 1    
   226  114  235 1    
   227  115  116 1    
   228  115  117 1    
   229  115  236 1    
   230  116  237 1    
   231  116  238 1    
   232  116  239 1    
   233  117  118 2    
   234  117  119 am   BACKBONE|DICT|INTERRES
   235  119  120 1    
   236  119  240 1    
   237  120  121 1    
   238  120  124 1    
   239  120  241 1    
   240  121  122 am   BACKBONE|DICT|INTERRES
   241  121  123 2    
   242  122  242 1    
   243  122  243 1    
   244  124  125 1    
   245  124  244 1    
   246  124  245 1    
   247  125  126 1    
   248  126  246 1    
   249  126  247 1    
@<TRIPOS>SUBSTRUCTURE
     1 UNK         1 GROUP             0       ****    0 ROOT    
