@<TRIPOS>MOLECULE
3R540
247   249    1
SMALL
USER_CHARGES


@<TRIPOS>ATOM
      1 CA          7.1864  -13.8792  -51.1787 C.3       0 UNK        -0.1800 
      2 C           7.0256  -13.9936  -49.6693 C.2       0 UNK         0.5000 
      3 O           7.9147  -13.5799  -48.9244 O.2       0 UNK        -0.5000 
      4 N           5.8994  -14.5574  -49.2177 N.am      1 UNK        -0.5000 
      5 CA          5.5412  -14.6984  -47.8045 C.3       1 UNK         0.1400 
      6 C6          4.4291  -15.7537  -47.5885 C.3       23 UNK        -0.0398 
      7 S7          4.9984  -17.4509  -47.9476 S.3       23 UNK        -0.2404 
      8 C8          4.4312  -17.7155  -49.6581 C.3       23 UNK        -0.0205 
      9 C9          2.9606  -18.0980  -49.7355 C.ar      23 UNK        -0.0193 
     10 C10         1.9900  -17.1314  -50.0140 C.ar      23 UNK        -0.1150 
     11 C11         0.6441  -17.4906  -50.1292 C.ar      23 UNK        -0.0193 
     12 C12         0.2714  -18.8276  -49.9674 C.ar      23 UNK        -0.1150 
     13 C13         1.2336  -19.8063  -49.7003 C.ar      23 UNK        -0.0193 
     14 C14         2.5755  -19.4330  -49.5780 C.ar      23 UNK        -0.1150 
     15 C15         0.8311  -21.2709  -49.6006 C.3       23 UNK        -0.0205 
     16 S16         0.2902  -21.7369  -47.9264 S.3       23 UNK        -0.2404 
     17 C17         1.8873  -21.7990  -47.0462 C.3       23 UNK        -0.0398 
     18 CA          1.8882  -22.6069  -45.7231 C.3       11 UNK         0.1400 
     19 N           1.1327  -21.9409  -44.6582 N.am      11 UNK        -0.5000 
     20 C           1.2429  -22.2405  -43.3558 C.2       10 UNK         0.5000 
     21 O           1.9302  -23.1704  -42.9299 O.2       10 UNK        -0.5000 
     22 CA          0.5187  -21.3387  -42.3421 C.3       10 UNK         0.1400 
     23 CB          1.4173  -20.1510  -41.9598 C.3       10 UNK        -0.1800 
     24 N          -0.7552  -20.8156  -42.8355 N.am      10 UNK        -0.5000 
     25 C          -1.9474  -21.0568  -42.2708 C.2       9 UNK         0.5000 
     26 O          -2.1106  -21.8406  -41.3344 O.2       9 UNK        -0.5000 
     27 CA         -3.1690  -20.2749  -42.7994 C.3       9 UNK         0.1400 
     28 CB         -3.5866  -19.1907  -41.7934 C.3       9 UNK        -0.1800 
     29 N          -2.9402  -19.6423  -44.0971 N.am      9 UNK        -0.5000 
     30 C          -2.9297  -20.3057  -45.2612 C.2       8 UNK         0.5000 
     31 O          -3.1723  -21.5061  -45.3531 O.2       8 UNK        -0.5000 
     32 CA         -2.5556  -19.5107  -46.5275 C.3       8 UNK         0.1400 
     33 CB         -3.8241  -19.0387  -47.2514 C.3       8 UNK        -0.1800 
     34 N          -1.6948  -18.3532  -46.2763 N.am      8 UNK        -0.5000 
     35 C          -0.5020  -18.3826  -45.6616 C.2       7 UNK         0.5000 
     36 O           0.0412  -19.4171  -45.2777 O.2       7 UNK        -0.5000 
     37 CA          0.1666  -17.0311  -45.3501 C.3       7 UNK         0.1400 
     38 CB          1.2711  -16.7497  -46.3749 C.3       7 UNK        -0.1800 
     39 N          -0.7764  -15.9078  -45.3118 N.am      7 UNK        -0.5000 
     40 C          -1.7952  -15.7968  -44.4411 C.2       6 UNK         0.5000 
     41 O          -2.0013  -16.6124  -43.5414 O.2       6 UNK        -0.5000 
     42 CA         -2.7846  -14.6273  -44.6232 C.3       6 UNK         0.1400 
     43 CB         -2.6490  -13.6041  -43.4858 C.3       6 UNK        -0.1800 
     44 N          -2.6603  -13.9503  -45.9161 N.am      6 UNK        -0.5000 
     45 C          -3.0446  -14.4851  -47.0851 C.2       5 UNK         0.5000 
     46 O          -3.5745  -15.5920  -47.1819 O.2       5 UNK        -0.5000 
     47 CA         -2.7453  -13.6856  -48.3692 C.3       5 UNK         0.1400 
     48 CB         -3.9896  -12.9185  -48.8387 C.3       5 UNK        -0.1800 
     49 N          -1.6152  -12.7573  -48.2620 N.am      5 UNK        -0.5000 
     50 C          -0.3548  -13.1186  -47.9861 C.2       4 UNK         0.5000 
     51 O          -0.0245  -14.2849  -47.7752 O.2       4 UNK        -0.5000 
     52 CA          0.7186  -12.0154  -47.8932 C.3       4 UNK         0.1400 
     53 CB          0.1771  -10.5772  -48.0546 C.3       4 UNK        -0.1800 
     54 N           1.4926  -12.1460  -46.6560 N.am      4 UNK        -0.5000 
     55 C           1.0151  -12.1064  -45.4010 C.2       3 UNK         0.5000 
     56 O          -0.1660  -11.8832  -45.1328 O.2       3 UNK        -0.5000 
     57 CA          2.0027  -12.3748  -44.2444 C.3       3 UNK         0.1400 
     58 CB          1.6740  -13.7032  -43.5434 C.3       3 UNK        -0.1800 
     59 N           3.4048  -12.4050  -44.6639 N.am      3 UNK        -0.5000 
     60 C           4.1377  -11.3276  -44.9746 C.2       2 UNK         0.5000 
     61 O           3.7292  -10.1706  -44.8713 O.2       2 UNK        -0.5000 
     62 CA          5.5588  -11.5860  -45.5142 C.3       2 UNK         0.1400 
     63 CB          6.5956  -11.4203  -44.3924 C.3       2 UNK        -0.1800 
     64 N           5.7448  -12.9001  -46.1435 N.am      2 UNK        -0.5000 
     65 C           5.1139  -13.3267  -47.2467 C.2       1 UNK         0.5000 
     66 O           4.2192  -12.6937  -47.8121 O.2       1 UNK        -0.5000 
     67 C           1.4911  -24.0901  -45.9117 C.2       11 UNK         0.5000 
     68 O           0.3222  -24.4554  -45.7586 O.2       11 UNK        -0.5000 
     69 N           2.4890  -24.9176  -46.2502 N.am      12 UNK        -0.5000 
     70 CA          2.3741  -26.3734  -46.3717 C.3       12 UNK         0.1400 
     71 CB          3.7827  -26.9825  -46.2855 C.3       12 UNK        -0.1800 
     72 C           1.6592  -26.8541  -47.6500 C.2       12 UNK         0.5000 
     73 O           1.3361  -28.0393  -47.7441 O.2       12 UNK        -0.5000 
     74 N           1.4186  -25.9502  -48.6100 N.am      13 UNK        -0.5000 
     75 CA          0.7815  -26.2073  -49.9059 C.3       13 UNK         0.1400 
     76 CB          1.1378  -25.0529  -50.8598 C.3       13 UNK        -0.1800 
     77 C          -0.7447  -26.4251  -49.7953 C.2       13 UNK         0.5000 
     78 O          -1.5179  -25.7341  -50.4614 O.2       13 UNK        -0.5000 
     79 N          -1.1540  -27.3587  -48.9249 N.am      14 UNK        -0.5000 
     80 CA         -2.5343  -27.7378  -48.6000 C.3       14 UNK         0.1400 
     81 CB         -3.1688  -28.5008  -49.7813 C.3       14 UNK        -0.1800 
     82 C          -3.3877  -26.5405  -48.1297 C.2       14 UNK         0.5000 
     83 O          -4.5430  -26.4081  -48.5372 O.2       14 UNK        -0.5000 
     84 N          -2.7762  -25.6626  -47.3181 N.am      15 UNK        -0.5000 
     85 CA         -3.3153  -24.3805  -46.8497 C.3       15 UNK         0.1400 
     86 CB         -4.4915  -24.6092  -45.8756 C.3       15 UNK        -0.1800 
     87 C          -3.6749  -23.4435  -48.0237 C.2       15 UNK         0.5000 
     88 O          -4.7760  -22.8943  -48.0659 O.2       15 UNK        -0.5000 
     89 N          -2.7510  -23.3404  -48.9911 N.am      16 UNK        -0.5000 
     90 CA         -2.8817  -22.6428  -50.2752 C.3       16 UNK         0.1400 
     91 CB         -2.9843  -21.1230  -50.0597 C.3       16 UNK        -0.1800 
     92 C          -4.0396  -23.2055  -51.1229 C.2       16 UNK         0.5000 
     93 O          -4.8669  -22.4439  -51.6288 O.2       16 UNK        -0.5000 
     94 N          -4.0859  -24.5429  -51.2164 N.am      17 UNK        -0.5000 
     95 CA         -5.1346  -25.3561  -51.8406 C.3       17 UNK         0.1400 
     96 CB         -5.0505  -25.2517  -53.3763 C.3       17 UNK        -0.1800 
     97 C          -6.5368  -25.0373  -51.2778 C.2       17 UNK         0.5000 
     98 O          -7.4639  -24.7566  -52.0387 O.2       17 UNK        -0.5000 
     99 N          -6.6404  -25.0617  -49.9410 N.am      18 UNK        -0.5000 
    100 CA        -7.8032  -24.6900  -49.1295 C.3       18 UNK         0.1400 
    101 CB        -8.9554  -25.6967  -49.3291 C.3       18 UNK        -0.1800 
    102 C         -8.2276  -23.2209  -49.3464 C.2       18 UNK         0.5000 
    103 O         -9.3989  -22.9416  -49.6104 O.2       18 UNK        -0.5000 
    104 N         -7.2478  -22.3141  -49.2255 N.am      19 UNK        -0.5000 
    105 CA        -7.3457  -20.8584  -49.3590 C.3       19 UNK         0.1400 
    106 CB        -8.1465  -20.2606  -48.1841 C.3       19 UNK        -0.1800 
    107 C         -7.8513  -20.3929  -50.7411 C.2       19 UNK         0.5000 
    108 O         -8.6155  -19.4296  -50.8296 O.2       19 UNK        -0.5000 
    109 N         -7.4008  -21.0727  -51.8039 N.am      20 UNK        -0.5000 
    110 CA        -7.6411  -20.6824  -53.1954 C.3       20 UNK         0.1400 
    111 CB        -7.4321  -21.9011  -54.1048 C.3       20 UNK        -0.1800 
    112 C         -6.7256  -19.5224  -53.6332 C.2       20 UNK         0.5000 
    113 O         -7.0697  -18.7899  -54.5617 O.2       20 UNK        -0.5000 
    114 N         -5.5885  -19.3754  -52.9466 N.am      21 UNK        -0.5000 
    115 CA        -4.6302  -18.2838  -53.0632 C.3       21 UNK         0.1400 
    116 CB        -3.3487  -18.8481  -53.7038 C.3       21 UNK        -0.1800 
    117 C         -4.3652  -17.7256  -51.6478 C.2       21 UNK         0.5000 
    118 O         -4.6870  -18.4036  -50.6715 O.2       21 UNK        -0.5000 
    119 N         -3.7952  -16.5255  -51.4816 N.am      22 UNK        -0.5000 
    120 CA        -3.4060  -15.5411  -52.5112 C.3       22 UNK         0.1400 
    121 C         -4.4346  -14.3822  -52.6678 C.2       22 UNK         0.5000 
    122 N         -5.5505  -14.3786  -51.9484 N.am      22 UNK        -0.7600 
    123 O         -4.2269  -13.4778  -53.4712 O.2       22 UNK        -0.5000 
    124 C124       -1.9756  -14.9901  -52.2671 C.3       23 UNK        -0.0398 
    125 S125       -0.7036  -16.2994  -52.2225 S.3       23 UNK        -0.2404 
    126 C126       -0.4057  -16.4358  -50.4344 C.3       23 UNK        -0.0205 
    127 H127        7.2864  -12.8327  -51.4669 H         1 UNK         0.0600 
    128 H128        8.0817  -14.4103  -51.5020 H         1 UNK         0.0600 
    129 H129        6.3321  -14.2984  -51.7108 H         1 UNK         0.0600 
    130 H130        5.1896  -14.8348  -49.8782 H         1 UNK         0.3000 
    131 H131        6.4285  -15.0300  -47.2601 H         1 UNK         0.0600 
    132 H132        4.1130  -15.7498  -46.5444 H         1 UNK         0.0800 
    133 H133        3.5397  -15.5188  -48.1746 H         1 UNK         0.0800 
    134 H134        4.6287  -16.8305  -50.2627 H         1 UNK         0.0800 
    135 H135        5.0311  -18.5133  -50.0985 H         1 UNK         0.0800 
    136 H136        2.2795  -16.0993  -50.1516 H         1 UNK         0.1150 
    137 H137       -0.7672  -19.1046  -50.0711 H         1 UNK         0.1150 
    138 H138        3.3262  -20.1850  -49.3799 H         1 UNK         0.1150 
    139 H139        0.0199  -21.4693  -50.3009 H         1 UNK         0.0800 
    140 H140        1.6561  -21.9120  -49.9141 H         1 UNK         0.0800 
    141 H141        2.2000  -20.7725  -46.8479 H         1 UNK         0.0800 
    142 H142        2.6404  -22.2088  -47.7208 H         1 UNK         0.0800 
    143 H143        2.9252  -22.6085  -45.3791 H         1 UNK         0.0600 
    144 H144        0.5809  -21.1357  -44.9425 H         1 UNK         0.3000 
    145 H145        0.3642  -21.9379  -41.4425 H         1 UNK         0.0600 
    146 H146        1.6138  -19.5030  -42.8151 H         1 UNK         0.0600 
    147 H147        0.9564  -19.5445  -41.1800 H         1 UNK         0.0600 
    148 H148        2.3799  -20.4939  -41.5782 H         1 UNK         0.0600 
    149 H149       -0.7043  -20.1965  -43.6373 H         1 UNK         0.3000 
    150 H150       -3.9951  -20.9827  -42.8961 H         1 UNK         0.0600 
    151 H151       -3.8284  -19.6281  -40.8239 H         1 UNK         0.0600 
    152 H152       -4.4706  -18.6523  -42.1357 H         1 UNK         0.0600 
    153 H153       -2.7904  -18.4623  -41.6347 H         1 UNK         0.0600 
    154 H154       -2.7080  -18.6563  -44.0862 H         1 UNK         0.3000 
    155 H155       -2.0135  -20.1883  -47.1852 H         1 UNK         0.0600 
    156 H156       -4.4877  -19.8772  -47.4674 H         1 UNK         0.0600 
    157 H157       -3.5800  -18.5625  -48.2009 H         1 UNK         0.0600 
    158 H158       -4.3862  -18.3213  -46.6523 H         1 UNK         0.0600 
    159 H159       -2.0715  -17.4533  -46.5418 H         1 UNK         0.3000 
    160 H160        0.6268  -17.1100  -44.3631 H         1 UNK         0.0600 
    161 H161        0.8745  -16.7392  -47.3892 H         1 UNK         0.0600 
    162 H162        2.0463  -17.5164  -46.3381 H         1 UNK         0.0600 
    163 H163        1.7467  -15.7872  -46.1950 H         1 UNK         0.0600 
    164 H164       -0.6752  -15.2166  -46.0477 H         1 UNK         0.3000 
    165 H165       -3.7890  -15.0521  -44.5640 H         1 UNK         0.0600 
    166 H166       -3.3747  -12.7975  -43.5909 H         1 UNK         0.0600 
    167 H167       -2.8249  -14.0740  -42.5173 H         1 UNK         0.0600 
    168 H168       -1.6559  -13.1600  -43.4542 H         1 UNK         0.0600 
    169 H169       -2.1833  -13.0580  -45.9170 H         1 UNK         0.3000 
    170 H170       -2.4928  -14.4201  -49.1342 H         1 UNK         0.0600 
    171 H171       -4.2706  -12.1374  -48.1313 H         1 UNK         0.0600 
    172 H172       -3.8227  -12.4512  -49.8095 H         1 UNK         0.0600 
    173 H173       -4.8447  -13.5872  -48.9465 H         1 UNK         0.0600 
    174 H174       -1.8189  -11.7775  -48.3954 H         1 UNK         0.3000 
    175 H175        1.4161  -12.2017  -48.7110 H         1 UNK         0.0600 
    176 H176       -0.2886  -10.4375  -49.0308 H         1 UNK         0.0600 
    177 H177       -0.5603  -10.3237  -47.2921 H         1 UNK         0.0600 
    178 H178        0.9859   -9.8499  -47.9823 H         1 UNK         0.0600 
    179 H179        2.4757  -12.3528  -46.7926 H         1 UNK         0.3000 
    180 H180        1.8744  -11.5687  -43.5190 H         1 UNK         0.0600 
    181 H181        2.3173  -13.8610  -42.6776 H         1 UNK         0.0600 
    182 H182        1.7987  -14.5540  -44.2118 H         1 UNK         0.0600 
    183 H183        0.6449  -13.7174  -43.1846 H         1 UNK         0.0600 
    184 H184        3.8289  -13.3146  -44.7664 H         1 UNK         0.3000 
    185 H185        5.7560  -10.8273  -46.2744 H         1 UNK         0.0600 
    186 H186        6.4693  -12.1735  -43.6137 H         1 UNK         0.0600 
    187 H187        7.6119  -11.5016  -44.7784 H         1 UNK         0.0600 
    188 H188        6.5077  -10.4412  -43.9194 H         1 UNK         0.0600 
    189 H189        6.4677  -13.4810  -45.7430 H         1 UNK         0.3000 
    190 H190        3.4191  -24.5410  -46.3656 H         1 UNK         0.3000 
    191 H191        1.7936  -26.7421  -45.5233 H         1 UNK         0.0600 
    192 H192        4.4178  -26.6456  -47.1058 H         1 UNK         0.0600 
    193 H193        3.7434  -28.0719  -46.3275 H         1 UNK         0.0600 
    194 H194        4.2721  -26.7148  -45.3487 H         1 UNK         0.0600 
    195 H195        1.6954  -24.9970  -48.4310 H         1 UNK         0.3000 
    196 H196        1.2044  -27.1242  -50.3213 H         1 UNK         0.0600 
    197 H197        0.7500  -25.2394  -51.8622 H         1 UNK         0.0600 
    198 H198        2.2173  -24.9303  -50.9493 H         1 UNK         0.0600 
    199 H199        0.7178  -24.1072  -50.5172 H         1 UNK         0.0600 
    200 H200       -0.4245  -27.8486  -48.4127 H         1 UNK         0.3000 
    201 H201       -2.4794  -28.4231  -47.7532 H         1 UNK         0.0600 
    202 H202       -2.5736  -29.3738  -50.0485 H         1 UNK         0.0600 
    203 H203       -3.2560  -27.8738  -50.6684 H         1 UNK         0.0600 
    204 H204       -4.1686  -28.8568  -49.5298 H         1 UNK         0.0600 
    205 H205       -1.8196  -25.8512  -47.0515 H         1 UNK         0.3000 
    206 H206       -2.5112  -23.8925  -46.2971 H         1 UNK         0.0600 
    207 H207       -4.1964  -25.2525  -45.0469 H         1 UNK         0.0600 
    208 H208       -4.8315  -23.6657  -45.4476 H         1 UNK         0.0600 
    209 H209       -5.3486  -25.0676  -46.3693 H         1 UNK         0.0600 
    210 H210       -1.9041  -23.8797  -48.8842 H         1 UNK         0.3000 
    211 H211       -1.9645  -22.8423  -50.8306 H         1 UNK         0.0600 
    212 H212       -3.9379  -20.8421  -49.6151 H         1 UNK         0.0600 
    213 H213       -2.8946  -20.5889  -51.0039 H         1 UNK         0.0600 
    214 H214       -2.1944  -20.7627  -49.4059 H         1 UNK         0.0600 
    215 H215       -3.3268  -25.0621  -50.7836 H         1 UNK         0.3000 
    216 H216       -4.9280  -26.3918  -51.5699 H         1 UNK         0.0600 
    217 H217       -5.7878  -25.8975  -53.8544 H         1 UNK         0.0600 
    218 H218       -4.0685  -25.5587  -53.7361 H         1 UNK         0.0600 
    219 H219       -5.2292  -24.2351  -53.7237 H         1 UNK         0.0600 
    220 H220       -5.8181  -25.3477  -49.4130 H         1 UNK         0.3000 
    221 H221       -7.4810  -24.7636  -48.0897 H         1 UNK         0.0600 
    222 H222       -9.3587  -25.6593  -50.3414 H         1 UNK         0.0600 
    223 H223       -8.6236  -26.7171  -49.1375 H         1 UNK         0.0600 
    224 H224       -9.7770  -25.4884  -48.6428 H         1 UNK         0.0600 
    225 H225       -6.3200  -22.6489  -48.9668 H         1 UNK         0.3000 
    226 H226       -6.3247  -20.4834  -49.2777 H         1 UNK         0.0600 
    227 H227       -9.1955  -20.5559  -48.2175 H         1 UNK         0.0600 
    228 H228       -7.7364  -20.5811  -47.2263 H         1 UNK         0.0600 
    229 H229       -8.1110  -19.1707  -48.2012 H         1 UNK         0.0600 
    230 H230       -6.7303  -21.8224  -51.6556 H         1 UNK         0.3000 
    231 H231       -8.6769  -20.3528  -53.2984 H         1 UNK         0.0600 
    232 H232       -7.6487  -21.6548  -55.1449 H         1 UNK         0.0600 
    233 H233       -8.0883  -22.7238  -53.8209 H         1 UNK         0.0600 
    234 H234       -6.4036  -22.2587  -54.0593 H         1 UNK         0.0600 
    235 H235       -5.4239  -19.9967  -52.1641 H         1 UNK         0.3000 
    236 H236       -5.0467  -17.4908  -53.6862 H         1 UNK         0.0600 
    237 H237       -2.9318  -19.6673  -53.1187 H         1 UNK         0.0600 
    238 H238       -3.5503  -19.2289  -54.7051 H         1 UNK         0.0600 
    239 H239       -2.5701  -18.0930  -53.7993 H         1 UNK         0.0600 
    240 H240       -3.6546  -16.2171  -50.5328 H         1 UNK         0.3000 
    241 H241       -3.3831  -16.0124  -53.4915 H         1 UNK         0.0600 
    242 H242       -5.7512  -15.1209  -51.2976 H         1 UNK         0.3800 
    243 H243       -6.2113  -13.6268  -52.0678 H         1 UNK         0.3800 
    244 H244       -1.6950  -14.3059  -53.0698 H         1 UNK         0.0800 
    245 H245       -1.9338  -14.4004  -51.3518 H         1 UNK         0.0800 
    246 H246       -0.0782  -15.4678  -50.0569 H         1 UNK         0.0800 
    247 H247       -1.3353  -16.6771  -49.9171 H         1 UNK         0.0800 
@<TRIPOS>BOND
     1    1    2 1    
     2    1  127 1    
     3    1  128 1    
     4    1  129 1    
     5    2    3 2    
     6    2    4 am   BACKBONE|DICT|INTERRES
     7    4    5 1    
     8    4  130 1    
     9    5    6 1    
    10    5   65 1    
    11    5  131 1    
    12    6    7 1    
    13    6  132 1    
    14    6  133 1    
    15    7    8 1    
    16    8    9 1    
    17    8  134 1    
    18    8  135 1    
    19    9   10 ar   
    20    9   14 ar   
    21   10   11 ar   
    22   10  136 1    
    23   11   12 ar   
    24   11  126 1    
    25   12   13 ar   
    26   12  137 1    
    27   13   14 ar   
    28   13   15 1    
    29   14  138 1    
    30   15   16 1    
    31   15  139 1    
    32   15  140 1    
    33   16   17 1    
    34   17   18 1    
    35   17  141 1    
    36   17  142 1    
    37   18   19 1    
    38   18   67 1    
    39   18  143 1    
    40   19   20 am   BACKBONE|DICT|INTERRES
    41   19  144 1    
    42   20   21 2    
    43   20   22 1    
    44   22   23 1    
    45   22   24 1    
    46   22  145 1    
    47   23  146 1    
    48   23  147 1    
    49   23  148 1    
    50   24   25 am   BACKBONE|DICT|INTERRES
    51   24  149 1    
    52   25   26 2    
    53   25   27 1    
    54   27   28 1    
    55   27   29 1    
    56   27  150 1    
    57   28  151 1    
    58   28  152 1    
    59   28  153 1    
    60   29   30 am   BACKBONE|DICT|INTERRES
    61   29  154 1    
    62   30   31 2    
    63   30   32 1    
    64   32   33 1    
    65   32   34 1    
    66   32  155 1    
    67   33  156 1    
    68   33  157 1    
    69   33  158 1    
    70   34   35 am   BACKBONE|DICT|INTERRES
    71   34  159 1    
    72   35   36 2    
    73   35   37 1    
    74   37   38 1    
    75   37   39 1    
    76   37  160 1    
    77   38  161 1    
    78   38  162 1    
    79   38  163 1    
    80   39   40 am   BACKBONE|DICT|INTERRES
    81   39  164 1    
    82   40   41 2    
    83   40   42 1    
    84   42   43 1    
    85   42   44 1    
    86   42  165 1    
    87   43  166 1    
    88   43  167 1    
    89   43  168 1    
    90   44   45 am   BACKBONE|DICT|INTERRES
    91   44  169 1    
    92   45   46 2    
    93   45   47 1    
    94   47   48 1    
    95   47   49 1    
    96   47  170 1    
    97   48  171 1    
    98   48  172 1    
    99   48  173 1    
   100   49   50 am   BACKBONE|DICT|INTERRES
   101   49  174 1    
   102   50   51 2    
   103   50   52 1    
   104   52   53 1    
   105   52   54 1    
   106   52  175 1    
   107   53  176 1    
   108   53  177 1    
   109   53  178 1    
   110   54   55 am   BACKBONE|DICT|INTERRES
   111   54  179 1    
   112   55   56 2    
   113   55   57 1    
   114   57   58 1    
   115   57   59 1    
   116   57  180 1    
   117   58  181 1    
   118   58  182 1    
   119   58  183 1    
   120   59   60 am   BACKBONE|DICT|INTERRES
   121   59  184 1    
   122   60   61 2    
   123   60   62 1    
   124   62   63 1    
   125   62   64 1    
   126   62  185 1    
   127   63  186 1    
   128   63  187 1    
   129   63  188 1    
   130   64   65 am   BACKBONE|DICT|INTERRES
   131   64  189 1    
   132   65   66 2    
   133   67   68 2    
   134   67   69 am   BACKBONE|DICT|INTERRES
   135   69   70 1    
   136   69  190 1    
   137   70   71 1    
   138   70   72 1    
   139   70  191 1    
   140   71  192 1    
   141   71  193 1    
   142   71  194 1    
   143   72   73 2    
   144   72   74 am   BACKBONE|DICT|INTERRES
   145   74   75 1    
   146   74  195 1    
   147   75   76 1    
   148   75   77 1    
   149   75  196 1    
   150   76  197 1    
   151   76  198 1    
   152   76  199 1    
   153   77   78 2    
   154   77   79 am   BACKBONE|DICT|INTERRES
   155   79   80 1    
   156   79  200 1    
   157   80   81 1    
   158   80   82 1    
   159   80  201 1    
   160   81  202 1    
   161   81  203 1    
   162   81  204 1    
   163   82   83 2    
   164   82   84 am   BACKBONE|DICT|INTERRES
   165   84   85 1    
   166   84  205 1    
   167   85   86 1    
   168   85   87 1    
   169   85  206 1    
   170   86  207 1    
   171   86  208 1    
   172   86  209 1    
   173   87   88 2    
   174   87   89 am   BACKBONE|DICT|INTERRES
   175   89   90 1    
   176   89  210 1    
   177   90   91 1    
   178   90   92 1    
   179   90  211 1    
   180   91  212 1    
   181   91  213 1    
   182   91  214 1    
   183   92   93 2    
   184   92   94 am   BACKBONE|DICT|INTERRES
   185   94   95 1    
   186   94  215 1    
   187   95   96 1    
   188   95   97 1    
   189   95  216 1    
   190   96  217 1    
   191   96  218 1    
   192   96  219 1    
   193   97   98 2    
   194   97   99 am   BACKBONE|DICT|INTERRES
   195   99  100 1    
   196   99  220 1    
   197  100  101 1    
   198  100  102 1    
   199  100  221 1    
   200  101  222 1    
   201  101  223 1    
   202  101  224 1    
   203  102  103 2    
   204  102  104 am   BACKBONE|DICT|INTERRES
   205  104  105 1    
   206  104  225 1    
   207  105  106 1    
   208  105  107 1    
   209  105  226 1    
   210  106  227 1    
   211  106  228 1    
   212  106  229 1    
   213  107  108 2    
   214  107  109 am   BACKBONE|DICT|INTERRES
   215  109  110 1    
   216  109  230 1    
   217  110  111 1    
   218  110  112 1    
   219  110  231 1    
   220  111  232 1    
   221  111  233 1    
   222  111  234 1    
   223  112  113 2    
   224  112  114 am   BACKBONE|DICT|INTERRES
   225  114  115 1    
   226  114  235 1    
   227  115  116 1    
   228  115  117 1    
   229  115  236 1    
   230  116  237 1    
   231  116  238 1    
   232  116  239 1    
   233  117  118 2    
   234  117  119 am   BACKBONE|DICT|INTERRES
   235  119  120 1    
   236  119  240 1    
   237  120  121 1    
   238  120  124 1    
   239  120  241 1    
   240  121  122 am   BACKBONE|DICT|INTERRES
   241  121  123 2    
   242  122  242 1    
   243  122  243 1    
   244  124  125 1    
   245  124  244 1    
   246  124  245 1    
   247  125  126 1    
   248  126  246 1    
   249  126  247 1    
@<TRIPOS>SUBSTRUCTURE
     1 UNK         1 GROUP             0       ****    0 ROOT    
