@<TRIPOS>MOLECULE
3R540
247   249    1
SMALL
USER_CHARGES


@<TRIPOS>ATOM
      1 CA          2.2911   -9.6536  -50.8622 C.3       0 UNK        -0.1800 
      2 C           1.9687  -10.8583  -49.9888 C.2       0 UNK         0.5000 
      3 O           1.0247  -10.8029  -49.2003 O.2       0 UNK        -0.5000 
      4 N           2.7454  -11.9412  -50.1364 N.am      1 UNK        -0.5000 
      5 CA          2.6624  -13.1913  -49.3687 C.3       1 UNK         0.1400 
      6 C6          1.2648  -13.8689  -49.4779 C.3       23 UNK        -0.0398 
      7 S7          1.2890  -15.6812  -49.2543 S.3       23 UNK        -0.2404 
      8 C8          1.7342  -16.2566  -50.9208 C.3       23 UNK        -0.0205 
      9 C9          1.4354  -17.7389  -51.0817 C.ar      23 UNK        -0.0193 
     10 C10         0.4155  -18.1602  -51.9390 C.ar      23 UNK        -0.1150 
     11 C11         0.1305  -19.5197  -52.0869 C.ar      23 UNK        -0.0193 
     12 C12         0.8599  -20.4586  -51.3536 C.ar      23 UNK        -0.1150 
     13 C13         1.8806  -20.0546  -50.4885 C.ar      23 UNK        -0.0193 
     14 C14         2.1766  -18.6909  -50.3744 C.ar      23 UNK        -0.1150 
     15 C15         2.6624  -21.1136  -49.7152 C.3       23 UNK        -0.0205 
     16 S16         3.1011  -20.6502  -48.0040 S.3       23 UNK        -0.2404 
     17 C17         1.4827  -20.2716  -47.2535 C.3       23 UNK        -0.0398 
     18 CA          0.7431  -21.5304  -46.7265 C.3       11 UNK         0.1400 
     19 N           0.1797  -21.3194  -45.3904 N.am      11 UNK        -0.5000 
     20 C          -0.4030  -22.2616  -44.6362 C.2       10 UNK         0.5000 
     21 O          -0.4674  -23.4485  -44.9524 O.2       10 UNK        -0.5000 
     22 CA         -1.0813  -21.7837  -43.3398 C.3       10 UNK         0.1400 
     23 CB         -0.0786  -21.7164  -42.1781 C.3       10 UNK        -0.1800 
     24 N          -1.7293  -20.4830  -43.5178 N.am      10 UNK        -0.5000 
     25 C          -2.8301  -20.2897  -44.2584 C.2       9 UNK         0.5000 
     26 O          -3.4507  -21.2006  -44.8053 O.2       9 UNK        -0.5000 
     27 CA         -3.2836  -18.8336  -44.4639 C.3       9 UNK         0.1400 
     28 CB         -4.1461  -18.3604  -43.2849 C.3       9 UNK        -0.1800 
     29 N          -2.1546  -17.9203  -44.6488 N.am      9 UNK        -0.5000 
     30 C          -1.3669  -17.9127  -45.7359 C.2       8 UNK         0.5000 
     31 O          -1.5294  -18.6633  -46.6967 O.2       8 UNK        -0.5000 
     32 CA         -0.1696  -16.9418  -45.7371 C.3       8 UNK         0.1400 
     33 CB         -0.6125  -15.5656  -46.2563 C.3       8 UNK        -0.1800 
     34 N           0.4523  -16.7708  -44.4244 N.am      8 UNK        -0.5000 
     35 C           0.8879  -17.7418  -43.6119 C.2       7 UNK         0.5000 
     36 O           0.9251  -18.9286  -43.9338 O.2       7 UNK        -0.5000 
     37 CA          1.2736  -17.3331  -42.1752 C.3       7 UNK         0.1400 
     38 CB          2.7955  -17.2213  -42.0180 C.3       7 UNK        -0.1800 
     39 N           0.6493  -16.0889  -41.7111 N.am      7 UNK        -0.5000 
     40 C          -0.6716  -15.8705  -41.6104 C.2       6 UNK         0.5000 
     41 O          -1.5188  -16.7041  -41.9376 O.2       6 UNK        -0.5000 
     42 CA         -1.1170  -14.4872  -41.0845 C.3       6 UNK         0.1400 
     43 CB         -2.5479  -14.4982  -40.5081 C.3       6 UNK        -0.1800 
     44 N          -0.1751  -13.8929  -40.1302 N.am      6 UNK        -0.5000 
     45 C           0.2357  -14.4091  -38.9596 C.2       5 UNK         0.5000 
     46 O          -0.2189  -15.4469  -38.4756 O.2       5 UNK        -0.5000 
     47 CA          1.3472  -13.6428  -38.2034 C.3       5 UNK         0.1400 
     48 CB          2.3126  -14.5943  -37.4654 C.3       5 UNK        -0.1800 
     49 N           2.1004  -12.6932  -39.0354 N.am      5 UNK        -0.5000 
     50 C           2.8274  -12.9707  -40.1273 C.2       4 UNK         0.5000 
     51 O           2.9807  -14.1025  -40.5914 O.2       4 UNK        -0.5000 
     52 CA          3.4324  -11.7592  -40.8599 C.3       4 UNK         0.1400 
     53 CB          4.9651  -11.8565  -40.9092 C.3       4 UNK        -0.1800 
     54 N           2.9155  -11.6436  -42.2233 N.am      4 UNK        -0.5000 
     55 C           1.6247  -11.5236  -42.5682 C.2       3 UNK         0.5000 
     56 O           0.7026  -11.4332  -41.7555 O.2       3 UNK        -0.5000 
     57 CA          1.3072  -11.5274  -44.0773 C.3       3 UNK         0.1400 
     58 CB          1.2130  -10.0921  -44.6151 C.3       3 UNK        -0.1800 
     59 N           2.2807  -12.2742  -44.8788 N.am      3 UNK        -0.5000 
     60 C           2.4827  -13.5944  -44.7966 C.2       2 UNK         0.5000 
     61 O           1.8433  -14.3264  -44.0412 O.2       2 UNK        -0.5000 
     62 CA          3.5488  -14.1813  -45.7435 C.3       2 UNK         0.1400 
     63 CB          3.8989  -15.6448  -45.4247 C.3       2 UNK        -0.1800 
     64 N           3.1152  -14.1046  -47.1364 N.am      2 UNK        -0.5000 
     65 C           3.1574  -13.0151  -47.9106 C.2       1 UNK         0.5000 
     66 O           3.5992  -11.9318  -47.5151 O.2       1 UNK        -0.5000 
     67 C          -0.3332  -22.0161  -47.7212 C.2       11 UNK         0.5000 
     68 O          -0.1188  -23.0111  -48.4123 O.2       11 UNK        -0.5000 
     69 N          -1.4919  -21.3415  -47.7289 N.am      12 UNK        -0.5000 
     70 CA         -2.6622  -21.6995  -48.5304 C.3       12 UNK         0.1400 
     71 CB         -3.7137  -20.5856  -48.4212 C.3       12 UNK        -0.1800 
     72 C          -3.2741  -23.0557  -48.1368 C.2       12 UNK         0.5000 
     73 O          -3.7158  -23.7933  -49.0149 O.2       12 UNK        -0.5000 
     74 N          -3.2786  -23.3714  -46.8338 N.am      13 UNK        -0.5000 
     75 CA         -3.7252  -24.6606  -46.3045 C.3       13 UNK         0.1400 
     76 CB         -3.8785  -24.5724  -44.7789 C.3       13 UNK        -0.1800 
     77 C          -2.7883  -25.8185  -46.6965 C.2       13 UNK         0.5000 
     78 O          -3.2731  -26.9110  -46.9911 O.2       13 UNK        -0.5000 
     79 N          -1.4724  -25.5609  -46.7090 N.am      14 UNK        -0.5000 
     80 CA         -0.4486  -26.4965  -47.1744 C.3       14 UNK         0.1400 
     81 CB          0.9430  -25.9951  -46.7580 C.3       14 UNK        -0.1800 
     82 C          -0.5301  -26.7205  -48.6949 C.2       14 UNK         0.5000 
     83 O          -0.5658  -27.8668  -49.1443 O.2       14 UNK        -0.5000 
     84 N          -0.6205  -25.6253  -49.4598 N.am      15 UNK        -0.5000 
     85 CA         -0.8183  -25.6086  -50.9100 C.3       15 UNK         0.1400 
     86 CB         -0.2288  -24.3011  -51.4702 C.3       15 UNK        -0.1800 
     87 C          -2.3071  -25.7836  -51.2786 C.2       15 UNK         0.5000 
     88 O          -2.8466  -24.9892  -52.0490 O.2       15 UNK        -0.5000 
     89 N          -2.9477  -26.8197  -50.7173 N.am      16 UNK        -0.5000 
     90 CA         -4.3942  -27.0677  -50.7321 C.3       16 UNK         0.1400 
     91 CB         -4.6789  -28.3987  -50.0199 C.3       16 UNK        -0.1800 
     92 C          -5.0519  -27.0653  -52.1256 C.2       16 UNK         0.5000 
     93 O          -6.1908  -26.6176  -52.2593 O.2       16 UNK        -0.5000 
     94 N          -4.3172  -27.5388  -53.1402 N.am      17 UNK        -0.5000 
     95 CA         -4.7473  -27.5655  -54.5394 C.3       17 UNK         0.1400 
     96 CB         -3.8115  -28.4980  -55.3241 C.3       17 UNK        -0.1800 
     97 C          -4.7975  -26.1733  -55.2032 C.2       17 UNK         0.5000 
     98 O          -5.4900  -26.0161  -56.2095 O.2       17 UNK        -0.5000 
     99 N          -4.0650  -25.1995  -54.6473 N.am      18 UNK        -0.5000 
    100 CA        -3.9435  -23.8341  -55.1586 C.3       18 UNK         0.1400 
    101 CB        -2.4479  -23.5026  -55.2992 C.3       18 UNK        -0.1800 
    102 C         -4.6307  -22.8009  -54.2480 C.2       18 UNK         0.5000 
    103 O         -4.6074  -21.6188  -54.5856 O.2       18 UNK        -0.5000 
    104 N         -5.2167  -23.2448  -53.1243 N.am      19 UNK        -0.5000 
    105 CA        -5.7019  -22.4379  -51.9964 C.3       19 UNK         0.1400 
    106 CB        -6.4582  -23.3507  -51.0208 C.3       19 UNK        -0.1800 
    107 C         -6.5747  -21.2206  -52.3582 C.2       19 UNK         0.5000 
    108 O         -6.4526  -20.1756  -51.7190 O.2       19 UNK        -0.5000 
    109 N         -7.4196  -21.3676  -53.3872 N.am      20 UNK        -0.5000 
    110 CA        -8.2941  -20.3139  -53.9052 C.3       20 UNK         0.1400 
    111 CB        -9.3154  -20.9434  -54.8648 C.3       20 UNK        -0.1800 
    112 C         -7.5395  -19.1634  -54.6029 C.2       20 UNK         0.5000 
    113 O         -8.0435  -18.0398  -54.6222 O.2       20 UNK        -0.5000 
    114 N         -6.3550  -19.4513  -55.1587 N.am      21 UNK        -0.5000 
    115 CA        -5.4960  -18.4806  -55.8383 C.3       21 UNK         0.1400 
    116 CB        -4.7123  -19.1970  -56.9502 C.3       21 UNK        -0.1800 
    117 C         -4.5313  -17.7691  -54.8714 C.2       21 UNK         0.5000 
    118 O         -3.9720  -16.7351  -55.2393 O.2       21 UNK        -0.5000 
    119 N         -4.3455  -18.3212  -53.6647 N.am      22 UNK        -0.5000 
    120 CA        -3.4613  -17.7775  -52.6204 C.3       22 UNK         0.1400 
    121 C         -3.9850  -16.4830  -51.9304 C.2       22 UNK         0.5000 
    122 N         -5.2448  -16.0985  -52.0987 N.am      22 UNK        -0.7600 
    123 O         -3.2299  -15.8102  -51.2350 O.2       22 UNK        -0.5000 
    124 C124       -3.0875  -18.8388  -51.5524 C.3       23 UNK        -0.0398 
    125 S125       -2.4893  -20.4333  -52.2121 S.3       23 UNK        -0.2404 
    126 C126       -0.9456  -19.9800  -53.0571 C.3       23 UNK        -0.0205 
    127 H127        3.1399   -9.8436  -51.5196 H         1 UNK         0.0600 
    128 H128        2.5305   -8.7923  -50.2385 H         1 UNK         0.0600 
    129 H129        1.4316   -9.3987  -51.4821 H         1 UNK         0.0600 
    130 H130        3.5169  -11.8946  -50.7872 H         1 UNK         0.3000 
    131 H131        3.3894  -13.8495  -49.8466 H         1 UNK         0.0600 
    132 H132        0.8230  -13.6637  -50.4539 H         1 UNK         0.0800 
    133 H133        0.5696  -13.4416  -48.7530 H         1 UNK         0.0800 
    134 H134        2.7948  -16.0751  -51.0993 H         1 UNK         0.0800 
    135 H135        1.1882  -15.6772  -51.6669 H         1 UNK         0.0800 
    136 H136       -0.1527  -17.4295  -52.4967 H         1 UNK         0.1150 
    137 H137        0.6331  -21.5090  -51.4644 H         1 UNK         0.1150 
    138 H138        2.9707  -18.3631  -49.7188 H         1 UNK         0.1150 
    139 H139        2.1046  -22.0507  -49.6838 H         1 UNK         0.0800 
    140 H140        3.5820  -21.3261  -50.2613 H         1 UNK         0.0800 
    141 H141        0.8720  -19.6798  -47.9382 H         1 UNK         0.0800 
    142 H142        1.7041  -19.5954  -46.4275 H         1 UNK         0.0800 
    143 H143        1.4647  -22.3429  -46.6164 H         1 UNK         0.0600 
    144 H144        0.2463  -20.3807  -45.0083 H         1 UNK         0.3000 
    145 H145       -1.8500  -22.5128  -43.0760 H         1 UNK         0.0600 
    146 H146       -0.5659  -21.4045  -41.2542 H         1 UNK         0.0600 
    147 H147        0.7360  -21.0211  -42.3791 H         1 UNK         0.0600 
    148 H148        0.3672  -22.6950  -41.9958 H         1 UNK         0.0600 
    149 H149       -1.2469  -19.6775  -43.1457 H         1 UNK         0.3000 
    150 H150       -3.8975  -18.8000  -45.3666 H         1 UNK         0.0600 
    151 H151       -5.0288  -18.9909  -43.1714 H         1 UNK         0.0600 
    152 H152       -4.4929  -17.3378  -43.4342 H         1 UNK         0.0600 
    153 H153       -3.5972  -18.3938  -42.3431 H         1 UNK         0.0600 
    154 H154       -1.9275  -17.3145  -43.8669 H         1 UNK         0.3000 
    155 H155        0.5865  -17.3418  -46.4148 H         1 UNK         0.0600 
    156 H156       -1.0967  -15.6515  -47.2301 H         1 UNK         0.0600 
    157 H157        0.2377  -14.8954  -46.3771 H         1 UNK         0.0600 
    158 H158       -1.3207  -15.0883  -45.5779 H         1 UNK         0.0600 
    159 H159        0.5795  -15.8155  -44.1046 H         1 UNK         0.3000 
    160 H160        0.9264  -18.1345  -41.5202 H         1 UNK         0.0600 
    161 H161        3.1832  -16.3422  -42.5305 H         1 UNK         0.0600 
    162 H162        3.3039  -18.0975  -42.4227 H         1 UNK         0.0600 
    163 H163        3.0741  -17.1377  -40.9673 H         1 UNK         0.0600 
    164 H164        1.2855  -15.3443  -41.4499 H         1 UNK         0.3000 
    165 H165       -1.1184  -13.8273  -41.9531 H         1 UNK         0.0600 
    166 H166       -2.8404  -13.5076  -40.1601 H         1 UNK         0.0600 
    167 H167       -3.2726  -14.8015  -41.2648 H         1 UNK         0.0600 
    168 H168       -2.6422  -15.1904  -39.6710 H         1 UNK         0.0600 
    169 H169        0.2581  -13.0304  -40.4427 H         1 UNK         0.3000 
    170 H170        0.8351  -13.0438  -37.4492 H         1 UNK         0.0600 
    171 H171        2.8063  -15.2825  -38.1523 H         1 UNK         0.0600 
    172 H172        3.0851  -14.0386  -36.9339 H         1 UNK         0.0600 
    173 H173        1.7830  -15.1961  -36.7261 H         1 UNK         0.0600 
    174 H174        2.0065  -11.7238  -38.7646 H         1 UNK         0.3000 
    175 H175        3.1653  -10.8457  -40.3246 H         1 UNK         0.0600 
    176 H176        5.2953  -12.7321  -41.4699 H         1 UNK         0.0600 
    177 H177        5.4026  -10.9739  -41.3760 H         1 UNK         0.0600 
    178 H178        5.3830  -11.9335  -39.9046 H         1 UNK         0.0600 
    179 H179        3.5906  -11.7388  -42.9665 H         1 UNK         0.3000 
    180 H180        0.3333  -12.0048  -44.2045 H         1 UNK         0.0600 
    181 H181        0.9128  -10.0831  -45.6634 H         1 UNK         0.0600 
    182 H182        2.1667   -9.5691  -44.5346 H         1 UNK         0.0600 
    183 H183        0.4726   -9.5143  -44.0602 H         1 UNK         0.0600 
    184 H184        2.8008  -11.7567  -45.5789 H         1 UNK         0.3000 
    185 H185        4.4594  -13.5912  -45.6208 H         1 UNK         0.0600 
    186 H186        3.0305  -16.2992  -45.5008 H         1 UNK         0.0600 
    187 H187        4.6603  -16.0240  -46.1064 H         1 UNK         0.0600 
    188 H188        4.3013  -15.7350  -44.4164 H         1 UNK         0.0600 
    189 H189        2.7140  -14.9479  -47.5254 H         1 UNK         0.3000 
    190 H190       -1.5699  -20.4948  -47.1713 H         1 UNK         0.3000 
    191 H191       -2.3393  -21.7711  -49.5704 H         1 UNK         0.0600 
    192 H192       -4.1076  -20.5013  -47.4081 H         1 UNK         0.0600 
    193 H193       -4.5555  -20.7780  -49.0878 H         1 UNK         0.0600 
    194 H194       -3.2926  -19.6181  -48.6927 H         1 UNK         0.0600 
    195 H195       -2.9727  -22.6786  -46.1596 H         1 UNK         0.3000 
    196 H196       -4.7087  -24.8732  -46.7287 H         1 UNK         0.0600 
    197 H197       -4.5785  -23.7857  -44.4970 H         1 UNK         0.0600 
    198 H198       -2.9275  -24.3672  -44.2884 H         1 UNK         0.0600 
    199 H199       -4.2607  -25.5092  -44.3718 H         1 UNK         0.0600 
    200 H200       -1.1494  -24.6552  -46.3834 H         1 UNK         0.3000 
    201 H201       -0.6199  -27.4575  -46.6848 H         1 UNK         0.0600 
    202 H202        1.0176  -25.8993  -45.6746 H         1 UNK         0.0600 
    203 H203        1.1730  -25.0227  -47.1934 H         1 UNK         0.0600 
    204 H204        1.7199  -26.6904  -47.0781 H         1 UNK         0.0600 
    205 H205       -0.5822  -24.7133  -49.0089 H         1 UNK         0.3000 
    206 H206       -0.2703  -26.4408  -51.3559 H         1 UNK         0.0600 
    207 H207        0.8157  -24.1814  -51.1824 H         1 UNK         0.0600 
    208 H208       -0.2706  -24.2858  -52.5596 H         1 UNK         0.0600 
    209 H209       -0.7781  -23.4309  -51.1077 H         1 UNK         0.0600 
    210 H210       -2.4006  -27.4180  -50.1099 H         1 UNK         0.3000 
    211 H211       -4.8562  -26.2679  -50.1511 H         1 UNK         0.0600 
    212 H212       -4.2035  -29.2371  -50.5304 H         1 UNK         0.0600 
    213 H213       -5.7501  -28.6012  -49.9809 H         1 UNK         0.0600 
    214 H214       -4.3164  -28.3843  -48.9924 H         1 UNK         0.0600 
    215 H215       -3.3868  -27.8764  -52.9413 H         1 UNK         0.3000 
    216 H216       -5.7558  -27.9828  -54.5790 H         1 UNK         0.0600 
    217 H217       -4.1183  -28.5723  -56.3683 H         1 UNK         0.0600 
    218 H218       -3.8225  -29.5071  -54.9118 H         1 UNK         0.0600 
    219 H219       -2.7816  -28.1391  -55.3095 H         1 UNK         0.0600 
    220 H220       -3.5577  -25.3860  -53.7860 H         1 UNK         0.3000 
    221 H221       -4.4046  -23.7481  -56.1442 H         1 UNK         0.0600 
    222 H222       -1.9422  -23.5190  -54.3329 H         1 UNK         0.0600 
    223 H223       -1.9452  -24.2139  -55.9543 H         1 UNK         0.0600 
    224 H224       -2.3032  -22.5093  -55.7263 H         1 UNK         0.0600 
    225 H225       -5.1719  -24.2392  -52.9540 H         1 UNK         0.3000 
    226 H226       -4.8191  -22.0610  -51.4784 H         1 UNK         0.0600 
    227 H227       -5.8178  -24.1543  -50.6604 H         1 UNK         0.0600 
    228 H228       -6.7996  -22.7950  -50.1465 H         1 UNK         0.0600 
    229 H229       -7.3322  -23.8051  -51.4888 H         1 UNK         0.0600 
    230 H230       -7.4390  -22.2555  -53.8670 H         1 UNK         0.3000 
    231 H231       -8.8392  -19.8836  -53.0625 H         1 UNK         0.0600 
    232 H232      -10.0049  -20.1911  -55.2504 H         1 UNK         0.0600 
    233 H233       -9.9140  -21.7031  -54.3618 H         1 UNK         0.0600 
    234 H234       -8.8275  -21.4110  -55.7209 H         1 UNK         0.0600 
    235 H235       -5.9589  -20.3800  -55.0356 H         1 UNK         0.3000 
    236 H236       -6.1165  -17.7143  -56.3078 H         1 UNK         0.0600 
    237 H237       -4.0233  -19.9395  -56.5467 H         1 UNK         0.0600 
    238 H238       -5.3837  -19.7033  -57.6439 H         1 UNK         0.0600 
    239 H239       -4.1219  -18.4864  -57.5298 H         1 UNK         0.0600 
    240 H240       -4.8249  -19.1827  -53.4427 H         1 UNK         0.3000 
    241 H241       -2.5371  -17.4788  -53.1163 H         1 UNK         0.0600 
    242 H242       -5.5709  -15.2563  -51.6516 H         1 UNK         0.3800 
    243 H243       -5.8750  -16.6434  -52.6657 H         1 UNK         0.3800 
    244 H244       -2.3329  -18.4479  -50.8674 H         1 UNK         0.0800 
    245 H245       -3.9640  -19.0583  -50.9415 H         1 UNK         0.0800 
    246 H246       -1.1446  -19.2197  -53.8129 H         1 UNK         0.0800 
    247 H247       -0.5855  -20.8533  -53.6028 H         1 UNK         0.0800 
@<TRIPOS>BOND
     1    1    2 1    
     2    1  127 1    
     3    1  128 1    
     4    1  129 1    
     5    2    3 2    
     6    2    4 am   BACKBONE|DICT|INTERRES
     7    4    5 1    
     8    4  130 1    
     9    5    6 1    
    10    5   65 1    
    11    5  131 1    
    12    6    7 1    
    13    6  132 1    
    14    6  133 1    
    15    7    8 1    
    16    8    9 1    
    17    8  134 1    
    18    8  135 1    
    19    9   10 ar   
    20    9   14 ar   
    21   10   11 ar   
    22   10  136 1    
    23   11   12 ar   
    24   11  126 1    
    25   12   13 ar   
    26   12  137 1    
    27   13   14 ar   
    28   13   15 1    
    29   14  138 1    
    30   15   16 1    
    31   15  139 1    
    32   15  140 1    
    33   16   17 1    
    34   17   18 1    
    35   17  141 1    
    36   17  142 1    
    37   18   19 1    
    38   18   67 1    
    39   18  143 1    
    40   19   20 am   BACKBONE|DICT|INTERRES
    41   19  144 1    
    42   20   21 2    
    43   20   22 1    
    44   22   23 1    
    45   22   24 1    
    46   22  145 1    
    47   23  146 1    
    48   23  147 1    
    49   23  148 1    
    50   24   25 am   BACKBONE|DICT|INTERRES
    51   24  149 1    
    52   25   26 2    
    53   25   27 1    
    54   27   28 1    
    55   27   29 1    
    56   27  150 1    
    57   28  151 1    
    58   28  152 1    
    59   28  153 1    
    60   29   30 am   BACKBONE|DICT|INTERRES
    61   29  154 1    
    62   30   31 2    
    63   30   32 1    
    64   32   33 1    
    65   32   34 1    
    66   32  155 1    
    67   33  156 1    
    68   33  157 1    
    69   33  158 1    
    70   34   35 am   BACKBONE|DICT|INTERRES
    71   34  159 1    
    72   35   36 2    
    73   35   37 1    
    74   37   38 1    
    75   37   39 1    
    76   37  160 1    
    77   38  161 1    
    78   38  162 1    
    79   38  163 1    
    80   39   40 am   BACKBONE|DICT|INTERRES
    81   39  164 1    
    82   40   41 2    
    83   40   42 1    
    84   42   43 1    
    85   42   44 1    
    86   42  165 1    
    87   43  166 1    
    88   43  167 1    
    89   43  168 1    
    90   44   45 am   BACKBONE|DICT|INTERRES
    91   44  169 1    
    92   45   46 2    
    93   45   47 1    
    94   47   48 1    
    95   47   49 1    
    96   47  170 1    
    97   48  171 1    
    98   48  172 1    
    99   48  173 1    
   100   49   50 am   BACKBONE|DICT|INTERRES
   101   49  174 1    
   102   50   51 2    
   103   50   52 1    
   104   52   53 1    
   105   52   54 1    
   106   52  175 1    
   107   53  176 1    
   108   53  177 1    
   109   53  178 1    
   110   54   55 am   BACKBONE|DICT|INTERRES
   111   54  179 1    
   112   55   56 2    
   113   55   57 1    
   114   57   58 1    
   115   57   59 1    
   116   57  180 1    
   117   58  181 1    
   118   58  182 1    
   119   58  183 1    
   120   59   60 am   BACKBONE|DICT|INTERRES
   121   59  184 1    
   122   60   61 2    
   123   60   62 1    
   124   62   63 1    
   125   62   64 1    
   126   62  185 1    
   127   63  186 1    
   128   63  187 1    
   129   63  188 1    
   130   64   65 am   BACKBONE|DICT|INTERRES
   131   64  189 1    
   132   65   66 2    
   133   67   68 2    
   134   67   69 am   BACKBONE|DICT|INTERRES
   135   69   70 1    
   136   69  190 1    
   137   70   71 1    
   138   70   72 1    
   139   70  191 1    
   140   71  192 1    
   141   71  193 1    
   142   71  194 1    
   143   72   73 2    
   144   72   74 am   BACKBONE|DICT|INTERRES
   145   74   75 1    
   146   74  195 1    
   147   75   76 1    
   148   75   77 1    
   149   75  196 1    
   150   76  197 1    
   151   76  198 1    
   152   76  199 1    
   153   77   78 2    
   154   77   79 am   BACKBONE|DICT|INTERRES
   155   79   80 1    
   156   79  200 1    
   157   80   81 1    
   158   80   82 1    
   159   80  201 1    
   160   81  202 1    
   161   81  203 1    
   162   81  204 1    
   163   82   83 2    
   164   82   84 am   BACKBONE|DICT|INTERRES
   165   84   85 1    
   166   84  205 1    
   167   85   86 1    
   168   85   87 1    
   169   85  206 1    
   170   86  207 1    
   171   86  208 1    
   172   86  209 1    
   173   87   88 2    
   174   87   89 am   BACKBONE|DICT|INTERRES
   175   89   90 1    
   176   89  210 1    
   177   90   91 1    
   178   90   92 1    
   179   90  211 1    
   180   91  212 1    
   181   91  213 1    
   182   91  214 1    
   183   92   93 2    
   184   92   94 am   BACKBONE|DICT|INTERRES
   185   94   95 1    
   186   94  215 1    
   187   95   96 1    
   188   95   97 1    
   189   95  216 1    
   190   96  217 1    
   191   96  218 1    
   192   96  219 1    
   193   97   98 2    
   194   97   99 am   BACKBONE|DICT|INTERRES
   195   99  100 1    
   196   99  220 1    
   197  100  101 1    
   198  100  102 1    
   199  100  221 1    
   200  101  222 1    
   201  101  223 1    
   202  101  224 1    
   203  102  103 2    
   204  102  104 am   BACKBONE|DICT|INTERRES
   205  104  105 1    
   206  104  225 1    
   207  105  106 1    
   208  105  107 1    
   209  105  226 1    
   210  106  227 1    
   211  106  228 1    
   212  106  229 1    
   213  107  108 2    
   214  107  109 am   BACKBONE|DICT|INTERRES
   215  109  110 1    
   216  109  230 1    
   217  110  111 1    
   218  110  112 1    
   219  110  231 1    
   220  111  232 1    
   221  111  233 1    
   222  111  234 1    
   223  112  113 2    
   224  112  114 am   BACKBONE|DICT|INTERRES
   225  114  115 1    
   226  114  235 1    
   227  115  116 1    
   228  115  117 1    
   229  115  236 1    
   230  116  237 1    
   231  116  238 1    
   232  116  239 1    
   233  117  118 2    
   234  117  119 am   BACKBONE|DICT|INTERRES
   235  119  120 1    
   236  119  240 1    
   237  120  121 1    
   238  120  124 1    
   239  120  241 1    
   240  121  122 am   BACKBONE|DICT|INTERRES
   241  121  123 2    
   242  122  242 1    
   243  122  243 1    
   244  124  125 1    
   245  124  244 1    
   246  124  245 1    
   247  125  126 1    
   248  126  246 1    
   249  126  247 1    
@<TRIPOS>SUBSTRUCTURE
     1 UNK         1 GROUP             0       ****    0 ROOT    
