@<TRIPOS>MOLECULE
3R540
247   249    1
SMALL
USER_CHARGES


@<TRIPOS>ATOM
      1 CA          8.6916  -10.4291  -45.7279 C.3       0 UNK        -0.1800 
      2 C           7.3233  -11.0964  -45.7399 C.2       0 UNK         0.5000 
      3 O           6.4690  -10.7563  -44.9210 O.2       0 UNK        -0.5000 
      4 N           7.1162  -12.0488  -46.6576 N.am      1 UNK        -0.5000 
      5 CA          5.8457  -12.7480  -46.8648 C.3       1 UNK         0.1400 
      6 C6          6.0504  -14.0344  -47.7028 C.3       23 UNK        -0.0398 
      7 S7          4.6020  -15.1533  -47.7276 S.3       23 UNK        -0.2404 
      8 C8          4.0602  -14.9343  -49.4506 C.3       23 UNK        -0.0205 
      9 C9          2.9929  -15.9373  -49.8615 C.ar      23 UNK        -0.0193 
     10 C10         1.6726  -15.5261  -50.0670 C.ar      23 UNK        -0.1150 
     11 C11         0.7104  -16.4269  -50.5364 C.ar      23 UNK        -0.0193 
     12 C12         1.0798  -17.7525  -50.7912 C.ar      23 UNK        -0.1150 
     13 C13         2.3937  -18.1808  -50.5723 C.ar      23 UNK        -0.0193 
     14 C14         3.3433  -17.2679  -50.1056 C.ar      23 UNK        -0.1150 
     15 C15         2.8071  -19.6129  -50.8861 C.3       23 UNK        -0.0205 
     16 S16         2.6898  -20.7052  -49.4337 S.3       23 UNK        -0.2404 
     17 C17         0.8856  -20.8961  -49.2991 C.3       23 UNK        -0.0398 
     18 CA          0.4548  -22.1145  -48.4456 C.3       11 UNK         0.1400 
     19 N           0.8101  -21.9971  -47.0234 N.am      11 UNK        -0.5000 
     20 C           0.5872  -22.9474  -46.0994 C.2       10 UNK         0.5000 
     21 O           0.1346  -24.0618  -46.3608 O.2       10 UNK        -0.5000 
     22 CA          0.8499  -22.5820  -44.6261 C.3       10 UNK         0.1400 
     23 CB          2.3372  -22.7172  -44.2679 C.3       10 UNK        -0.1800 
     24 N           0.3656  -21.2431  -44.2897 N.am      10 UNK        -0.5000 
     25 C          -0.9290  -20.8923  -44.2808 C.2       9 UNK         0.5000 
     26 O          -1.8496  -21.6858  -44.4750 O.2       9 UNK        -0.5000 
     27 CA         -1.2524  -19.4001  -44.0741 C.3       9 UNK         0.1400 
     28 CB         -1.2937  -19.0451  -42.5810 C.3       9 UNK        -0.1800 
     29 N          -0.3094  -18.5223  -44.7668 N.am      9 UNK        -0.5000 
     30 C          -0.1510  -18.4840  -46.0972 C.2       8 UNK         0.5000 
     31 O          -0.8426  -19.1312  -46.8823 O.2       8 UNK        -0.5000 
     32 CA          1.0108  -17.6315  -46.6342 C.3       8 UNK         0.1400 
     33 CB          0.5972  -16.1662  -46.7638 C.3       8 UNK        -0.1800 
     34 N           2.2035  -17.7183  -45.7943 N.am      8 UNK        -0.5000 
     35 C           2.9461  -18.8227  -45.6516 C.2       7 UNK         0.5000 
     36 O           2.7112  -19.8808  -46.2306 O.2       7 UNK        -0.5000 
     37 CA          4.1054  -18.7488  -44.6418 C.3       7 UNK         0.1400 
     38 CB          5.3259  -18.0451  -45.2530 C.3       7 UNK        -0.1800 
     39 N           3.7182  -18.0670  -43.4061 N.am      7 UNK        -0.5000 
     40 C           2.8144  -18.5368  -42.5343 C.2       6 UNK         0.5000 
     41 O           2.2633  -19.6312  -42.6469 O.2       6 UNK        -0.5000 
     42 CA          2.4286  -17.6065  -41.3675 C.3       6 UNK         0.1400 
     43 CB          3.3670  -17.8235  -40.1713 C.3       6 UNK        -0.1800 
     44 N           2.4296  -16.1867  -41.7356 N.am      6 UNK        -0.5000 
     45 C           1.6199  -15.6400  -42.6527 C.2       5 UNK         0.5000 
     46 O           0.7783  -16.2828  -43.2831 O.2       5 UNK        -0.5000 
     47 CA          1.8483  -14.1474  -42.9540 C.3       5 UNK         0.1400 
     48 CB          3.0893  -13.9754  -43.8476 C.3       5 UNK        -0.1800 
     49 N           0.6960  -13.5155  -43.6035 N.am      5 UNK        -0.5000 
     50 C          -0.4579  -13.2228  -42.9843 C.2       4 UNK         0.5000 
     51 O          -0.6616  -13.4716  -41.7944 O.2       4 UNK        -0.5000 
     52 CA         -1.5613  -12.4953  -43.7852 C.3       4 UNK         0.1400 
     53 CB         -1.7916  -11.0846  -43.2172 C.3       4 UNK        -0.1800 
     54 N          -1.2662  -12.3666  -45.2129 N.am      4 UNK        -0.5000 
     55 C          -1.6427  -13.2343  -46.1611 C.2       3 UNK         0.5000 
     56 O          -2.3330  -14.2284  -45.9364 O.2       3 UNK        -0.5000 
     57 CA         -1.1713  -12.9528  -47.6088 C.3       3 UNK         0.1400 
     58 CB         -2.3254  -12.3829  -48.4474 C.3       3 UNK        -0.1800 
     59 N          -0.0022  -12.0698  -47.7498 N.am      3 UNK        -0.5000 
     60 C           1.1923  -12.2828  -47.1854 C.2       2 UNK         0.5000 
     61 O           1.4019  -13.1860  -46.3743 O.2       2 UNK        -0.5000 
     62 CA          2.3387  -11.3282  -47.5470 C.3       2 UNK         0.1400 
     63 CB          2.1589   -9.9528  -46.8824 C.3       2 UNK        -0.1800 
     64 N           3.5532  -11.9608  -47.0551 N.am      2 UNK        -0.5000 
     65 C           4.7991  -11.8043  -47.4981 C.2       1 UNK         0.5000 
     66 O           5.1279  -11.0005  -48.3743 O.2       1 UNK        -0.5000 
     67 C          -1.0543  -22.3625  -48.6338 C.2       11 UNK         0.5000 
     68 O          -1.4248  -23.2677  -49.3805 O.2       11 UNK        -0.5000 
     69 N          -1.8852  -21.5744  -47.9345 N.am      12 UNK        -0.5000 
     70 CA         -3.3406  -21.7014  -47.9070 C.3       12 UNK         0.1400 
     71 CB         -3.9514  -20.5691  -47.0672 C.3       12 UNK        -0.1800 
     72 C          -3.7921  -23.0833  -47.4067 C.2       12 UNK         0.5000 
     73 O          -4.5067  -23.7830  -48.1247 O.2       12 UNK        -0.5000 
     74 N          -3.3234  -23.4724  -46.2129 N.am      13 UNK        -0.5000 
     75 CA         -3.6404  -24.7434  -45.5568 C.3       13 UNK         0.1400 
     76 CB         -2.9766  -24.7763  -44.1723 C.3       13 UNK        -0.1800 
     77 C          -3.2460  -25.9911  -46.3701 C.2       13 UNK         0.5000 
     78 O          -3.9477  -27.0011  -46.3033 O.2       13 UNK        -0.5000 
     79 N          -2.1537  -25.8949  -47.1401 N.am      14 UNK        -0.5000 
     80 CA         -1.6487  -26.9564  -48.0112 C.3       14 UNK         0.1400 
     81 CB         -0.2328  -26.5904  -48.4832 C.3       14 UNK        -0.1800 
     82 C          -2.5530  -27.2781  -49.2191 C.2       14 UNK         0.5000 
     83 O          -2.4064  -28.3598  -49.7910 O.2       14 UNK        -0.5000 
     84 N          -3.4607  -26.3656  -49.5942 N.am      15 UNK        -0.5000 
     85 CA         -4.3596  -26.5252  -50.7367 C.3       15 UNK         0.1400 
     86 CB         -3.6469  -26.1159  -52.0382 C.3       15 UNK        -0.1800 
     87 C          -5.7136  -25.8395  -50.4817 C.2       15 UNK         0.5000 
     88 O          -6.1952  -25.0528  -51.3035 O.2       15 UNK        -0.5000 
     89 N          -6.3042  -26.1857  -49.3271 N.am      16 UNK        -0.5000 
     90 CA         -7.6968  -25.9610  -48.9113 C.3       16 UNK         0.1400 
     91 CB         -8.6386  -26.7995  -49.8011 C.3       16 UNK        -0.1800 
     92 C          -8.1581  -24.4894  -48.8314 C.2       16 UNK         0.5000 
     93 O          -9.3638  -24.2391  -48.7863 O.2       16 UNK        -0.5000 
     94 N          -7.2070  -23.5458  -48.8237 N.am      17 UNK        -0.5000 
     95 CA         -7.3884  -22.0916  -48.8722 C.3       17 UNK         0.1400 
     96 CB         -7.9412  -21.5703  -47.5307 C.3       17 UNK        -0.1800 
     97 C          -8.2063  -21.6170  -50.0956 C.2       17 UNK         0.5000 
     98 O          -8.9464  -20.6353  -50.0036 O.2       17 UNK        -0.5000 
     99 N          -8.0732  -22.3407  -51.2149 N.am      18 UNK        -0.5000 
    100 CA        -8.7953  -22.0924  -52.4585 C.3       18 UNK         0.1400 
    101 CB       -10.0832  -22.9355  -52.4987 C.3       18 UNK        -0.1800 
    102 C         -7.8657  -22.3780  -53.6404 C.2       18 UNK         0.5000 
    103 O         -7.4248  -21.4411  -54.3080 O.2       18 UNK        -0.5000 
    104 N         -7.5238  -23.6603  -53.8365 N.am      19 UNK        -0.5000 
    105 CA        -6.5942  -24.1360  -54.8687 C.3       19 UNK         0.1400 
    106 CB        -6.6336  -25.6713  -54.9075 C.3       19 UNK        -0.1800 
    107 C         -5.1528  -23.6180  -54.6815 C.2       19 UNK         0.5000 
    108 O         -4.3956  -23.5485  -55.6498 O.2       19 UNK        -0.5000 
    109 N         -4.8259  -23.2237  -53.4443 N.am      20 UNK        -0.5000 
    110 CA        -3.6076  -22.5266  -53.0403 C.3       20 UNK         0.1400 
    111 CB        -3.6809  -22.2947  -51.5236 C.3       20 UNK        -0.1800 
    112 C         -3.3931  -21.1619  -53.7204 C.2       20 UNK         0.5000 
    113 O         -2.2487  -20.7158  -53.8069 O.2       20 UNK        -0.5000 
    114 N         -4.4934  -20.4990  -54.1166 N.am      21 UNK        -0.5000 
    115 CA        -4.5634  -19.0910  -54.5300 C.3       21 UNK         0.1400 
    116 CB        -3.8204  -18.8615  -55.8625 C.3       21 UNK        -0.1800 
    117 C         -4.1112  -18.1318  -53.4033 C.2       21 UNK         0.5000 
    118 O         -3.5072  -17.0911  -53.6681 O.2       21 UNK        -0.5000 
    119 N         -4.4088  -18.5191  -52.1585 N.am      22 UNK        -0.5000 
    120 CA        -4.0707  -17.8233  -50.9168 C.3       22 UNK         0.1400 
    121 C         -5.0565  -18.2462  -49.7971 C.2       22 UNK         0.5000 
    122 N         -5.2332  -17.4261  -48.7718 N.am      22 UNK        -0.7600 
    123 O         -5.6452  -19.3242  -49.8401 O.2       22 UNK        -0.5000 
    124 C124       -2.5892  -18.0510  -50.5040 C.3       23 UNK        -0.0398 
    125 S125       -1.9115  -16.6080  -49.6160 S.3       23 UNK        -0.2404 
    126 C126       -0.7094  -15.9466  -50.8129 C.3       23 UNK        -0.0205 
    127 H127        9.1717  -10.5745  -44.7602 H         1 UNK         0.0600 
    128 H128        8.5878   -9.3579  -45.9008 H         1 UNK         0.0600 
    129 H129        9.3483  -10.8356  -46.4976 H         1 UNK         0.0600 
    130 H130        7.8477  -12.2593  -47.3214 H         1 UNK         0.3000 
    131 H131        5.4826  -13.0501  -45.8794 H         1 UNK         0.0600 
    132 H132        6.8764  -14.6099  -47.2826 H         1 UNK         0.0800 
    133 H133        6.3563  -13.7850  -48.7203 H         1 UNK         0.0800 
    134 H134        3.6995  -13.9134  -49.5845 H         1 UNK         0.0800 
    135 H135        4.9157  -15.0482  -50.1180 H         1 UNK         0.0800 
    136 H136        1.3996  -14.4965  -49.8834 H         1 UNK         0.1150 
    137 H137        0.3474  -18.4501  -51.1698 H         1 UNK         0.1150 
    138 H138        4.3646  -17.5875  -49.9517 H         1 UNK         0.1150 
    139 H139        2.2049  -20.0136  -51.7029 H         1 UNK         0.0800 
    140 H140        3.8378  -19.6232  -51.2438 H         1 UNK         0.0800 
    141 H141        0.4915  -20.9937  -50.3128 H         1 UNK         0.0800 
    142 H142        0.4691  -19.9712  -48.9023 H         1 UNK         0.0800 
    143 H143        0.9722  -22.9957  -48.8310 H         1 UNK         0.0600 
    144 H144        1.2544  -21.1299  -46.7362 H         1 UNK         0.3000 
    145 H145        0.2979  -23.2941  -44.0091 H         1 UNK         0.0600 
    146 H146        2.6892  -23.7325  -44.4537 H         1 UNK         0.0600 
    147 H147        2.9625  -22.0444  -44.8528 H         1 UNK         0.0600 
    148 H148        2.5094  -22.5005  -43.2135 H         1 UNK         0.0600 
    149 H149        1.0655  -20.5445  -44.0655 H         1 UNK         0.3000 
    150 H150       -2.2431  -19.2132  -44.4929 H         1 UNK         0.0600 
    151 H151       -1.5393  -17.9935  -42.4312 H         1 UNK         0.0600 
    152 H152       -0.3393  -19.2393  -42.0932 H         1 UNK         0.0600 
    153 H153       -2.0510  -19.6349  -42.0632 H         1 UNK         0.0600 
    154 H154        0.2491  -17.8965  -44.1931 H         1 UNK         0.3000 
    155 H155        1.2663  -18.0002  -47.6299 H         1 UNK         0.0600 
    156 H156       -0.3107  -16.0705  -47.3542 H         1 UNK         0.0600 
    157 H157        1.3761  -15.5917  -47.2620 H         1 UNK         0.0600 
    158 H158        0.4018  -15.7057  -45.7963 H         1 UNK         0.0600 
    159 H159        2.4309  -16.9012  -45.2496 H         1 UNK         0.3000 
    160 H160        4.3924  -19.7725  -44.3917 H         1 UNK         0.0600 
    161 H161        5.6061  -18.5008  -46.2038 H         1 UNK         0.0600 
    162 H162        6.1903  -18.1128  -44.5924 H         1 UNK         0.0600 
    163 H163        5.1302  -16.9892  -45.4394 H         1 UNK         0.0600 
    164 H164        4.1291  -17.1620  -43.2334 H         1 UNK         0.3000 
    165 H165        1.4155  -17.8692  -41.0568 H         1 UNK         0.0600 
    166 H166        3.0525  -17.2329  -39.3107 H         1 UNK         0.0600 
    167 H167        3.3691  -18.8697  -39.8623 H         1 UNK         0.0600 
    168 H168        4.3955  -17.5496  -40.4100 H         1 UNK         0.0600 
    169 H169        3.1014  -15.6003  -41.2614 H         1 UNK         0.3000 
    170 H170        2.0293  -13.6304  -42.0094 H         1 UNK         0.0600 
    171 H171        3.2521  -12.9271  -44.0988 H         1 UNK         0.0600 
    172 H172        3.9902  -14.3281  -43.3445 H         1 UNK         0.0600 
    173 H173        2.9970  -14.5361  -44.7787 H         1 UNK         0.0600 
    174 H174        0.7840  -13.3452  -44.6015 H         1 UNK         0.3000 
    175 H175       -2.4834  -13.0649  -43.6521 H         1 UNK         0.0600 
    176 H176       -0.8981  -10.4652  -43.3041 H         1 UNK         0.0600 
    177 H177       -2.6040  -10.5777  -43.7384 H         1 UNK         0.0600 
    178 H178       -2.0621  -11.1245  -42.1612 H         1 UNK         0.0600 
    179 H179       -0.6901  -11.5847  -45.4868 H         1 UNK         0.3000 
    180 H180       -0.8936  -13.9149  -48.0418 H         1 UNK         0.0600 
    181 H181       -2.0459  -12.2965  -49.4975 H         1 UNK         0.0600 
    182 H182       -2.6278  -11.3960  -48.0951 H         1 UNK         0.0600 
    183 H183       -3.2011  -13.0320  -48.4008 H         1 UNK         0.0600 
    184 H184       -0.1098  -11.2892  -48.3814 H         1 UNK         0.3000 
    185 H185        2.3870  -11.2260  -48.6329 H         1 UNK         0.0600 
    186 H186        2.0867  -10.0380  -45.7973 H         1 UNK         0.0600 
    187 H187        2.9966   -9.2931  -47.1095 H         1 UNK         0.0600 
    188 H188        1.2533   -9.4592  -47.2365 H         1 UNK         0.0600 
    189 H189        3.3491  -12.7028  -46.3949 H         1 UNK         0.3000 
    190 H190       -1.4873  -20.8175  -47.3825 H         1 UNK         0.3000 
    191 H191       -3.7028  -21.5785  -48.9262 H         1 UNK         0.0600 
    192 H192       -3.6775  -20.6409  -46.0160 H         1 UNK         0.0600 
    193 H193       -5.0400  -20.5879  -47.1227 H         1 UNK         0.0600 
    194 H194       -3.6257  -19.5933  -47.4272 H         1 UNK         0.0600 
    195 H195       -2.7303  -22.8327  -45.6887 H         1 UNK         0.3000 
    196 H196       -4.7228  -24.7754  -45.4175 H         1 UNK         0.0600 
    197 H197       -3.2071  -25.7043  -43.6475 H         1 UNK         0.0600 
    198 H198       -3.3263  -23.9541  -43.5477 H         1 UNK         0.0600 
    199 H199       -1.8911  -24.7004  -44.2481 H         1 UNK         0.0600 
    200 H200       -1.6071  -25.0412  -47.1046 H         1 UNK         0.3000 
    201 H201       -1.5774  -27.8682  -47.4148 H         1 UNK         0.0600 
    202 H202        0.4461  -26.4722  -47.6387 H         1 UNK         0.0600 
    203 H203       -0.2265  -25.6603  -49.0517 H         1 UNK         0.0600 
    204 H204        0.1824  -27.3695  -49.1237 H         1 UNK         0.0600 
    205 H205       -3.5451  -25.5001  -49.0708 H         1 UNK         0.3000 
    206 H206       -4.6153  -27.5821  -50.8390 H         1 UNK         0.0600 
    207 H207       -4.3312  -26.0896  -52.8845 H         1 UNK         0.0600 
    208 H208       -3.1759  -25.1406  -51.9508 H         1 UNK         0.0600 
    209 H209       -2.8618  -26.8294  -52.2882 H         1 UNK         0.0600 
    210 H210       -5.7687  -26.7734  -48.7027 H         1 UNK         0.3000 
    211 H211       -7.7710  -26.3484  -47.8943 H         1 UNK         0.0600 
    212 H212       -8.6578  -26.4287  -50.8266 H         1 UNK         0.0600 
    213 H213       -9.6625  -26.7783  -49.4262 H         1 UNK         0.0600 
    214 H214       -8.3299  -27.8445  -49.8281 H         1 UNK         0.0600 
    215 H215       -6.2374  -23.8546  -48.8028 H         1 UNK         0.3000 
    216 H216       -6.3891  -21.6768  -48.9998 H         1 UNK         0.0600 
    217 H217       -7.9417  -20.4800  -47.5071 H         1 UNK         0.0600 
    218 H218       -7.3304  -21.9114  -46.6948 H         1 UNK         0.0600 
    219 H219       -8.9647  -21.9043  -47.3584 H         1 UNK         0.0600 
    220 H220       -7.4528  -23.1415  -51.1985 H         1 UNK         0.3000 
    221 H221       -9.0741  -21.0384  -52.5247 H         1 UNK         0.0600 
    222 H222       -9.8838  -23.9970  -52.3473 H         1 UNK         0.0600 
    223 H223      -10.7783  -22.6189  -51.7209 H         1 UNK         0.0600 
    224 H224      -10.5946  -22.8257  -53.4558 H         1 UNK         0.0600 
    225 H225       -7.8915  -24.3657  -53.2140 H         1 UNK         0.3000 
    226 H226       -6.9445  -23.7623  -55.8330 H         1 UNK         0.0600 
    227 H227       -7.6187  -26.0292  -55.2073 H         1 UNK         0.0600 
    228 H228       -5.9133  -26.0668  -55.6249 H         1 UNK         0.0600 
    229 H229       -6.4054  -26.1063  -53.9347 H         1 UNK         0.0600 
    230 H230       -5.4931  -23.4202  -52.7106 H         1 UNK         0.3000 
    231 H231       -2.7503  -23.1613  -53.2715 H         1 UNK         0.0600 
    232 H232       -4.5423  -21.6826  -51.2526 H         1 UNK         0.0600 
    233 H233       -3.7553  -23.2263  -50.9649 H         1 UNK         0.0600 
    234 H234       -2.7894  -21.7753  -51.1705 H         1 UNK         0.0600 
    235 H235       -5.3893  -20.9680  -54.0382 H         1 UNK         0.3000 
    236 H236       -5.6195  -18.8791  -54.7028 H         1 UNK         0.0600 
    237 H237       -2.7417  -18.9753  -55.7533 H         1 UNK         0.0600 
    238 H238       -4.1565  -19.5626  -56.6263 H         1 UNK         0.0600 
    239 H239       -4.0041  -17.8558  -56.2421 H         1 UNK         0.0600 
    240 H240       -4.9501  -19.3614  -52.0186 H         1 UNK         0.3000 
    241 H241       -4.2393  -16.7607  -51.1041 H         1 UNK         0.0600 
    242 H242       -5.8690  -17.6922  -48.0376 H         1 UNK         0.3800 
    243 H243       -4.7272  -16.5569  -48.7021 H         1 UNK         0.3800 
    244 H244       -2.4761  -18.9391  -49.8788 H         1 UNK         0.0800 
    245 H245       -1.9753  -18.2420  -51.3841 H         1 UNK         0.0800 
    246 H246       -0.7523  -14.8576  -50.7620 H         1 UNK         0.0800 
    247 H247       -0.9988  -16.2051  -51.8325 H         1 UNK         0.0800 
@<TRIPOS>BOND
     1    1    2 1    
     2    1  127 1    
     3    1  128 1    
     4    1  129 1    
     5    2    3 2    
     6    2    4 am   BACKBONE|DICT|INTERRES
     7    4    5 1    
     8    4  130 1    
     9    5    6 1    
    10    5   65 1    
    11    5  131 1    
    12    6    7 1    
    13    6  132 1    
    14    6  133 1    
    15    7    8 1    
    16    8    9 1    
    17    8  134 1    
    18    8  135 1    
    19    9   10 ar   
    20    9   14 ar   
    21   10   11 ar   
    22   10  136 1    
    23   11   12 ar   
    24   11  126 1    
    25   12   13 ar   
    26   12  137 1    
    27   13   14 ar   
    28   13   15 1    
    29   14  138 1    
    30   15   16 1    
    31   15  139 1    
    32   15  140 1    
    33   16   17 1    
    34   17   18 1    
    35   17  141 1    
    36   17  142 1    
    37   18   19 1    
    38   18   67 1    
    39   18  143 1    
    40   19   20 am   BACKBONE|DICT|INTERRES
    41   19  144 1    
    42   20   21 2    
    43   20   22 1    
    44   22   23 1    
    45   22   24 1    
    46   22  145 1    
    47   23  146 1    
    48   23  147 1    
    49   23  148 1    
    50   24   25 am   BACKBONE|DICT|INTERRES
    51   24  149 1    
    52   25   26 2    
    53   25   27 1    
    54   27   28 1    
    55   27   29 1    
    56   27  150 1    
    57   28  151 1    
    58   28  152 1    
    59   28  153 1    
    60   29   30 am   BACKBONE|DICT|INTERRES
    61   29  154 1    
    62   30   31 2    
    63   30   32 1    
    64   32   33 1    
    65   32   34 1    
    66   32  155 1    
    67   33  156 1    
    68   33  157 1    
    69   33  158 1    
    70   34   35 am   BACKBONE|DICT|INTERRES
    71   34  159 1    
    72   35   36 2    
    73   35   37 1    
    74   37   38 1    
    75   37   39 1    
    76   37  160 1    
    77   38  161 1    
    78   38  162 1    
    79   38  163 1    
    80   39   40 am   BACKBONE|DICT|INTERRES
    81   39  164 1    
    82   40   41 2    
    83   40   42 1    
    84   42   43 1    
    85   42   44 1    
    86   42  165 1    
    87   43  166 1    
    88   43  167 1    
    89   43  168 1    
    90   44   45 am   BACKBONE|DICT|INTERRES
    91   44  169 1    
    92   45   46 2    
    93   45   47 1    
    94   47   48 1    
    95   47   49 1    
    96   47  170 1    
    97   48  171 1    
    98   48  172 1    
    99   48  173 1    
   100   49   50 am   BACKBONE|DICT|INTERRES
   101   49  174 1    
   102   50   51 2    
   103   50   52 1    
   104   52   53 1    
   105   52   54 1    
   106   52  175 1    
   107   53  176 1    
   108   53  177 1    
   109   53  178 1    
   110   54   55 am   BACKBONE|DICT|INTERRES
   111   54  179 1    
   112   55   56 2    
   113   55   57 1    
   114   57   58 1    
   115   57   59 1    
   116   57  180 1    
   117   58  181 1    
   118   58  182 1    
   119   58  183 1    
   120   59   60 am   BACKBONE|DICT|INTERRES
   121   59  184 1    
   122   60   61 2    
   123   60   62 1    
   124   62   63 1    
   125   62   64 1    
   126   62  185 1    
   127   63  186 1    
   128   63  187 1    
   129   63  188 1    
   130   64   65 am   BACKBONE|DICT|INTERRES
   131   64  189 1    
   132   65   66 2    
   133   67   68 2    
   134   67   69 am   BACKBONE|DICT|INTERRES
   135   69   70 1    
   136   69  190 1    
   137   70   71 1    
   138   70   72 1    
   139   70  191 1    
   140   71  192 1    
   141   71  193 1    
   142   71  194 1    
   143   72   73 2    
   144   72   74 am   BACKBONE|DICT|INTERRES
   145   74   75 1    
   146   74  195 1    
   147   75   76 1    
   148   75   77 1    
   149   75  196 1    
   150   76  197 1    
   151   76  198 1    
   152   76  199 1    
   153   77   78 2    
   154   77   79 am   BACKBONE|DICT|INTERRES
   155   79   80 1    
   156   79  200 1    
   157   80   81 1    
   158   80   82 1    
   159   80  201 1    
   160   81  202 1    
   161   81  203 1    
   162   81  204 1    
   163   82   83 2    
   164   82   84 am   BACKBONE|DICT|INTERRES
   165   84   85 1    
   166   84  205 1    
   167   85   86 1    
   168   85   87 1    
   169   85  206 1    
   170   86  207 1    
   171   86  208 1    
   172   86  209 1    
   173   87   88 2    
   174   87   89 am   BACKBONE|DICT|INTERRES
   175   89   90 1    
   176   89  210 1    
   177   90   91 1    
   178   90   92 1    
   179   90  211 1    
   180   91  212 1    
   181   91  213 1    
   182   91  214 1    
   183   92   93 2    
   184   92   94 am   BACKBONE|DICT|INTERRES
   185   94   95 1    
   186   94  215 1    
   187   95   96 1    
   188   95   97 1    
   189   95  216 1    
   190   96  217 1    
   191   96  218 1    
   192   96  219 1    
   193   97   98 2    
   194   97   99 am   BACKBONE|DICT|INTERRES
   195   99  100 1    
   196   99  220 1    
   197  100  101 1    
   198  100  102 1    
   199  100  221 1    
   200  101  222 1    
   201  101  223 1    
   202  101  224 1    
   203  102  103 2    
   204  102  104 am   BACKBONE|DICT|INTERRES
   205  104  105 1    
   206  104  225 1    
   207  105  106 1    
   208  105  107 1    
   209  105  226 1    
   210  106  227 1    
   211  106  228 1    
   212  106  229 1    
   213  107  108 2    
   214  107  109 am   BACKBONE|DICT|INTERRES
   215  109  110 1    
   216  109  230 1    
   217  110  111 1    
   218  110  112 1    
   219  110  231 1    
   220  111  232 1    
   221  111  233 1    
   222  111  234 1    
   223  112  113 2    
   224  112  114 am   BACKBONE|DICT|INTERRES
   225  114  115 1    
   226  114  235 1    
   227  115  116 1    
   228  115  117 1    
   229  115  236 1    
   230  116  237 1    
   231  116  238 1    
   232  116  239 1    
   233  117  118 2    
   234  117  119 am   BACKBONE|DICT|INTERRES
   235  119  120 1    
   236  119  240 1    
   237  120  121 1    
   238  120  124 1    
   239  120  241 1    
   240  121  122 am   BACKBONE|DICT|INTERRES
   241  121  123 2    
   242  122  242 1    
   243  122  243 1    
   244  124  125 1    
   245  124  244 1    
   246  124  245 1    
   247  125  126 1    
   248  126  246 1    
   249  126  247 1    
@<TRIPOS>SUBSTRUCTURE
     1 UNK         1 GROUP             0       ****    0 ROOT    
