@<TRIPOS>MOLECULE
3R540
247   249    1
SMALL
USER_CHARGES


@<TRIPOS>ATOM
      1 CA          2.8896  -16.0578  -46.1512 C.3       0 UNK        -0.1800 
      2 C           1.8677  -14.9684  -46.4368 C.2       0 UNK         0.5000 
      3 O           1.4611  -14.2479  -45.5270 O.2       0 UNK        -0.5000 
      4 N           1.4710  -14.8242  -47.7070 N.am      1 UNK        -0.5000 
      5 CA          0.4852  -13.8521  -48.1991 C.3       1 UNK         0.1400 
      6 C6          0.0510  -14.1539  -49.6540 C.3       23 UNK        -0.0398 
      7 S7          1.2972  -13.9322  -50.9808 S.3       23 UNK        -0.2404 
      8 C8          2.6655  -15.0992  -50.6205 C.3       23 UNK        -0.0205 
      9 C9          2.3226  -16.5892  -50.5116 C.ar      23 UNK        -0.0193 
     10 C10         1.0986  -17.1278  -50.9283 C.ar      23 UNK        -0.1150 
     11 C11         0.8327  -18.4980  -50.8132 C.ar      23 UNK        -0.0193 
     12 C12         1.8199  -19.3389  -50.2920 C.ar      23 UNK        -0.1150 
     13 C13         3.0606  -18.8276  -49.8996 C.ar      23 UNK        -0.0193 
     14 C14         3.2989  -17.4544  -50.0056 C.ar      23 UNK        -0.1150 
     15 C15         4.1575  -19.7674  -49.4093 C.3       23 UNK        -0.0205 
     16 S16         4.6247  -19.5140  -47.6623 S.3       23 UNK        -0.2404 
     17 C17         3.0673  -19.8636  -46.7818 C.3       23 UNK        -0.0398 
     18 CA          2.9333  -21.2978  -46.2086 C.3       11 UNK         0.1400 
     19 N           1.8118  -21.3816  -45.2687 N.am      11 UNK        -0.5000 
     20 C           1.4892  -22.4308  -44.4999 C.2       10 UNK         0.5000 
     21 O           2.1601  -23.4598  -44.4252 O.2       10 UNK        -0.5000 
     22 CA          0.1795  -22.3191  -43.6918 C.3       10 UNK         0.1400 
     23 CB          0.4188  -21.6066  -42.3522 C.3       10 UNK        -0.1800 
     24 N          -0.8871  -21.6325  -44.4251 N.am      10 UNK        -0.5000 
     25 C          -1.4871  -22.1231  -45.5192 C.2       9 UNK         0.5000 
     26 O          -1.2417  -23.2334  -45.9917 O.2       9 UNK        -0.5000 
     27 CA         -2.4855  -21.1973  -46.2392 C.3       9 UNK         0.1400 
     28 CB         -3.8586  -21.2021  -45.5529 C.3       9 UNK        -0.1800 
     29 N          -2.0001  -19.8224  -46.3461 N.am      9 UNK        -0.5000 
     30 C          -0.8985  -19.4603  -47.0177 C.2       8 UNK         0.5000 
     31 O          -0.1991  -20.2431  -47.6575 O.2       8 UNK        -0.5000 
     32 CA         -0.4777  -17.9843  -46.9034 C.3       8 UNK         0.1400 
     33 CB         -1.3197  -17.1195  -47.8463 C.3       8 UNK        -0.1800 
     34 N          -0.6001  -17.4677  -45.5387 N.am      8 UNK        -0.5000 
     35 C           0.0588  -17.9419  -44.4723 C.2       7 UNK         0.5000 
     36 O           0.8997  -18.8338  -44.5360 O.2       7 UNK        -0.5000 
     37 CA         -0.3290  -17.3764  -43.0961 C.3       7 UNK         0.1400 
     38 CB          0.4259  -16.0771  -42.7830 C.3       7 UNK        -0.1800 
     39 N          -1.7701  -17.1560  -42.9953 N.am      7 UNK        -0.5000 
     40 C          -2.6765  -18.1427  -42.9508 C.2       6 UNK         0.5000 
     41 O          -2.3821  -19.3377  -42.9077 O.2       6 UNK        -0.5000 
     42 CA         -4.1554  -17.7187  -43.0149 C.3       6 UNK         0.1400 
     43 CB         -4.6794  -17.3681  -41.6145 C.3       6 UNK        -0.1800 
     44 N          -4.3628  -16.5783  -43.9106 N.am      6 UNK        -0.5000 
     45 C          -4.2488  -16.6367  -45.2452 C.2       5 UNK         0.5000 
     46 O          -4.0311  -17.6767  -45.8666 O.2       5 UNK        -0.5000 
     47 CA         -4.3450  -15.3028  -46.0113 C.3       5 UNK         0.1400 
     48 CB         -5.7953  -15.0150  -46.4241 C.3       5 UNK        -0.1800 
     49 N          -3.8134  -14.1621  -45.2580 N.am      5 UNK        -0.5000 
     50 C          -2.5216  -14.0062  -44.9398 C.2       4 UNK         0.5000 
     51 O          -1.6416  -14.7985  -45.2764 O.2       4 UNK        -0.5000 
     52 CA         -2.1773  -12.8185  -44.0327 C.3       4 UNK         0.1400 
     53 CB         -2.5881  -13.1444  -42.5807 C.3       4 UNK        -0.1800 
     54 N          -0.7450  -12.5193  -44.0944 N.am      4 UNK        -0.5000 
     55 C          -0.1840  -11.4074  -43.5969 C.2       3 UNK         0.5000 
     56 O          -0.8300  -10.4765  -43.1130 O.2       3 UNK        -0.5000 
     57 CA          1.3484  -11.3054  -43.6383 C.3       3 UNK         0.1400 
     58 CB          2.0028  -12.3587  -42.7281 C.3       3 UNK        -0.1800 
     59 N           1.8453  -11.4538  -45.0021 N.am      3 UNK        -0.5000 
     60 C           2.1450  -10.4356  -45.8224 C.2       2 UNK         0.5000 
     61 O           2.0651   -9.2502  -45.4974 O.2       2 UNK        -0.5000 
     62 CA          2.6199  -10.7885  -47.2486 C.3       2 UNK         0.1400 
     63 CB          4.1543  -10.7752  -47.3237 C.3       2 UNK        -0.1800 
     64 N           2.1370  -12.0911  -47.7034 N.am      2 UNK        -0.5000 
     65 C           0.8576  -12.3689  -47.9868 C.2       1 UNK         0.5000 
     66 O          -0.0270  -11.5136  -48.0391 O.2       1 UNK        -0.5000 
     67 C           2.8105  -22.3557  -47.3246 C.2       11 UNK         0.5000 
     68 O           3.7826  -23.0590  -47.6045 O.2       11 UNK        -0.5000 
     69 N           1.6160  -22.4591  -47.9254 N.am      12 UNK        -0.5000 
     70 CA          1.2846  -23.4536  -48.9439 C.3       12 UNK         0.1400 
     71 CB         -0.0817  -23.1216  -49.5607 C.3       12 UNK        -0.1800 
     72 C           1.2920  -24.8896  -48.3919 C.2       12 UNK         0.5000 
     73 O           1.8920  -25.7700  -49.0111 O.2       12 UNK        -0.5000 
     74 N           0.6336  -25.0828  -47.2378 N.am      13 UNK        -0.5000 
     75 CA          0.4191  -26.3551  -46.5405 C.3       13 UNK         0.1400 
     76 CB          1.7591  -26.9267  -46.0289 C.3       13 UNK        -0.1800 
     77 C          -0.3904  -27.3657  -47.3856 C.2       13 UNK         0.5000 
     78 O          -1.0234  -26.9729  -48.3697 O.2       13 UNK        -0.5000 
     79 N          -0.3944  -28.6412  -46.9681 N.am      14 UNK        -0.5000 
     80 CA         -1.0980  -29.7764  -47.5806 C.3       14 UNK         0.1400 
     81 CB         -0.4533  -30.1480  -48.9348 C.3       14 UNK        -0.1800 
     82 C          -2.6198  -29.5338  -47.6655 C.2       14 UNK         0.5000 
     83 O          -3.3166  -29.7203  -46.6671 O.2       14 UNK        -0.5000 
     84 N          -3.0980  -29.0857  -48.8346 N.am      15 UNK        -0.5000 
     85 CA         -4.4724  -28.6377  -49.0750 C.3       15 UNK         0.1400 
     86 CB         -4.6921  -28.5208  -50.5916 C.3       15 UNK        -0.1800 
     87 C          -4.8177  -27.3029  -48.3783 C.2       15 UNK         0.5000 
     88 O          -6.0007  -26.9905  -48.2403 O.2       15 UNK        -0.5000 
     89 N          -3.7877  -26.5528  -47.9567 N.am      16 UNK        -0.5000 
     90 CA         -3.8314  -25.2676  -47.2566 C.3       16 UNK         0.1400 
     91 CB         -4.5133  -25.4099  -45.8799 C.3       16 UNK        -0.1800 
     92 C          -4.4264  -24.1546  -48.1391 C.2       16 UNK         0.5000 
     93 O          -5.3629  -23.4639  -47.7351 O.2       16 UNK        -0.5000 
     94 N          -3.8749  -24.0304  -49.3533 N.am      17 UNK        -0.5000 
     95 CA         -4.2563  -23.0469  -50.3644 C.3       17 UNK         0.1400 
     96 CB         -3.5461  -23.3989  -51.6802 C.3       17 UNK        -0.1800 
     97 C          -3.9264  -21.6106  -49.9148 C.2       17 UNK         0.5000 
     98 O          -2.7523  -21.2479  -49.8498 O.2       17 UNK        -0.5000 
     99 N          -4.9667  -20.8372  -49.5841 N.am      18 UNK        -0.5000 
    100 CA        -4.8726  -19.4491  -49.1315 C.3       18 UNK         0.1400 
    101 CB        -6.2318  -19.0415  -48.5394 C.3       18 UNK        -0.1800 
    102 C         -4.4391  -18.4751  -50.2467 C.2       18 UNK         0.5000 
    103 O         -4.3794  -18.8505  -51.4202 O.2       18 UNK        -0.5000 
    104 N         -4.1607  -17.2262  -49.8456 N.am      19 UNK        -0.5000 
    105 CA        -3.7125  -16.1234  -50.6999 C.3       19 UNK         0.1400 
    106 CB        -3.6154  -14.8393  -49.8615 C.3       19 UNK        -0.1800 
    107 C         -4.6182  -15.8951  -51.9255 C.2       19 UNK         0.5000 
    108 O         -5.8420  -15.8642  -51.7833 O.2       19 UNK        -0.5000 
    109 N         -3.9825  -15.7565  -53.0969 N.am      20 UNK        -0.5000 
    110 CA        -4.5724  -15.6096  -54.4349 C.3       20 UNK         0.1400 
    111 CB        -5.5097  -14.3863  -54.5152 C.3       20 UNK        -0.1800 
    112 C         -5.2324  -16.8906  -54.9947 C.2       20 UNK         0.5000 
    113 O         -5.7465  -16.8535  -56.1136 O.2       20 UNK        -0.5000 
    114 N         -5.1710  -18.0048  -54.2534 N.am      21 UNK        -0.5000 
    115 CA        -5.6221  -19.3351  -54.6698 C.3       21 UNK         0.1400 
    116 CB        -6.8101  -19.7563  -53.7858 C.3       21 UNK        -0.1800 
    117 C         -4.4651  -20.3535  -54.6014 C.2       21 UNK         0.5000 
    118 O         -4.7151  -21.5587  -54.5912 O.2       21 UNK        -0.5000 
    119 N         -3.2246  -19.8496  -54.5446 N.am      22 UNK        -0.5000 
    120 CA        -1.9779  -20.5904  -54.2825 C.3       22 UNK         0.1400 
    121 C         -1.5568  -21.6250  -55.3679 C.2       22 UNK         0.5000 
    122 N         -2.1425  -21.6209  -56.5588 N.am      22 UNK        -0.7600 
    123 O         -0.6783  -22.4469  -55.1233 O.2       22 UNK        -0.5000 
    124 C124       -0.7990  -19.6254  -53.9764 C.3       23 UNK        -0.0398 
    125 S125       -1.2194  -18.3566  -52.7326 S.3       23 UNK        -0.2404 
    126 C126       -0.5270  -19.0757  -51.2057 C.3       23 UNK        -0.0205 
    127 H127        3.8642  -15.6129  -45.9525 H         1 UNK         0.0600 
    128 H128        2.9908  -16.7455  -46.9909 H         1 UNK         0.0600 
    129 H129        2.5950  -16.6329  -45.2746 H         1 UNK         0.0600 
    130 H130        1.8446  -15.4450  -48.4102 H         1 UNK         0.3000 
    131 H131       -0.4000  -13.9889  -47.5763 H         1 UNK         0.0600 
    132 H132       -0.7940  -13.5133  -49.9117 H         1 UNK         0.0800 
    133 H133       -0.3492  -15.1624  -49.7103 H         1 UNK         0.0800 
    134 H134        3.3908  -14.9953  -51.4286 H         1 UNK         0.0800 
    135 H135        3.1888  -14.7667  -49.7240 H         1 UNK         0.0800 
    136 H136        0.3425  -16.4864  -51.3526 H         1 UNK         0.1150 
    137 H137        1.6240  -20.3974  -50.1970 H         1 UNK         0.1150 
    138 H138        4.2603  -17.0615  -49.7043 H         1 UNK         0.1150 
    139 H139        3.8679  -20.8083  -49.5576 H         1 UNK         0.0800 
    140 H140        5.0440  -19.6165  -50.0267 H         1 UNK         0.0800 
    141 H141        2.2247  -19.6142  -47.4218 H         1 UNK         0.0800 
    142 H142        3.0308  -19.1491  -45.9599 H         1 UNK         0.0800 
    143 H143        3.8383  -21.5212  -45.6399 H         1 UNK         0.0600 
    144 H144        1.2452  -20.5419  -45.1826 H         1 UNK         0.3000 
    145 H145       -0.1628  -23.3337  -43.4774 H         1 UNK         0.0600 
    146 H146       -0.4934  -21.5708  -41.7563 H         1 UNK         0.0600 
    147 H147        1.1734  -22.1289  -41.7628 H         1 UNK         0.0600 
    148 H148        0.7650  -20.5829  -42.4940 H         1 UNK         0.0600 
    149 H149       -1.1672  -20.7209  -44.0825 H         1 UNK         0.3000 
    150 H150       -2.6126  -21.5850  -47.2499 H         1 UNK         0.0600 
    151 H151       -4.2632  -22.2110  -45.4945 H         1 UNK         0.0600 
    152 H152       -4.5777  -20.5988  -46.1071 H         1 UNK         0.0600 
    153 H153       -3.8085  -20.8127  -44.5370 H         1 UNK         0.0600 
    154 H154       -2.5480  -19.1041  -45.8855 H         1 UNK         0.3000 
    155 H155        0.5692  -17.8955  -47.1979 H         1 UNK         0.0600 
    156 H156       -1.2129  -16.0637  -47.6176 H         1 UNK         0.0600 
    157 H157       -1.0174  -17.2643  -48.8802 H         1 UNK         0.0600 
    158 H158       -2.3775  -17.3609  -47.7802 H         1 UNK         0.0600 
    159 H159       -1.2039  -16.6615  -45.4085 H         1 UNK         0.3000 
    160 H160       -0.0438  -18.1159  -42.3447 H         1 UNK         0.0600 
    161 H161        0.1487  -15.2737  -43.4622 H         1 UNK         0.0600 
    162 H162        1.5036  -16.2198  -42.8698 H         1 UNK         0.0600 
    163 H163        0.2230  -15.7381  -41.7672 H         1 UNK         0.0600 
    164 H164       -2.0907  -16.2034  -43.0698 H         1 UNK         0.3000 
    165 H165       -4.7305  -18.5660  -43.3948 H         1 UNK         0.0600 
    166 H166       -5.7431  -17.1308  -41.6402 H         1 UNK         0.0600 
    167 H167       -4.5511  -18.2072  -40.9293 H         1 UNK         0.0600 
    168 H168       -4.1542  -16.5124  -41.1881 H         1 UNK         0.0600 
    169 H169       -4.5628  -15.6879  -43.4806 H         1 UNK         0.3000 
    170 H170       -3.7495  -15.4089  -46.9183 H         1 UNK         0.0600 
    171 H171       -6.2078  -15.8378  -47.0088 H         1 UNK         0.0600 
    172 H172       -6.4409  -14.8731  -45.5566 H         1 UNK         0.0600 
    173 H173       -5.8586  -14.1180  -47.0404 H         1 UNK         0.0600 
    174 H174       -4.4852  -13.4762  -44.9438 H         1 UNK         0.3000 
    175 H175       -2.7347  -11.9495  -44.3880 H         1 UNK         0.0600 
    176 H176       -3.6417  -13.4179  -42.5147 H         1 UNK         0.0600 
    177 H177       -2.0063  -13.9738  -42.1768 H         1 UNK         0.0600 
    178 H178       -2.4454  -12.2890  -41.9208 H         1 UNK         0.0600 
    179 H179       -0.1697  -13.2372  -44.5272 H         1 UNK         0.3000 
    180 H180        1.6266  -10.3245  -43.2467 H         1 UNK         0.0600 
    181 H181        1.7897  -13.3759  -43.0549 H         1 UNK         0.0600 
    182 H182        1.6440  -12.2635  -41.7025 H         1 UNK         0.0600 
    183 H183        3.0858  -12.2378  -42.7061 H         1 UNK         0.0600 
    184 H184        1.8815  -12.4060  -45.3549 H         1 UNK         0.3000 
    185 H185        2.2363  -10.0228  -47.9261 H         1 UNK         0.0600 
    186 H186        4.5516   -9.8062  -47.0185 H         1 UNK         0.0600 
    187 H187        4.5958  -11.5308  -46.6727 H         1 UNK         0.0600 
    188 H188        4.5015  -10.9618  -48.3402 H         1 UNK         0.0600 
    189 H189        2.7965  -12.8542  -47.6801 H         1 UNK         0.3000 
    190 H190        0.8810  -21.8015  -47.6748 H         1 UNK         0.3000 
    191 H191        2.0373  -23.3913  -49.7326 H         1 UNK         0.0600 
    192 H192       -0.8747  -23.1217  -48.8118 H         1 UNK         0.0600 
    193 H193       -0.3520  -23.8488  -50.3269 H         1 UNK         0.0600 
    194 H194       -0.0750  -22.1395  -50.0310 H         1 UNK         0.0600 
    195 H195        0.1327  -24.2926  -46.8405 H         1 UNK         0.3000 
    196 H196       -0.1974  -26.1155  -45.6731 H         1 UNK         0.0600 
    197 H197        1.6022  -27.7372  -45.3170 H         1 UNK         0.0600 
    198 H198        2.3392  -26.1606  -45.5136 H         1 UNK         0.0600 
    199 H199        2.3720  -27.3161  -46.8425 H         1 UNK         0.0600 
    200 H200        0.1211  -28.8629  -46.1281 H         1 UNK         0.3000 
    201 H201       -0.9607  -30.6268  -46.9109 H         1 UNK         0.0600 
    202 H202        0.5860  -30.4467  -48.7982 H         1 UNK         0.0600 
    203 H203       -0.4634  -29.3209  -49.6451 H         1 UNK         0.0600 
    204 H204       -0.9707  -30.9895  -49.3974 H         1 UNK         0.0600 
    205 H205       -2.4379  -28.9273  -49.5824 H         1 UNK         0.3000 
    206 H206       -5.1534  -29.3971  -48.6855 H         1 UNK         0.0600 
    207 H207       -4.5144  -29.4734  -51.0911 H         1 UNK         0.0600 
    208 H208       -5.7173  -28.2238  -50.8169 H         1 UNK         0.0600 
    209 H209       -4.0298  -27.7776  -51.0376 H         1 UNK         0.0600 
    210 H210       -2.8494  -26.8866  -48.1674 H         1 UNK         0.3000 
    211 H211       -2.7919  -24.9944  -47.0775 H         1 UNK         0.0600 
    212 H212       -5.5815  -25.6079  -45.9711 H         1 UNK         0.0600 
    213 H213       -4.3988  -24.5006  -45.2914 H         1 UNK         0.0600 
    214 H214       -4.0696  -26.2227  -45.3048 H         1 UNK         0.0600 
    215 H215       -3.1081  -24.6407  -49.5936 H         1 UNK         0.3000 
    216 H216       -5.3324  -23.1294  -50.5304 H         1 UNK         0.0600 
    217 H217       -2.4609  -23.3642  -51.5800 H         1 UNK         0.0600 
    218 H218       -3.8231  -22.6955  -52.4628 H         1 UNK         0.0600 
    219 H219       -3.8217  -24.3950  -52.0267 H         1 UNK         0.0600 
    220 H220       -5.8976  -21.2194  -49.6565 H         1 UNK         0.3000 
    221 H221       -4.1213  -19.4029  -48.3405 H         1 UNK         0.0600 
    222 H222       -6.5329  -19.7206  -47.7413 H         1 UNK         0.0600 
    223 H223       -7.0164  -19.0427  -49.2972 H         1 UNK         0.0600 
    224 H224       -6.1934  -18.0417  -48.1069 H         1 UNK         0.0600 
    225 H225       -4.2895  -17.0034  -48.8713 H         1 UNK         0.3000 
    226 H226       -2.7092  -16.3769  -51.0462 H         1 UNK         0.0600 
    227 H227       -4.5744  -14.5806  -49.4110 H         1 UNK         0.0600 
    228 H228       -2.8824  -14.9386  -49.0629 H         1 UNK         0.0600 
    229 H229       -3.3056  -13.9935  -50.4768 H         1 UNK         0.0600 
    230 H230       -2.9732  -15.8152  -53.0910 H         1 UNK         0.3000 
    231 H231       -3.7294  -15.4073  -55.0970 H         1 UNK         0.0600 
    232 H232       -6.4355  -14.5433  -53.9615 H         1 UNK         0.0600 
    233 H233       -5.7858  -14.1749  -55.5488 H         1 UNK         0.0600 
    234 H234       -5.0278  -13.4918  -54.1205 H         1 UNK         0.0600 
    235 H235       -4.7585  -17.9659  -53.3265 H         1 UNK         0.3000 
    236 H236       -5.9584  -19.3203  -55.7081 H         1 UNK         0.0600 
    237 H237       -7.6161  -19.0242  -53.8358 H         1 UNK         0.0600 
    238 H238       -7.2219  -20.7132  -54.1084 H         1 UNK         0.0600 
    239 H239       -6.5169  -19.8599  -52.7406 H         1 UNK         0.0600 
    240 H240       -3.1296  -18.8458  -54.5598 H         1 UNK         0.3000 
    241 H241       -2.1576  -21.1713  -53.3764 H         1 UNK         0.0600 
    242 H242       -1.8645  -22.2969  -57.2528 H         1 UNK         0.3800 
    243 H243       -2.8767  -20.9626  -56.7644 H         1 UNK         0.3800 
    244 H244       -0.4966  -19.1033  -54.8858 H         1 UNK         0.0800 
    245 H245        0.0805  -20.1789  -53.6423 H         1 UNK         0.0800 
    246 H246       -1.2326  -18.9017  -50.3946 H         1 UNK         0.0800 
    247 H247       -0.4727  -20.1597  -51.3104 H         1 UNK         0.0800 
@<TRIPOS>BOND
     1    1    2 1    
     2    1  127 1    
     3    1  128 1    
     4    1  129 1    
     5    2    3 2    
     6    2    4 am   BACKBONE|DICT|INTERRES
     7    4    5 1    
     8    4  130 1    
     9    5    6 1    
    10    5   65 1    
    11    5  131 1    
    12    6    7 1    
    13    6  132 1    
    14    6  133 1    
    15    7    8 1    
    16    8    9 1    
    17    8  134 1    
    18    8  135 1    
    19    9   10 ar   
    20    9   14 ar   
    21   10   11 ar   
    22   10  136 1    
    23   11   12 ar   
    24   11  126 1    
    25   12   13 ar   
    26   12  137 1    
    27   13   14 ar   
    28   13   15 1    
    29   14  138 1    
    30   15   16 1    
    31   15  139 1    
    32   15  140 1    
    33   16   17 1    
    34   17   18 1    
    35   17  141 1    
    36   17  142 1    
    37   18   19 1    
    38   18   67 1    
    39   18  143 1    
    40   19   20 am   BACKBONE|DICT|INTERRES
    41   19  144 1    
    42   20   21 2    
    43   20   22 1    
    44   22   23 1    
    45   22   24 1    
    46   22  145 1    
    47   23  146 1    
    48   23  147 1    
    49   23  148 1    
    50   24   25 am   BACKBONE|DICT|INTERRES
    51   24  149 1    
    52   25   26 2    
    53   25   27 1    
    54   27   28 1    
    55   27   29 1    
    56   27  150 1    
    57   28  151 1    
    58   28  152 1    
    59   28  153 1    
    60   29   30 am   BACKBONE|DICT|INTERRES
    61   29  154 1    
    62   30   31 2    
    63   30   32 1    
    64   32   33 1    
    65   32   34 1    
    66   32  155 1    
    67   33  156 1    
    68   33  157 1    
    69   33  158 1    
    70   34   35 am   BACKBONE|DICT|INTERRES
    71   34  159 1    
    72   35   36 2    
    73   35   37 1    
    74   37   38 1    
    75   37   39 1    
    76   37  160 1    
    77   38  161 1    
    78   38  162 1    
    79   38  163 1    
    80   39   40 am   BACKBONE|DICT|INTERRES
    81   39  164 1    
    82   40   41 2    
    83   40   42 1    
    84   42   43 1    
    85   42   44 1    
    86   42  165 1    
    87   43  166 1    
    88   43  167 1    
    89   43  168 1    
    90   44   45 am   BACKBONE|DICT|INTERRES
    91   44  169 1    
    92   45   46 2    
    93   45   47 1    
    94   47   48 1    
    95   47   49 1    
    96   47  170 1    
    97   48  171 1    
    98   48  172 1    
    99   48  173 1    
   100   49   50 am   BACKBONE|DICT|INTERRES
   101   49  174 1    
   102   50   51 2    
   103   50   52 1    
   104   52   53 1    
   105   52   54 1    
   106   52  175 1    
   107   53  176 1    
   108   53  177 1    
   109   53  178 1    
   110   54   55 am   BACKBONE|DICT|INTERRES
   111   54  179 1    
   112   55   56 2    
   113   55   57 1    
   114   57   58 1    
   115   57   59 1    
   116   57  180 1    
   117   58  181 1    
   118   58  182 1    
   119   58  183 1    
   120   59   60 am   BACKBONE|DICT|INTERRES
   121   59  184 1    
   122   60   61 2    
   123   60   62 1    
   124   62   63 1    
   125   62   64 1    
   126   62  185 1    
   127   63  186 1    
   128   63  187 1    
   129   63  188 1    
   130   64   65 am   BACKBONE|DICT|INTERRES
   131   64  189 1    
   132   65   66 2    
   133   67   68 2    
   134   67   69 am   BACKBONE|DICT|INTERRES
   135   69   70 1    
   136   69  190 1    
   137   70   71 1    
   138   70   72 1    
   139   70  191 1    
   140   71  192 1    
   141   71  193 1    
   142   71  194 1    
   143   72   73 2    
   144   72   74 am   BACKBONE|DICT|INTERRES
   145   74   75 1    
   146   74  195 1    
   147   75   76 1    
   148   75   77 1    
   149   75  196 1    
   150   76  197 1    
   151   76  198 1    
   152   76  199 1    
   153   77   78 2    
   154   77   79 am   BACKBONE|DICT|INTERRES
   155   79   80 1    
   156   79  200 1    
   157   80   81 1    
   158   80   82 1    
   159   80  201 1    
   160   81  202 1    
   161   81  203 1    
   162   81  204 1    
   163   82   83 2    
   164   82   84 am   BACKBONE|DICT|INTERRES
   165   84   85 1    
   166   84  205 1    
   167   85   86 1    
   168   85   87 1    
   169   85  206 1    
   170   86  207 1    
   171   86  208 1    
   172   86  209 1    
   173   87   88 2    
   174   87   89 am   BACKBONE|DICT|INTERRES
   175   89   90 1    
   176   89  210 1    
   177   90   91 1    
   178   90   92 1    
   179   90  211 1    
   180   91  212 1    
   181   91  213 1    
   182   91  214 1    
   183   92   93 2    
   184   92   94 am   BACKBONE|DICT|INTERRES
   185   94   95 1    
   186   94  215 1    
   187   95   96 1    
   188   95   97 1    
   189   95  216 1    
   190   96  217 1    
   191   96  218 1    
   192   96  219 1    
   193   97   98 2    
   194   97   99 am   BACKBONE|DICT|INTERRES
   195   99  100 1    
   196   99  220 1    
   197  100  101 1    
   198  100  102 1    
   199  100  221 1    
   200  101  222 1    
   201  101  223 1    
   202  101  224 1    
   203  102  103 2    
   204  102  104 am   BACKBONE|DICT|INTERRES
   205  104  105 1    
   206  104  225 1    
   207  105  106 1    
   208  105  107 1    
   209  105  226 1    
   210  106  227 1    
   211  106  228 1    
   212  106  229 1    
   213  107  108 2    
   214  107  109 am   BACKBONE|DICT|INTERRES
   215  109  110 1    
   216  109  230 1    
   217  110  111 1    
   218  110  112 1    
   219  110  231 1    
   220  111  232 1    
   221  111  233 1    
   222  111  234 1    
   223  112  113 2    
   224  112  114 am   BACKBONE|DICT|INTERRES
   225  114  115 1    
   226  114  235 1    
   227  115  116 1    
   228  115  117 1    
   229  115  236 1    
   230  116  237 1    
   231  116  238 1    
   232  116  239 1    
   233  117  118 2    
   234  117  119 am   BACKBONE|DICT|INTERRES
   235  119  120 1    
   236  119  240 1    
   237  120  121 1    
   238  120  124 1    
   239  120  241 1    
   240  121  122 am   BACKBONE|DICT|INTERRES
   241  121  123 2    
   242  122  242 1    
   243  122  243 1    
   244  124  125 1    
   245  124  244 1    
   246  124  245 1    
   247  125  126 1    
   248  126  246 1    
   249  126  247 1    
@<TRIPOS>SUBSTRUCTURE
     1 UNK         1 GROUP             0       ****    0 ROOT    
