@<TRIPOS>MOLECULE
3R540
247   249    1
SMALL
USER_CHARGES


@<TRIPOS>ATOM
      1 CA          4.4255  -17.8116  -45.7121 C.3       0 UNK        -0.1800 
      2 C           3.7753  -16.4372  -45.7393 C.2       0 UNK         0.5000 
      3 O           3.7513  -15.7518  -44.7199 O.2       0 UNK        -0.5000 
      4 N           3.2706  -16.0208  -46.9071 N.am      1 UNK        -0.5000 
      5 CA          2.5159  -14.7808  -47.1551 C.3       1 UNK         0.1400 
      6 C6          2.0091  -14.7113  -48.6169 C.3       23 UNK        -0.0398 
      7 S7          3.3389  -14.9448  -49.8517 S.3       23 UNK        -0.2404 
      8 C8          2.4197  -15.5650  -51.2961 C.3       23 UNK        -0.0205 
      9 C9          1.6943  -16.8769  -51.0266 C.ar      23 UNK        -0.0193 
     10 C10         0.2979  -16.9231  -51.0714 C.ar      23 UNK        -0.1150 
     11 C11        -0.3826  -18.1287  -50.8777 C.ar      23 UNK        -0.0193 
     12 C12         0.3467  -19.2881  -50.6030 C.ar      23 UNK        -0.1150 
     13 C13         1.7424  -19.2532  -50.5316 C.ar      23 UNK        -0.0193 
     14 C14         2.4121  -18.0468  -50.7574 C.ar      23 UNK        -0.1150 
     15 C15         2.5209  -20.5256  -50.2260 C.3       23 UNK        -0.0205 
     16 S16         3.2588  -20.5315  -48.5564 S.3       23 UNK        -0.2404 
     17 C17         1.8242  -20.2598  -47.4608 C.3       23 UNK        -0.0398 
     18 CA          1.1861  -21.5600  -46.9125 C.3       11 UNK         0.1400 
     19 N           0.4349  -21.3056  -45.6805 N.am      11 UNK        -0.5000 
     20 C          -0.1502  -22.2350  -44.9122 C.2       10 UNK         0.5000 
     21 O          -0.0487  -23.4467  -45.1049 O.2       10 UNK        -0.5000 
     22 CA         -1.0495  -21.7155  -43.7737 C.3       10 UNK         0.1400 
     23 CB         -0.2179  -21.3253  -42.5429 C.3       10 UNK        -0.1800 
     24 N          -1.8747  -20.5812  -44.2002 N.am      10 UNK        -0.5000 
     25 C          -2.8683  -20.6769  -45.0959 C.2       9 UNK         0.5000 
     26 O          -3.2341  -21.7435  -45.5880 O.2       9 UNK        -0.5000 
     27 CA         -3.5362  -19.3676  -45.5581 C.3       9 UNK         0.1400 
     28 CB         -4.6736  -18.9634  -44.6099 C.3       9 UNK        -0.1800 
     29 N          -2.5905  -18.2599  -45.6903 N.am      9 UNK        -0.5000 
     30 C          -1.5991  -18.2149  -46.5914 C.2       8 UNK         0.5000 
     31 O          -1.4146  -19.0800  -47.4433 O.2       8 UNK        -0.5000 
     32 CA         -0.6138  -17.0375  -46.4855 C.3       8 UNK         0.1400 
     33 CB         -1.1986  -15.7961  -47.1774 C.3       8 UNK        -0.1800 
     34 N          -0.2678  -16.7388  -45.0919 N.am      8 UNK        -0.5000 
     35 C           0.3469  -17.6010  -44.2668 C.2       7 UNK         0.5000 
     36 O           0.7801  -18.6913  -44.6346 O.2       7 UNK        -0.5000 
     37 CA          0.4373  -17.2322  -42.7763 C.3       7 UNK         0.1400 
     38 CB          1.7418  -16.5068  -42.4547 C.3       7 UNK        -0.1800 
     39 N          -0.6846  -16.4046  -42.3495 N.am      7 UNK        -0.5000 
     40 C          -1.8906  -16.8879  -42.0295 C.2       6 UNK         0.5000 
     41 O          -2.1688  -18.0875  -42.0286 O.2       6 UNK        -0.5000 
     42 CA         -2.9742  -15.8458  -41.6973 C.3       6 UNK         0.1400 
     43 CB         -2.8694  -15.4007  -40.2310 C.3       6 UNK        -0.1800 
     44 N          -2.9040  -14.6700  -42.5682 N.am      6 UNK        -0.5000 
     45 C          -3.1323  -14.7024  -43.8878 C.2       5 UNK         0.5000 
     46 O          -3.4528  -15.7225  -44.4973 O.2       5 UNK        -0.5000 
     47 CA         -2.9433  -13.3880  -44.6657 C.3       5 UNK         0.1400 
     48 CB         -4.2579  -12.5946  -44.6962 C.3       5 UNK        -0.1800 
     49 N          -1.8707  -12.5201  -44.1699 N.am      5 UNK        -0.5000 
     50 C          -0.5728  -12.8406  -44.0633 C.2       4 UNK         0.5000 
     51 O          -0.1327  -13.9755  -44.2586 O.2       4 UNK        -0.5000 
     52 CA          0.3772  -11.6686  -43.7397 C.3       4 UNK         0.1400 
     53 CB         -0.1440  -10.7711  -42.5944 C.3       4 UNK        -0.1800 
     54 N           1.7683  -12.0711  -43.5069 N.am      4 UNK        -0.5000 
     55 C           2.2853  -12.7097  -42.4467 C.2       3 UNK         0.5000 
     56 O           1.6134  -13.1121  -41.4954 O.2       3 UNK        -0.5000 
     57 CA          3.8209  -12.8918  -42.4386 C.3       3 UNK         0.1400 
     58 CB          4.2934  -14.0775  -41.5788 C.3       3 UNK        -0.1800 
     59 N           4.3590  -13.0433  -43.7912 N.am      3 UNK        -0.5000 
     60 C           4.9477  -12.0776  -44.5117 C.2       2 UNK         0.5000 
     61 O           5.1561  -10.9412  -44.0863 O.2       2 UNK        -0.5000 
     62 CA          5.3405  -12.4199  -45.9661 C.3       2 UNK         0.1400 
     63 CB          6.8263  -12.8012  -46.0457 C.3       2 UNK        -0.1800 
     64 N           4.5428  -13.5013  -46.5479 N.am      2 UNK        -0.5000 
     65 C           3.2171  -13.4652  -46.7423 C.2       1 UNK         0.5000 
     66 O           2.5379  -12.4522  -46.5663 O.2       1 UNK        -0.5000 
     67 C           0.3045  -22.2570  -47.9697 C.2       11 UNK         0.5000 
     68 O           0.7302  -23.2514  -48.5563 O.2       11 UNK        -0.5000 
     69 N          -0.9265  -21.7562  -48.1539 N.am      12 UNK        -0.5000 
     70 CA         -1.9441  -22.3346  -49.0288 C.3       12 UNK         0.1400 
     71 CB         -3.1903  -21.4389  -49.0603 C.3       12 UNK        -0.1800 
     72 C          -2.3216  -23.7648  -48.6174 C.2       12 UNK         0.5000 
     73 O          -2.3295  -24.6472  -49.4715 O.2       12 UNK        -0.5000 
     74 N          -2.5728  -23.9820  -47.3188 N.am      13 UNK        -0.5000 
     75 CA         -2.8817  -25.2919  -46.7437 C.3       13 UNK         0.1400 
     76 CB         -3.2335  -25.1360  -45.2569 C.3       13 UNK        -0.1800 
     77 C          -1.7489  -26.3172  -46.9390 C.2       13 UNK         0.5000 
     78 O          -2.0282  -27.4645  -47.2876 O.2       13 UNK        -0.5000 
     79 N          -0.4946  -25.8764  -46.7644 N.am      14 UNK        -0.5000 
     80 CA          0.7085  -26.6711  -47.0218 C.3       14 UNK         0.1400 
     81 CB          1.9370  -25.9306  -46.4716 C.3       14 UNK        -0.1800 
     82 C           0.8958  -27.0138  -48.5139 C.2       14 UNK         0.5000 
     83 O           1.3126  -28.1274  -48.8341 O.2       14 UNK        -0.5000 
     84 N           0.5609  -26.0641  -49.3973 N.am      15 UNK        -0.5000 
     85 CA          0.5917  -26.2150  -50.8545 C.3       15 UNK         0.1400 
     86 CB          0.6421  -24.8154  -51.4906 C.3       15 UNK        -0.1800 
     87 C          -0.5959  -27.0204  -51.4254 C.2       15 UNK         0.5000 
     88 O          -0.5626  -27.3731  -52.6050 O.2       15 UNK        -0.5000 
     89 N          -1.6207  -27.2750  -50.5977 N.am      16 UNK        -0.5000 
     90 CA         -2.9195  -27.8723  -50.9292 C.3       16 UNK         0.1400 
     91 CB         -2.7620  -29.3310  -51.4073 C.3       16 UNK        -0.1800 
     92 C          -3.7451  -26.9919  -51.8948 C.2       16 UNK         0.5000 
     93 O          -4.4094  -27.5049  -52.7976 O.2       16 UNK        -0.5000 
     94 N          -3.6818  -25.6753  -51.6751 N.am      17 UNK        -0.5000 
     95 CA         -4.3987  -24.6303  -52.3976 C.3       17 UNK         0.1400 
     96 CB         -3.3598  -23.6301  -52.9335 C.3       17 UNK        -0.1800 
     97 C          -5.3868  -23.9225  -51.4527 C.2       17 UNK         0.5000 
     98 O          -5.3723  -24.1578  -50.2416 O.2       17 UNK        -0.5000 
     99 N          -6.2185  -23.0430  -52.0202 N.am      18 UNK        -0.5000 
    100 CA        -7.0706  -22.1237  -51.2677 C.3       18 UNK         0.1400 
    101 CB        -8.3477  -21.8524  -52.0768 C.3       18 UNK        -0.1800 
    102 C         -6.3125  -20.8105  -51.0197 C.2       18 UNK         0.5000 
    103 O         -5.4810  -20.4223  -51.8406 O.2       18 UNK        -0.5000 
    104 N         -6.6399  -20.1112  -49.9266 N.am      19 UNK        -0.5000 
    105 CA        -6.0377  -18.8184  -49.5738 C.3       19 UNK         0.1400 
    106 CB        -6.4490  -18.4504  -48.1399 C.3       19 UNK        -0.1800 
    107 C         -6.3983  -17.6799  -50.5535 C.2       19 UNK         0.5000 
    108 O         -5.6640  -16.6962  -50.6373 O.2       19 UNK        -0.5000 
    109 N         -7.5164  -17.8392  -51.2744 N.am      20 UNK        -0.5000 
    110 CA        -8.0082  -16.9121  -52.2940 C.3       20 UNK         0.1400 
    111 CB        -9.5424  -16.8652  -52.1984 C.3       20 UNK        -0.1800 
    112 C         -7.5712  -17.2965  -53.7237 C.2       20 UNK         0.5000 
    113 O         -7.8550  -16.5404  -54.6541 O.2       20 UNK        -0.5000 
    114 N         -6.9165  -18.4526  -53.8950 N.am      21 UNK        -0.5000 
    115 CA        -6.4948  -18.9933  -55.1860 C.3       21 UNK         0.1400 
    116 CB        -7.6485  -19.7803  -55.8383 C.3       21 UNK        -0.1800 
    117 C         -5.2281  -19.8306  -54.9679 C.2       21 UNK         0.5000 
    118 O         -5.2621  -21.0581  -55.0775 O.2       21 UNK        -0.5000 
    119 N         -4.1544  -19.1294  -54.5889 N.am      22 UNK        -0.5000 
    120 CA        -2.8391  -19.6717  -54.2205 C.3       22 UNK         0.1400 
    121 C         -2.1706  -20.5256  -55.3358 C.2       22 UNK         0.5000 
    122 N         -1.3931  -21.5357  -54.9692 N.am      22 UNK        -0.7600 
    123 O         -2.3040  -20.2478  -56.5260 O.2       22 UNK        -0.5000 
    124 C124       -1.8743  -18.5409  -53.7788 C.3       23 UNK        -0.0398 
    125 S125       -2.5677  -17.4454  -52.4895 S.3       23 UNK        -0.2404 
    126 C126       -1.9029  -18.1903  -50.9660 C.3       23 UNK        -0.0205 
    127 H127        4.4642  -18.2614  -46.7043 H         1 UNK         0.0600 
    128 H128        3.8622  -18.4758  -45.0565 H         1 UNK         0.0600 
    129 H129        5.4442  -17.7378  -45.3319 H         1 UNK         0.0600 
    130 H130        3.3771  -16.6121  -47.7193 H         1 UNK         0.3000 
    131 H131        1.6411  -14.8399  -46.5060 H         1 UNK         0.0600 
    132 H132        1.4934  -13.7703  -48.8177 H         1 UNK         0.0800 
    133 H133        1.2596  -15.4888  -48.7571 H         1 UNK         0.0800 
    134 H134        1.7206  -14.7947  -51.6256 H         1 UNK         0.0800 
    135 H135        3.1193  -15.7125  -52.1198 H         1 UNK         0.0800 
    136 H136       -0.2636  -16.0234  -51.2806 H         1 UNK         0.1150 
    137 H137       -0.1738  -20.2207  -50.4411 H         1 UNK         0.1150 
    138 H138        3.4920  -18.0167  -50.7173 H         1 UNK         0.1150 
    139 H139        1.8860  -21.4049  -50.3426 H         1 UNK         0.0800 
    140 H140        3.3204  -20.6368  -50.9597 H         1 UNK         0.0800 
    141 H141        1.0862  -19.6182  -47.9394 H         1 UNK         0.0800 
    142 H142        2.2077  -19.6723  -46.6269 H         1 UNK         0.0800 
    143 H143        1.9890  -22.2509  -46.6470 H         1 UNK         0.0600 
    144 H144        0.3509  -20.3315  -45.4006 H         1 UNK         0.3000 
    145 H145       -1.7198  -22.5266  -43.4816 H         1 UNK         0.0600 
    146 H146        0.3250  -22.1879  -42.1548 H         1 UNK         0.0600 
    147 H147        0.5184  -20.5567  -42.7748 H         1 UNK         0.0600 
    148 H148       -0.8525  -20.9508  -41.7393 H         1 UNK         0.0600 
    149 H149       -1.6464  -19.6732  -43.8195 H         1 UNK         0.3000 
    150 H150       -3.9664  -19.5525  -46.5438 H         1 UNK         0.0600 
    151 H151       -5.4087  -19.7639  -44.5182 H         1 UNK         0.0600 
    152 H152       -5.1973  -18.0809  -44.9783 H         1 UNK         0.0600 
    153 H153       -4.3040  -18.7385  -43.6092 H         1 UNK         0.0600 
    154 H154       -2.7207  -17.4688  -45.0668 H         1 UNK         0.3000 
    155 H155        0.3084  -17.3147  -47.0004 H         1 UNK         0.0600 
    156 H156       -2.2226  -15.6021  -46.8610 H         1 UNK         0.0600 
    157 H157       -0.6143  -14.8994  -46.9770 H         1 UNK         0.0600 
    158 H158       -1.2227  -15.9382  -48.2585 H         1 UNK         0.0600 
    159 H159       -0.5171  -15.8216  -44.7349 H         1 UNK         0.3000 
    160 H160        0.4289  -18.1615  -42.2033 H         1 UNK         0.0600 
    161 H161        1.8130  -15.5699  -43.0059 H         1 UNK         0.0600 
    162 H162        2.6042  -17.1199  -42.7181 H         1 UNK         0.0600 
    163 H163        1.8166  -16.2766  -41.3918 H         1 UNK         0.0600 
    164 H164       -0.5468  -15.4034  -42.3849 H         1 UNK         0.3000 
    165 H165       -3.9472  -16.3199  -41.8433 H         1 UNK         0.0600 
    166 H166       -3.6792  -14.7205  -39.9667 H         1 UNK         0.0600 
    167 H167       -2.9327  -16.2571  -39.5583 H         1 UNK         0.0600 
    168 H168       -1.9249  -14.8936  -40.0294 H         1 UNK         0.0600 
    169 H169       -2.6377  -13.7939  -42.1434 H         1 UNK         0.3000 
    170 H170       -2.6898  -13.6511  -45.6932 H         1 UNK         0.0600 
    171 H171       -5.0743  -13.2049  -45.0851 H         1 UNK         0.0600 
    172 H172       -4.5469  -12.2557  -43.7005 H         1 UNK         0.0600 
    173 H173       -4.1762  -11.7183  -45.3396 H         1 UNK         0.0600 
    174 H174       -2.1369  -11.5643  -43.9832 H         1 UNK         0.3000 
    175 H175        0.4093  -11.0581  -44.6432 H         1 UNK         0.0600 
    176 H176       -0.3517  -11.3441  -41.6901 H         1 UNK         0.0600 
    177 H177        0.5807   -9.9976  -42.3397 H         1 UNK         0.0600 
    178 H178       -1.0649  -10.2594  -42.8745 H         1 UNK         0.0600 
    179 H179        2.3985  -11.8628  -44.2698 H         1 UNK         0.3000 
    180 H180        4.2231  -11.9870  -41.9790 H         1 UNK         0.0600 
    181 H181        4.0008  -15.0323  -42.0117 H         1 UNK         0.0600 
    182 H182        3.8867  -14.0292  -40.5681 H         1 UNK         0.0600 
    183 H183        5.3796  -14.0800  -41.4874 H         1 UNK         0.0600 
    184 H184        4.1993  -13.9508  -44.2237 H         1 UNK         0.3000 
    185 H185        5.1813  -11.5241  -46.5699 H         1 UNK         0.0600 
    186 H186        7.4561  -12.0053  -45.6459 H         1 UNK         0.0600 
    187 H187        7.0395  -13.7065  -45.4758 H         1 UNK         0.0600 
    188 H188        7.1358  -12.9717  -47.0770 H         1 UNK         0.0600 
    189 H189        5.0164  -14.3784  -46.7071 H         1 UNK         0.3000 
    190 H190       -1.1763  -20.8905  -47.6811 H         1 UNK         0.3000 
    191 H191       -1.5226  -22.3682  -50.0351 H         1 UNK         0.0600 
    192 H192       -3.7830  -21.5217  -48.1501 H         1 UNK         0.0600 
    193 H193       -3.8332  -21.7232  -49.8915 H         1 UNK         0.0600 
    194 H194       -2.9341  -20.3902  -49.1867 H         1 UNK         0.0600 
    195 H195       -2.5888  -23.1887  -46.6837 H         1 UNK         0.3000 
    196 H196       -3.7639  -25.6737  -47.2617 H         1 UNK         0.0600 
    197 H197       -3.5010  -26.0971  -44.8162 H         1 UNK         0.0600 
    198 H198       -4.0842  -24.4677  -45.1216 H         1 UNK         0.0600 
    199 H199       -2.3983  -24.7332  -44.6841 H         1 UNK         0.0600 
    200 H200       -0.3535  -24.9261  -46.4346 H         1 UNK         0.3000 
    201 H201        0.6096  -27.6121  -46.4768 H         1 UNK         0.0600 
    202 H202        1.8390  -25.7464  -45.4016 H         1 UNK         0.0600 
    203 H203        2.0826  -24.9685  -46.9631 H         1 UNK         0.0600 
    204 H204        2.8450  -26.5163  -46.6201 H         1 UNK         0.0600 
    205 H205        0.2863  -25.1513  -49.0467 H         1 UNK         0.3000 
    206 H206        1.5061  -26.7451  -51.1281 H         1 UNK         0.0600 
    207 H207        1.5061  -24.2519  -51.1377 H         1 UNK         0.0600 
    208 H208        0.7175  -24.8791  -52.5767 H         1 UNK         0.0600 
    209 H209       -0.2521  -24.2367  -51.2577 H         1 UNK         0.0600 
    210 H210       -1.5520  -26.8917  -49.6638 H         1 UNK         0.3000 
    211 H211       -3.4807  -27.8963  -49.9939 H         1 UNK         0.0600 
    212 H212       -2.2723  -29.3916  -52.3794 H         1 UNK         0.0600 
    213 H213       -3.7341  -29.8158  -51.5027 H         1 UNK         0.0600 
    214 H214       -2.1764  -29.9164  -50.6985 H         1 UNK         0.0600 
    215 H215       -3.1654  -25.3488  -50.8579 H         1 UNK         0.3000 
    216 H216       -4.9606  -25.0512  -53.2337 H         1 UNK         0.0600 
    217 H217       -3.8332  -22.8453  -53.5240 H         1 UNK         0.0600 
    218 H218       -2.6341  -24.1259  -53.5786 H         1 UNK         0.0600 
    219 H219       -2.8120  -23.1472  -52.1235 H         1 UNK         0.0600 
    220 H220       -6.1171  -22.8406  -53.0055 H         1 UNK         0.3000 
    221 H221       -7.3516  -22.5635  -50.3084 H         1 UNK         0.0600 
    222 H222       -8.1248  -21.3788  -53.0325 H         1 UNK         0.0600 
    223 H223       -8.8888  -22.7768  -52.2797 H         1 UNK         0.0600 
    224 H224       -9.0254  -21.1930  -51.5332 H         1 UNK         0.0600 
    225 H225       -7.3380  -20.4742  -49.2933 H         1 UNK         0.3000 
    226 H226       -4.9520  -18.9341  -49.5969 H         1 UNK         0.0600 
    227 H227       -6.1864  -19.2406  -47.4370 H         1 UNK         0.0600 
    228 H228       -5.9440  -17.5413  -47.8102 H         1 UNK         0.0600 
    229 H229       -7.5230  -18.2774  -48.0617 H         1 UNK         0.0600 
    230 H230       -8.0641  -18.6731  -51.1240 H         1 UNK         0.3000 
    231 H231       -7.6262  -15.9083  -52.0969 H         1 UNK         0.0600 
    232 H232       -9.9595  -16.1511  -52.9098 H         1 UNK         0.0600 
    233 H233       -9.8660  -16.5554  -51.2045 H         1 UNK         0.0600 
    234 H234       -9.9891  -17.8376  -52.4094 H         1 UNK         0.0600 
    235 H235       -6.6320  -18.9906  -53.0845 H         1 UNK         0.3000 
    236 H236       -6.2214  -18.1750  -55.8559 H         1 UNK         0.0600 
    237 H237       -8.5110  -19.1393  -56.0205 H         1 UNK         0.0600 
    238 H238       -7.3416  -20.1918  -56.8004 H         1 UNK         0.0600 
    239 H239       -7.9761  -20.6122  -55.2160 H         1 UNK         0.0600 
    240 H240       -4.2459  -18.1293  -54.4909 H         1 UNK         0.3000 
    241 H241       -3.0095  -20.3247  -53.3622 H         1 UNK         0.0600 
    242 H242       -1.2445  -21.7698  -54.0014 H         1 UNK         0.3800 
    243 H243       -0.9397  -22.0824  -55.6844 H         1 UNK         0.3800 
    244 H244       -0.9300  -18.9606  -53.4290 H         1 UNK         0.0800 
    245 H245       -1.6189  -17.9119  -54.6334 H         1 UNK         0.0800 
    246 H246       -2.3315  -17.6849  -50.0996 H         1 UNK         0.0800 
    247 H247       -2.2474  -19.2228  -50.9311 H         1 UNK         0.0800 
@<TRIPOS>BOND
     1    1    2 1    
     2    1  127 1    
     3    1  128 1    
     4    1  129 1    
     5    2    3 2    
     6    2    4 am   BACKBONE|DICT|INTERRES
     7    4    5 1    
     8    4  130 1    
     9    5    6 1    
    10    5   65 1    
    11    5  131 1    
    12    6    7 1    
    13    6  132 1    
    14    6  133 1    
    15    7    8 1    
    16    8    9 1    
    17    8  134 1    
    18    8  135 1    
    19    9   10 ar   
    20    9   14 ar   
    21   10   11 ar   
    22   10  136 1    
    23   11   12 ar   
    24   11  126 1    
    25   12   13 ar   
    26   12  137 1    
    27   13   14 ar   
    28   13   15 1    
    29   14  138 1    
    30   15   16 1    
    31   15  139 1    
    32   15  140 1    
    33   16   17 1    
    34   17   18 1    
    35   17  141 1    
    36   17  142 1    
    37   18   19 1    
    38   18   67 1    
    39   18  143 1    
    40   19   20 am   BACKBONE|DICT|INTERRES
    41   19  144 1    
    42   20   21 2    
    43   20   22 1    
    44   22   23 1    
    45   22   24 1    
    46   22  145 1    
    47   23  146 1    
    48   23  147 1    
    49   23  148 1    
    50   24   25 am   BACKBONE|DICT|INTERRES
    51   24  149 1    
    52   25   26 2    
    53   25   27 1    
    54   27   28 1    
    55   27   29 1    
    56   27  150 1    
    57   28  151 1    
    58   28  152 1    
    59   28  153 1    
    60   29   30 am   BACKBONE|DICT|INTERRES
    61   29  154 1    
    62   30   31 2    
    63   30   32 1    
    64   32   33 1    
    65   32   34 1    
    66   32  155 1    
    67   33  156 1    
    68   33  157 1    
    69   33  158 1    
    70   34   35 am   BACKBONE|DICT|INTERRES
    71   34  159 1    
    72   35   36 2    
    73   35   37 1    
    74   37   38 1    
    75   37   39 1    
    76   37  160 1    
    77   38  161 1    
    78   38  162 1    
    79   38  163 1    
    80   39   40 am   BACKBONE|DICT|INTERRES
    81   39  164 1    
    82   40   41 2    
    83   40   42 1    
    84   42   43 1    
    85   42   44 1    
    86   42  165 1    
    87   43  166 1    
    88   43  167 1    
    89   43  168 1    
    90   44   45 am   BACKBONE|DICT|INTERRES
    91   44  169 1    
    92   45   46 2    
    93   45   47 1    
    94   47   48 1    
    95   47   49 1    
    96   47  170 1    
    97   48  171 1    
    98   48  172 1    
    99   48  173 1    
   100   49   50 am   BACKBONE|DICT|INTERRES
   101   49  174 1    
   102   50   51 2    
   103   50   52 1    
   104   52   53 1    
   105   52   54 1    
   106   52  175 1    
   107   53  176 1    
   108   53  177 1    
   109   53  178 1    
   110   54   55 am   BACKBONE|DICT|INTERRES
   111   54  179 1    
   112   55   56 2    
   113   55   57 1    
   114   57   58 1    
   115   57   59 1    
   116   57  180 1    
   117   58  181 1    
   118   58  182 1    
   119   58  183 1    
   120   59   60 am   BACKBONE|DICT|INTERRES
   121   59  184 1    
   122   60   61 2    
   123   60   62 1    
   124   62   63 1    
   125   62   64 1    
   126   62  185 1    
   127   63  186 1    
   128   63  187 1    
   129   63  188 1    
   130   64   65 am   BACKBONE|DICT|INTERRES
   131   64  189 1    
   132   65   66 2    
   133   67   68 2    
   134   67   69 am   BACKBONE|DICT|INTERRES
   135   69   70 1    
   136   69  190 1    
   137   70   71 1    
   138   70   72 1    
   139   70  191 1    
   140   71  192 1    
   141   71  193 1    
   142   71  194 1    
   143   72   73 2    
   144   72   74 am   BACKBONE|DICT|INTERRES
   145   74   75 1    
   146   74  195 1    
   147   75   76 1    
   148   75   77 1    
   149   75  196 1    
   150   76  197 1    
   151   76  198 1    
   152   76  199 1    
   153   77   78 2    
   154   77   79 am   BACKBONE|DICT|INTERRES
   155   79   80 1    
   156   79  200 1    
   157   80   81 1    
   158   80   82 1    
   159   80  201 1    
   160   81  202 1    
   161   81  203 1    
   162   81  204 1    
   163   82   83 2    
   164   82   84 am   BACKBONE|DICT|INTERRES
   165   84   85 1    
   166   84  205 1    
   167   85   86 1    
   168   85   87 1    
   169   85  206 1    
   170   86  207 1    
   171   86  208 1    
   172   86  209 1    
   173   87   88 2    
   174   87   89 am   BACKBONE|DICT|INTERRES
   175   89   90 1    
   176   89  210 1    
   177   90   91 1    
   178   90   92 1    
   179   90  211 1    
   180   91  212 1    
   181   91  213 1    
   182   91  214 1    
   183   92   93 2    
   184   92   94 am   BACKBONE|DICT|INTERRES
   185   94   95 1    
   186   94  215 1    
   187   95   96 1    
   188   95   97 1    
   189   95  216 1    
   190   96  217 1    
   191   96  218 1    
   192   96  219 1    
   193   97   98 2    
   194   97   99 am   BACKBONE|DICT|INTERRES
   195   99  100 1    
   196   99  220 1    
   197  100  101 1    
   198  100  102 1    
   199  100  221 1    
   200  101  222 1    
   201  101  223 1    
   202  101  224 1    
   203  102  103 2    
   204  102  104 am   BACKBONE|DICT|INTERRES
   205  104  105 1    
   206  104  225 1    
   207  105  106 1    
   208  105  107 1    
   209  105  226 1    
   210  106  227 1    
   211  106  228 1    
   212  106  229 1    
   213  107  108 2    
   214  107  109 am   BACKBONE|DICT|INTERRES
   215  109  110 1    
   216  109  230 1    
   217  110  111 1    
   218  110  112 1    
   219  110  231 1    
   220  111  232 1    
   221  111  233 1    
   222  111  234 1    
   223  112  113 2    
   224  112  114 am   BACKBONE|DICT|INTERRES
   225  114  115 1    
   226  114  235 1    
   227  115  116 1    
   228  115  117 1    
   229  115  236 1    
   230  116  237 1    
   231  116  238 1    
   232  116  239 1    
   233  117  118 2    
   234  117  119 am   BACKBONE|DICT|INTERRES
   235  119  120 1    
   236  119  240 1    
   237  120  121 1    
   238  120  124 1    
   239  120  241 1    
   240  121  122 am   BACKBONE|DICT|INTERRES
   241  121  123 2    
   242  122  242 1    
   243  122  243 1    
   244  124  125 1    
   245  124  244 1    
   246  124  245 1    
   247  125  126 1    
   248  126  246 1    
   249  126  247 1    
@<TRIPOS>SUBSTRUCTURE
     1 UNK         1 GROUP             0       ****    0 ROOT    
