@<TRIPOS>MOLECULE
3R540
247   249    1
SMALL
USER_CHARGES


@<TRIPOS>ATOM
      1 CA          4.1353  -16.7618  -46.3866 C.3       0 UNK        -0.1800 
      2 C           3.5483  -15.3836  -46.1212 C.2       0 UNK         0.5000 
      3 O           3.7204  -14.8394  -45.0322 O.2       0 UNK        -0.5000 
      4 N           2.8754  -14.8042  -47.1221 N.am      1 UNK        -0.5000 
      5 CA          2.1461  -13.5284  -47.0457 C.3       1 UNK         0.1400 
      6 C6          1.3610  -13.2306  -48.3471 C.3       23 UNK        -0.0398 
      7 S7          0.2591  -14.5993  -48.8414 S.3       23 UNK        -0.2404 
      8 C8          1.1632  -15.2705  -50.2695 C.3       23 UNK        -0.0205 
      9 C9          0.5016  -16.5350  -50.7900 C.ar      23 UNK        -0.0193 
     10 C10        -0.5597  -16.4451  -51.6925 C.ar      23 UNK        -0.1150 
     11 C11        -1.1773  -17.5987  -52.1803 C.ar      23 UNK        -0.0193 
     12 C12        -0.7161  -18.8511  -51.7621 C.ar      23 UNK        -0.1150 
     13 C13         0.3576  -18.9628  -50.8698 C.ar      23 UNK        -0.0193 
     14 C14         0.9581  -17.7927  -50.3839 C.ar      23 UNK        -0.1150 
     15 C15         0.8494  -20.3675  -50.5093 C.3       23 UNK        -0.0205 
     16 S16         2.1126  -20.4938  -49.1874 S.3       23 UNK        -0.2404 
     17 C17         1.1492  -20.1709  -47.6703 C.3       23 UNK        -0.0398 
     18 CA          0.6306  -21.4714  -47.0005 C.3       11 UNK         0.1400 
     19 N           0.3949  -21.3195  -45.5613 N.am      11 UNK        -0.5000 
     20 C           0.0250  -22.3091  -44.7324 C.2       10 UNK         0.5000 
     21 O          -0.0791  -23.4871  -45.0739 O.2       10 UNK        -0.5000 
     22 CA         -0.3572  -21.9114  -43.2949 C.3       10 UNK         0.1400 
     23 CB          0.8915  -21.7464  -42.4170 C.3       10 UNK        -0.1800 
     24 N          -1.1691  -20.6941  -43.2504 N.am      10 UNK        -0.5000 
     25 C          -2.3902  -20.5816  -43.7938 C.2       9 UNK         0.5000 
     26 O          -2.9879  -21.5166  -44.3271 O.2       9 UNK        -0.5000 
     27 CA         -3.0299  -19.1812  -43.7909 C.3       9 UNK         0.1400 
     28 CB         -3.6992  -18.8828  -42.4414 C.3       9 UNK        -0.1800 
     29 N          -2.0720  -18.1228  -44.1132 N.am      9 UNK        -0.5000 
     30 C          -1.4320  -18.0058  -45.2861 C.2       8 UNK         0.5000 
     31 O          -1.6142  -18.7585  -46.2423 O.2       8 UNK        -0.5000 
     32 CA         -0.3751  -16.8907  -45.3869 C.3       8 UNK         0.1400 
     33 CB         -1.0605  -15.5303  -45.5839 C.3       8 UNK        -0.1800 
     34 N           0.4981  -16.8511  -44.2100 N.am      8 UNK        -0.5000 
     35 C           1.2975  -17.8569  -43.8236 C.2       7 UNK         0.5000 
     36 O           1.4568  -18.8849  -44.4796 O.2       7 UNK        -0.5000 
     37 CA          1.9785  -17.7354  -42.4477 C.3       7 UNK         0.1400 
     38 CB          3.3236  -17.0029  -42.5304 C.3       7 UNK        -0.1800 
     39 N           1.1189  -17.0754  -41.4680 N.am      7 UNK        -0.5000 
     40 C           0.0313  -17.6359  -40.9221 C.2       6 UNK         0.5000 
     41 O          -0.3278  -18.7908  -41.1490 O.2       6 UNK        -0.5000 
     42 CA         -0.8192  -16.7356  -40.0069 C.3       6 UNK         0.1400 
     43 CB         -0.2543  -16.7271  -38.5788 C.3       6 UNK        -0.1800 
     44 N          -0.8996  -15.3611  -40.5053 N.am      6 UNK        -0.5000 
     45 C          -1.5256  -15.0037  -41.6362 C.2       5 UNK         0.5000 
     46 O          -2.1700  -15.7893  -42.3296 O.2       5 UNK        -0.5000 
     47 CA         -1.3585  -13.5402  -42.0931 C.3       5 UNK         0.1400 
     48 CB         -2.4783  -12.6632  -41.5145 C.3       5 UNK        -0.1800 
     49 N          -0.0566  -12.9766  -41.7210 N.am      5 UNK        -0.5000 
     50 C           1.1162  -13.3932  -42.2168 C.2       4 UNK         0.5000 
     51 O           1.2178  -14.2484  -43.0975 O.2       4 UNK        -0.5000 
     52 CA          2.3730  -12.8283  -41.5436 C.3       4 UNK         0.1400 
     53 CB          2.5800  -13.5233  -40.1795 C.3       4 UNK        -0.1800 
     54 N           3.5477  -13.0268  -42.3932 N.am      4 UNK        -0.5000 
     55 C           4.7439  -12.4640  -42.1709 C.2       3 UNK         0.5000 
     56 O           4.9612  -11.6556  -41.2669 O.2       3 UNK        -0.5000 
     57 CA          5.8942  -12.8583  -43.1084 C.3       3 UNK         0.1400 
     58 CB          6.3072  -14.3257  -42.9041 C.3       3 UNK        -0.1800 
     59 N           5.5401  -12.6281  -44.5058 N.am      3 UNK        -0.5000 
     60 C           5.7510  -11.4746  -45.1567 C.2       2 UNK         0.5000 
     61 O           6.2720  -10.4860  -44.6381 O.2       2 UNK        -0.5000 
     62 CA          5.3361  -11.4033  -46.6404 C.3       2 UNK         0.1400 
     63 CB          6.5614  -11.5904  -47.5487 C.3       2 UNK        -0.1800 
     64 N           4.3262  -12.3949  -47.0055 N.am      2 UNK        -0.5000 
     65 C           3.0312  -12.3206  -46.6713 C.2       1 UNK         0.5000 
     66 O           2.5330  -11.3620  -46.0800 O.2       1 UNK        -0.5000 
     67 C          -0.6272  -21.9935  -47.7172 C.2       11 UNK         0.5000 
     68 O          -0.5422  -22.9818  -48.4443 O.2       11 UNK        -0.5000 
     69 N          -1.7727  -21.3398  -47.4757 N.am      12 UNK        -0.5000 
     70 CA         -3.0678  -21.6960  -48.0508 C.3       12 UNK         0.1400 
     71 CB         -4.1277  -20.6648  -47.6406 C.3       12 UNK        -0.1800 
     72 C          -3.5165  -23.1234  -47.6956 C.2       12 UNK         0.5000 
     73 O          -4.0134  -23.8312  -48.5726 O.2       12 UNK        -0.5000 
     74 N          -3.2959  -23.5301  -46.4388 N.am      13 UNK        -0.5000 
     75 CA         -3.5347  -24.8870  -45.9531 C.3       13 UNK         0.1400 
     76 CB         -3.3947  -24.9198  -44.4235 C.3       13 UNK        -0.1800 
     77 C          -2.6068  -25.9199  -46.6184 C.2       13 UNK         0.5000 
     78 O          -3.0956  -26.9283  -47.1292 O.2       13 UNK        -0.5000 
     79 N          -1.2953  -25.6385  -46.6328 N.am      14 UNK        -0.5000 
     80 CA         -0.2600  -26.4974  -47.2172 C.3       14 UNK         0.1400 
     81 CB          1.1265  -25.9244  -46.8870 C.3       14 UNK        -0.1800 
     82 C          -0.4127  -26.6965  -48.7367 C.2       14 UNK         0.5000 
     83 O          -0.1898  -27.8011  -49.2332 O.2       14 UNK        -0.5000 
     84 N          -0.8211  -25.6332  -49.4388 N.am      15 UNK        -0.5000 
     85 CA         -1.0976  -25.6209  -50.8751 C.3       15 UNK         0.1400 
     86 CB         -0.9292  -24.1834  -51.3906 C.3       15 UNK        -0.1800 
     87 C          -2.4838  -26.1893  -51.2485 C.2       15 UNK         0.5000 
     88 O          -2.8114  -26.2015  -52.4346 O.2       15 UNK        -0.5000 
     89 N          -3.2663  -26.6434  -50.2560 N.am      16 UNK        -0.5000 
     90 CA         -4.5998  -27.2422  -50.3709 C.3       16 UNK         0.1400 
     91 CB         -4.5415  -28.5781  -51.1409 C.3       16 UNK        -0.1800 
     92 C          -5.6213  -26.2516  -50.9603 C.2       16 UNK         0.5000 
     93 O          -5.9948  -26.3574  -52.1299 O.2       16 UNK        -0.5000 
     94 N          -6.0172  -25.2807  -50.1266 N.am      17 UNK        -0.5000 
     95 CA         -6.8876  -24.1414  -50.4359 C.3       17 UNK         0.1400 
     96 CB         -8.2930  -24.5960  -50.8843 C.3       17 UNK        -0.1800 
     97 C          -6.2095  -23.1699  -51.4197 C.2       17 UNK         0.5000 
     98 O          -6.8138  -22.7548  -52.4108 O.2       17 UNK        -0.5000 
     99 N          -4.9374  -22.8563  -51.1271 N.am      18 UNK        -0.5000 
    100 CA        -4.0655  -21.9185  -51.8468 C.3       18 UNK         0.1400 
    101 CB        -4.5727  -20.4768  -51.6534 C.3       18 UNK        -0.1800 
    102 C         -3.8467  -22.2794  -53.3310 C.2       18 UNK         0.5000 
    103 O         -3.6011  -21.3911  -54.1463 O.2       18 UNK        -0.5000 
    104 N         -3.9811  -23.5733  -53.6633 N.am      19 UNK        -0.5000 
    105 CA        -3.9731  -24.1503  -55.0127 C.3       19 UNK         0.1400 
    106 CB        -2.5579  -24.0748  -55.6220 C.3       19 UNK        -0.1800 
    107 C         -5.0576  -23.5514  -55.9399 C.2       19 UNK         0.5000 
    108 O         -4.8780  -23.5296  -57.1585 O.2       19 UNK        -0.5000 
    109 N         -6.1499  -23.0523  -55.3374 N.am      20 UNK        -0.5000 
    110 CA        -7.2532  -22.3005  -55.9448 C.3       20 UNK         0.1400 
    111 CB        -8.0154  -23.1608  -56.9745 C.3       20 UNK        -0.1800 
    112 C         -6.8479  -20.9167  -56.5059 C.2       20 UNK         0.5000 
    113 O         -7.6287  -20.3163  -57.2473 O.2       20 UNK        -0.5000 
    114 N         -5.6617  -20.4166  -56.1348 N.am      21 UNK        -0.5000 
    115 CA        -5.1859  -19.0682  -56.4370 C.3       21 UNK         0.1400 
    116 CB        -3.6713  -19.1303  -56.7025 C.3       21 UNK        -0.1800 
    117 C         -5.5066  -18.1129  -55.2714 C.2       21 UNK         0.5000 
    118 O         -5.9508  -18.5605  -54.2118 O.2       21 UNK        -0.5000 
    119 N         -5.2590  -16.8155  -55.5011 N.am      22 UNK        -0.5000 
    120 CA        -5.4520  -15.6869  -54.5714 C.3       22 UNK         0.1400 
    121 C         -6.8467  -15.6364  -53.8697 C.2       22 UNK         0.5000 
    122 N         -6.9324  -15.3026  -52.5884 N.am      22 UNK        -0.7600 
    123 O         -7.8751  -15.8336  -54.5137 O.2       22 UNK        -0.5000 
    124 C124       -4.2105  -15.4098  -53.6690 C.3       23 UNK        -0.0398 
    125 S125       -3.7907  -16.7039  -52.4443 S.3       23 UNK        -0.2404 
    126 C126       -2.3156  -17.4823  -53.1847 C.3       23 UNK        -0.0205 
    127 H127        3.6116  -17.5129  -45.7968 H         1 UNK         0.0600 
    128 H128        5.1887  -16.7809  -46.1076 H         1 UNK         0.0600 
    129 H129        4.0560  -17.0404  -47.4377 H         1 UNK         0.0600 
    130 H130        2.7669  -15.3060  -47.9901 H         1 UNK         0.3000 
    131 H131        1.4286  -13.6290  -46.2319 H         1 UNK         0.0600 
    132 H132        0.7396  -12.3428  -48.2155 H         1 UNK         0.0800 
    133 H133        2.0443  -12.9999  -49.1665 H         1 UNK         0.0800 
    134 H134        2.1979  -15.4763  -49.9930 H         1 UNK         0.0800 
    135 H135        1.1997  -14.5193  -51.0602 H         1 UNK         0.0800 
    136 H136       -0.9108  -15.4741  -52.0130 H         1 UNK         0.1150 
    137 H137       -1.1825  -19.7460  -52.1504 H         1 UNK         0.1150 
    138 H138        1.7908  -17.8464  -49.6987 H         1 UNK         0.1150 
    139 H139       -0.0060  -20.9933  -50.2578 H         1 UNK         0.0800 
    140 H140        1.2802  -20.8056  -51.4105 H         1 UNK         0.0800 
    141 H141        0.3459  -19.4627  -47.8796 H         1 UNK         0.0800 
    142 H142        1.8251  -19.6530  -46.9894 H         1 UNK         0.0800 
    143 H143        1.4035  -22.2369  -47.0972 H         1 UNK         0.0600 
    144 H144        0.5138  -20.3852  -45.1790 H         1 UNK         0.3000 
    145 H145       -0.9573  -22.7217  -42.8757 H         1 UNK         0.0600 
    146 H146        0.6233  -21.4912  -41.3917 H         1 UNK         0.0600 
    147 H147        1.4660  -22.6728  -42.3826 H         1 UNK         0.0600 
    148 H148        1.5524  -20.9677  -42.7952 H         1 UNK         0.0600 
    149 H149       -0.7712  -19.8940  -42.7694 H         1 UNK         0.3000 
    150 H150       -3.8043  -19.1700  -44.5604 H         1 UNK         0.0600 
    151 H151       -4.4452  -19.6411  -42.2004 H         1 UNK         0.0600 
    152 H152       -4.2082  -17.9189  -42.4591 H         1 UNK         0.0600 
    153 H153       -2.9764  -18.8630  -41.6261 H         1 UNK         0.0600 
    154 H154       -1.9071  -17.4224  -43.3964 H         1 UNK         0.3000 
    155 H155        0.2531  -17.0880  -46.2582 H         1 UNK         0.0600 
    156 H156       -1.8256  -15.3413  -44.8332 H         1 UNK         0.0600 
    157 H157       -1.5519  -15.4863  -46.5562 H         1 UNK         0.0600 
    158 H158       -0.3478  -14.7109  -45.5378 H         1 UNK         0.0600 
    159 H159        0.4972  -15.9960  -43.6635 H         1 UNK         0.3000 
    160 H160        2.1805  -18.7485  -42.0948 H         1 UNK         0.0600 
    161 H161        3.1926  -15.9498  -42.7692 H         1 UNK         0.0600 
    162 H162        3.9653  -17.4393  -43.2965 H         1 UNK         0.0600 
    163 H163        3.8613  -17.0616  -41.5841 H         1 UNK         0.0600 
    164 H164        1.3193  -16.1080  -41.2686 H         1 UNK         0.3000 
    165 H165       -1.8294  -17.1493  -39.9747 H         1 UNK         0.0600 
    166 H166       -0.8889  -16.1480  -37.9076 H         1 UNK         0.0600 
    167 H167       -0.1966  -17.7395  -38.1768 H         1 UNK         0.0600 
    168 H168        0.7494  -16.3016  -38.5429 H         1 UNK         0.0600 
    169 H169       -0.4106  -14.6533  -39.9788 H         1 UNK         0.3000 
    170 H170       -1.4376  -13.5206  -43.1819 H         1 UNK         0.0600 
    171 H171       -3.4595  -13.0482  -41.7960 H         1 UNK         0.0600 
    172 H172       -2.4404  -12.6259  -40.4251 H         1 UNK         0.0600 
    173 H173       -2.4122  -11.6415  -41.8888 H         1 UNK         0.0600 
    174 H174       -0.0625  -12.2708  -40.9984 H         1 UNK         0.3000 
    175 H175        2.2248  -11.7570  -41.3935 H         1 UNK         0.0600 
    176 H176        2.7931  -14.5861  -40.3000 H         1 UNK         0.0600 
    177 H177        3.4068  -13.0824  -39.6234 H         1 UNK         0.0600 
    178 H178        1.6969  -13.4339  -39.5461 H         1 UNK         0.0600 
    179 H179        3.4132  -13.6548  -43.1812 H         1 UNK         0.3000 
    180 H180        6.7597  -12.2445  -42.8490 H         1 UNK         0.0600 
    181 H181        5.4993  -15.0185  -43.1355 H         1 UNK         0.0600 
    182 H182        6.6022  -14.5049  -41.8695 H         1 UNK         0.0600 
    183 H183        7.1580  -14.5850  -43.5341 H         1 UNK         0.0600 
    184 H184        5.0309  -13.3759  -44.9656 H         1 UNK         0.3000 
    185 H185        4.9273  -10.4068  -46.8211 H         1 UNK         0.0600 
    186 H186        7.3286  -10.8468  -47.3285 H         1 UNK         0.0600 
    187 H187        7.0122  -12.5752  -47.4188 H         1 UNK         0.0600 
    188 H188        6.2947  -11.4781  -48.5998 H         1 UNK         0.0600 
    189 H189        4.6515  -13.2226  -47.4832 H         1 UNK         0.3000 
    190 H190       -1.7486  -20.5100  -46.8868 H         1 UNK         0.3000 
    191 H191       -2.9543  -21.6471  -49.1328 H         1 UNK         0.0600 
    192 H192       -4.2728  -20.6428  -46.5608 H         1 UNK         0.0600 
    193 H193       -5.0917  -20.8934  -48.0970 H         1 UNK         0.0600 
    194 H194       -3.8453  -19.6615  -47.9607 H         1 UNK         0.0600 
    195 H195       -2.9324  -22.8603  -45.7669 H         1 UNK         0.3000 
    196 H196       -4.5635  -25.1549  -46.2026 H         1 UNK         0.0600 
    197 H197       -3.5841  -25.9211  -44.0348 H         1 UNK         0.0600 
    198 H198       -4.1083  -24.2456  -43.9496 H         1 UNK         0.0600 
    199 H199       -2.3957  -24.6249  -44.1016 H         1 UNK         0.0600 
    200 H200       -0.9697  -24.7859  -46.1841 H         1 UNK         0.3000 
    201 H201       -0.3422  -27.4794  -46.7473 H         1 UNK         0.0600 
    202 H202        1.2839  -25.8705  -45.8097 H         1 UNK         0.0600 
    203 H203        1.2527  -24.9202  -47.2938 H         1 UNK         0.0600 
    204 H204        1.9185  -26.5499  -47.3006 H         1 UNK         0.0600 
    205 H205       -0.9160  -24.7417  -48.9564 H         1 UNK         0.3000 
    206 H206       -0.3568  -26.2443  -51.3796 H         1 UNK         0.0600 
    207 H207        0.0902  -23.8286  -51.2371 H         1 UNK         0.0600 
    208 H208       -1.1421  -24.1080  -52.4575 H         1 UNK         0.0600 
    209 H209       -1.5964  -23.5037  -50.8654 H         1 UNK         0.0600 
    210 H210       -2.9150  -26.5641  -49.3095 H         1 UNK         0.3000 
    211 H211       -4.9239  -27.4705  -49.3542 H         1 UNK         0.0600 
    212 H212       -4.2302  -28.4443  -52.1772 H         1 UNK         0.0600 
    213 H213       -5.5204  -29.0584  -51.1560 H         1 UNK         0.0600 
    214 H214       -3.8455  -29.2723  -50.6699 H         1 UNK         0.0600 
    215 H215       -5.5604  -25.2277  -49.2238 H         1 UNK         0.3000 
    216 H216       -7.0079  -23.5901  -49.5021 H         1 UNK         0.0600 
    217 H217       -8.9662  -23.7423  -50.9693 H         1 UNK         0.0600 
    218 H218       -8.7329  -25.2857  -50.1641 H         1 UNK         0.0600 
    219 H219       -8.2752  -25.0901  -51.8558 H         1 UNK         0.0600 
    220 H220       -4.5386  -23.2862  -50.2958 H         1 UNK         0.3000 
    221 H221       -3.0829  -21.9738  -51.3849 H         1 UNK         0.0600 
    222 H222       -5.5304  -20.3159  -52.1489 H         1 UNK         0.0600 
    223 H223       -4.6971  -20.2355  -50.5984 H         1 UNK         0.0600 
    224 H224       -3.8689  -19.7552  -52.0649 H         1 UNK         0.0600 
    225 H225       -4.1750  -24.2355  -52.9235 H         1 UNK         0.3000 
    226 H226       -4.2263  -25.2045  -54.8914 H         1 UNK         0.0600 
    227 H227       -1.8189  -24.5146  -54.9522 H         1 UNK         0.0600 
    228 H228       -2.5062  -24.6231  -56.5632 H         1 UNK         0.0600 
    229 H229       -2.2584  -23.0463  -55.8254 H         1 UNK         0.0600 
    230 H230       -6.1928  -23.1031  -54.3237 H         1 UNK         0.3000 
    231 H231       -7.9424  -22.0909  -55.1256 H         1 UNK         0.0600 
    232 H232       -8.2921  -24.1275  -56.5537 H         1 UNK         0.0600 
    233 H233       -7.4238  -23.3408  -57.8722 H         1 UNK         0.0600 
    234 H234       -8.9375  -22.6699  -57.2875 H         1 UNK         0.0600 
    235 H235       -5.0958  -20.9343  -55.4704 H         1 UNK         0.3000 
    236 H236       -5.6777  -18.6903  -57.3356 H         1 UNK         0.0600 
    237 H237       -3.1149  -19.4176  -55.8106 H         1 UNK         0.0600 
    238 H238       -3.4387  -19.8514  -57.4864 H         1 UNK         0.0600 
    239 H239       -3.2864  -18.1638  -57.0288 H         1 UNK         0.0600 
    240 H240       -4.9232  -16.5555  -56.4169 H         1 UNK         0.3000 
    241 H241       -5.5030  -14.8248  -55.2377 H         1 UNK         0.0600 
    242 H242       -7.8405  -15.2496  -52.1541 H         1 UNK         0.3800 
    243 H243       -6.1042  -15.1690  -52.0295 H         1 UNK         0.3800 
    244 H244       -3.3474  -15.2197  -54.3065 H         1 UNK         0.0800 
    245 H245       -4.3506  -14.4743  -53.1257 H         1 UNK         0.0800 
    246 H246       -1.9590  -16.9162  -54.0450 H         1 UNK         0.0800 
    247 H247       -2.5956  -18.4633  -53.5707 H         1 UNK         0.0800 
@<TRIPOS>BOND
     1    1    2 1    
     2    1  127 1    
     3    1  128 1    
     4    1  129 1    
     5    2    3 2    
     6    2    4 am   BACKBONE|DICT|INTERRES
     7    4    5 1    
     8    4  130 1    
     9    5    6 1    
    10    5   65 1    
    11    5  131 1    
    12    6    7 1    
    13    6  132 1    
    14    6  133 1    
    15    7    8 1    
    16    8    9 1    
    17    8  134 1    
    18    8  135 1    
    19    9   10 ar   
    20    9   14 ar   
    21   10   11 ar   
    22   10  136 1    
    23   11   12 ar   
    24   11  126 1    
    25   12   13 ar   
    26   12  137 1    
    27   13   14 ar   
    28   13   15 1    
    29   14  138 1    
    30   15   16 1    
    31   15  139 1    
    32   15  140 1    
    33   16   17 1    
    34   17   18 1    
    35   17  141 1    
    36   17  142 1    
    37   18   19 1    
    38   18   67 1    
    39   18  143 1    
    40   19   20 am   BACKBONE|DICT|INTERRES
    41   19  144 1    
    42   20   21 2    
    43   20   22 1    
    44   22   23 1    
    45   22   24 1    
    46   22  145 1    
    47   23  146 1    
    48   23  147 1    
    49   23  148 1    
    50   24   25 am   BACKBONE|DICT|INTERRES
    51   24  149 1    
    52   25   26 2    
    53   25   27 1    
    54   27   28 1    
    55   27   29 1    
    56   27  150 1    
    57   28  151 1    
    58   28  152 1    
    59   28  153 1    
    60   29   30 am   BACKBONE|DICT|INTERRES
    61   29  154 1    
    62   30   31 2    
    63   30   32 1    
    64   32   33 1    
    65   32   34 1    
    66   32  155 1    
    67   33  156 1    
    68   33  157 1    
    69   33  158 1    
    70   34   35 am   BACKBONE|DICT|INTERRES
    71   34  159 1    
    72   35   36 2    
    73   35   37 1    
    74   37   38 1    
    75   37   39 1    
    76   37  160 1    
    77   38  161 1    
    78   38  162 1    
    79   38  163 1    
    80   39   40 am   BACKBONE|DICT|INTERRES
    81   39  164 1    
    82   40   41 2    
    83   40   42 1    
    84   42   43 1    
    85   42   44 1    
    86   42  165 1    
    87   43  166 1    
    88   43  167 1    
    89   43  168 1    
    90   44   45 am   BACKBONE|DICT|INTERRES
    91   44  169 1    
    92   45   46 2    
    93   45   47 1    
    94   47   48 1    
    95   47   49 1    
    96   47  170 1    
    97   48  171 1    
    98   48  172 1    
    99   48  173 1    
   100   49   50 am   BACKBONE|DICT|INTERRES
   101   49  174 1    
   102   50   51 2    
   103   50   52 1    
   104   52   53 1    
   105   52   54 1    
   106   52  175 1    
   107   53  176 1    
   108   53  177 1    
   109   53  178 1    
   110   54   55 am   BACKBONE|DICT|INTERRES
   111   54  179 1    
   112   55   56 2    
   113   55   57 1    
   114   57   58 1    
   115   57   59 1    
   116   57  180 1    
   117   58  181 1    
   118   58  182 1    
   119   58  183 1    
   120   59   60 am   BACKBONE|DICT|INTERRES
   121   59  184 1    
   122   60   61 2    
   123   60   62 1    
   124   62   63 1    
   125   62   64 1    
   126   62  185 1    
   127   63  186 1    
   128   63  187 1    
   129   63  188 1    
   130   64   65 am   BACKBONE|DICT|INTERRES
   131   64  189 1    
   132   65   66 2    
   133   67   68 2    
   134   67   69 am   BACKBONE|DICT|INTERRES
   135   69   70 1    
   136   69  190 1    
   137   70   71 1    
   138   70   72 1    
   139   70  191 1    
   140   71  192 1    
   141   71  193 1    
   142   71  194 1    
   143   72   73 2    
   144   72   74 am   BACKBONE|DICT|INTERRES
   145   74   75 1    
   146   74  195 1    
   147   75   76 1    
   148   75   77 1    
   149   75  196 1    
   150   76  197 1    
   151   76  198 1    
   152   76  199 1    
   153   77   78 2    
   154   77   79 am   BACKBONE|DICT|INTERRES
   155   79   80 1    
   156   79  200 1    
   157   80   81 1    
   158   80   82 1    
   159   80  201 1    
   160   81  202 1    
   161   81  203 1    
   162   81  204 1    
   163   82   83 2    
   164   82   84 am   BACKBONE|DICT|INTERRES
   165   84   85 1    
   166   84  205 1    
   167   85   86 1    
   168   85   87 1    
   169   85  206 1    
   170   86  207 1    
   171   86  208 1    
   172   86  209 1    
   173   87   88 2    
   174   87   89 am   BACKBONE|DICT|INTERRES
   175   89   90 1    
   176   89  210 1    
   177   90   91 1    
   178   90   92 1    
   179   90  211 1    
   180   91  212 1    
   181   91  213 1    
   182   91  214 1    
   183   92   93 2    
   184   92   94 am   BACKBONE|DICT|INTERRES
   185   94   95 1    
   186   94  215 1    
   187   95   96 1    
   188   95   97 1    
   189   95  216 1    
   190   96  217 1    
   191   96  218 1    
   192   96  219 1    
   193   97   98 2    
   194   97   99 am   BACKBONE|DICT|INTERRES
   195   99  100 1    
   196   99  220 1    
   197  100  101 1    
   198  100  102 1    
   199  100  221 1    
   200  101  222 1    
   201  101  223 1    
   202  101  224 1    
   203  102  103 2    
   204  102  104 am   BACKBONE|DICT|INTERRES
   205  104  105 1    
   206  104  225 1    
   207  105  106 1    
   208  105  107 1    
   209  105  226 1    
   210  106  227 1    
   211  106  228 1    
   212  106  229 1    
   213  107  108 2    
   214  107  109 am   BACKBONE|DICT|INTERRES
   215  109  110 1    
   216  109  230 1    
   217  110  111 1    
   218  110  112 1    
   219  110  231 1    
   220  111  232 1    
   221  111  233 1    
   222  111  234 1    
   223  112  113 2    
   224  112  114 am   BACKBONE|DICT|INTERRES
   225  114  115 1    
   226  114  235 1    
   227  115  116 1    
   228  115  117 1    
   229  115  236 1    
   230  116  237 1    
   231  116  238 1    
   232  116  239 1    
   233  117  118 2    
   234  117  119 am   BACKBONE|DICT|INTERRES
   235  119  120 1    
   236  119  240 1    
   237  120  121 1    
   238  120  124 1    
   239  120  241 1    
   240  121  122 am   BACKBONE|DICT|INTERRES
   241  121  123 2    
   242  122  242 1    
   243  122  243 1    
   244  124  125 1    
   245  124  244 1    
   246  124  245 1    
   247  125  126 1    
   248  126  246 1    
   249  126  247 1    
@<TRIPOS>SUBSTRUCTURE
     1 UNK         1 GROUP             0       ****    0 ROOT    
