@<TRIPOS>MOLECULE
3R540
247   249    1
SMALL
USER_CHARGES


@<TRIPOS>ATOM
      1 CA         -8.0042  -15.0389  -50.8672 C.3       0 UNK        -0.1800 
      2 C          -6.7609  -14.3126  -50.3729 C.2       0 UNK         0.5000 
      3 O          -6.8440  -13.1498  -49.9760 O.2       0 UNK        -0.5000 
      4 N          -5.6102  -14.9922  -50.4051 N.am      1 UNK        -0.5000 
      5 CA         -4.3210  -14.5097  -49.9065 C.3       1 UNK         0.1400 
      6 C6         -3.1677  -15.3485  -50.5148 C.3       23 UNK        -0.0398 
      7 S7         -1.5866  -14.4447  -50.6246 S.3       23 UNK        -0.2404 
      8 C8         -0.5389  -15.3566  -49.4516 C.3       23 UNK        -0.0205 
      9 C9          0.1771  -16.5373  -50.0876 C.ar      23 UNK        -0.0193 
     10 C10         1.3759  -16.3260  -50.7728 C.ar      23 UNK        -0.1150 
     11 C11         2.0727  -17.3957  -51.3448 C.ar      23 UNK        -0.0193 
     12 C12         1.5622  -18.6888  -51.2006 C.ar      23 UNK        -0.1150 
     13 C13         0.3690  -18.9195  -50.5103 C.ar      23 UNK        -0.0193 
     14 C14        -0.3241  -17.8376  -49.9579 C.ar      23 UNK        -0.1150 
     15 C15        -0.1581  -20.3409  -50.3733 C.3       23 UNK        -0.0205 
     16 S16         0.4477  -21.1425  -48.8562 S.3       23 UNK        -0.2404 
     17 C17        -0.8484  -20.7185  -47.6450 C.3       23 UNK        -0.0398 
     18 CA         -1.2385  -21.9538  -46.7987 C.3       11 UNK         0.1400 
     19 N          -0.1551  -22.3570  -45.8982 N.am      11 UNK        -0.5000 
     20 C          -0.0753  -23.5368  -45.2700 C.2       10 UNK         0.5000 
     21 O          -1.0180  -24.3224  -45.1700 O.2       10 UNK        -0.5000 
     22 CA          1.2970  -23.9000  -44.6731 C.3       10 UNK         0.1400 
     23 CB          2.4623  -23.5522  -45.6183 C.3       10 UNK        -0.1800 
     24 N           1.4831  -23.2078  -43.4049 N.am      10 UNK        -0.5000 
     25 C           1.0524  -23.6665  -42.2236 C.2       9 UNK         0.5000 
     26 O           0.6287  -24.8080  -42.0461 O.2       9 UNK        -0.5000 
     27 CA          1.0837  -22.6872  -41.0335 C.3       9 UNK         0.1400 
     28 CB          2.3126  -22.9554  -40.1515 C.3       9 UNK        -0.1800 
     29 N           1.0678  -21.2660  -41.3920 N.am      9 UNK        -0.5000 
     30 C           0.1602  -20.6293  -42.1414 C.2       8 UNK         0.5000 
     31 O          -0.7625  -21.1977  -42.7235 O.2       8 UNK        -0.5000 
     32 CA          0.3245  -19.1075  -42.3089 C.3       8 UNK         0.1400 
     33 CB         -0.2760  -18.3386  -41.1192 C.3       8 UNK        -0.1800 
     34 N           1.6924  -18.6645  -42.6080 N.am      8 UNK        -0.5000 
     35 C           2.7965  -18.7327  -41.8478 C.2       7 UNK         0.5000 
     36 O           2.8032  -19.1792  -40.6994 O.2       7 UNK        -0.5000 
     37 CA          4.1158  -18.2251  -42.4681 C.3       7 UNK         0.1400 
     38 CB          5.3324  -19.0657  -42.0270 C.3       7 UNK        -0.1800 
     39 N           4.0805  -18.0833  -43.9288 N.am      7 UNK        -0.5000 
     40 C           3.9419  -19.0479  -44.8536 C.2       6 UNK         0.5000 
     41 O           3.8075  -20.2407  -44.5772 O.2       6 UNK        -0.5000 
     42 CA          3.9135  -18.5945  -46.3293 C.3       6 UNK         0.1400 
     43 CB          2.9506  -19.4475  -47.1691 C.3       6 UNK        -0.1800 
     44 N           3.4966  -17.1975  -46.4358 N.am      6 UNK        -0.5000 
     45 C           4.2866  -16.1587  -46.7362 C.2       5 UNK         0.5000 
     46 O           5.4753  -16.2648  -47.0380 O.2       5 UNK        -0.5000 
     47 CA          3.6474  -14.7557  -46.6514 C.3       5 UNK         0.1400 
     48 CB          3.1925  -14.2974  -48.0442 C.3       5 UNK        -0.1800 
     49 N           2.5069  -14.6878  -45.7303 N.am      5 UNK        -0.5000 
     50 C           2.5742  -14.8882  -44.4060 C.2       4 UNK         0.5000 
     51 O           3.6285  -15.0864  -43.8024 O.2       4 UNK        -0.5000 
     52 CA          1.2425  -14.9412  -43.6311 C.3       4 UNK         0.1400 
     53 CB          0.9306  -13.5736  -43.0070 C.3       4 UNK        -0.1800 
     54 N           0.0878  -15.3725  -44.4251 N.am      4 UNK        -0.5000 
     55 C          -0.0433  -16.5265  -45.0909 C.2       3 UNK         0.5000 
     56 O           0.8490  -17.3731  -45.1550 O.2       3 UNK        -0.5000 
     57 CA         -1.3680  -16.7776  -45.8410 C.3       3 UNK         0.1400 
     58 CB         -2.2877  -17.7144  -45.0416 C.3       3 UNK        -0.1800 
     59 N          -2.0879  -15.5674  -46.2681 N.am      3 UNK        -0.5000 
     60 C          -2.6883  -14.6141  -45.5432 C.2       2 UNK         0.5000 
     61 O          -2.7025  -14.5993  -44.3129 O.2       2 UNK        -0.5000 
     62 CA         -3.3257  -13.4437  -46.3234 C.3       2 UNK         0.1400 
     63 CB         -2.5208  -12.1551  -46.0888 C.3       2 UNK        -0.1800 
     64 N          -3.4406  -13.6590  -47.7729 N.am      2 UNK        -0.5000 
     65 C          -4.3004  -14.5027  -48.3593 C.2       1 UNK         0.5000 
     66 O          -5.0406  -15.2578  -47.7250 O.2       1 UNK        -0.5000 
     67 C          -2.6201  -21.7685  -46.1406 C.2       11 UNK         0.5000 
     68 O          -3.6162  -21.9257  -46.8492 O.2       11 UNK        -0.5000 
     69 N          -2.6888  -21.4585  -44.8375 N.am      12 UNK        -0.5000 
     70 CA         -3.9636  -21.3617  -44.1182 C.3       12 UNK         0.1400 
     71 CB         -3.8287  -20.4490  -42.8883 C.3       12 UNK        -0.1800 
     72 C          -4.4753  -22.7489  -43.6975 C.2       12 UNK         0.5000 
     73 O          -5.6782  -22.9983  -43.7708 O.2       12 UNK        -0.5000 
     74 N          -3.5544  -23.6294  -43.2802 N.am      13 UNK        -0.5000 
     75 CA         -3.8541  -24.9913  -42.8349 C.3       13 UNK         0.1400 
     76 CB         -2.6528  -25.5540  -42.0635 C.3       13 UNK        -0.1800 
     77 C          -4.2260  -25.9148  -44.0062 C.2       13 UNK         0.5000 
     78 O          -5.1793  -26.6867  -43.8974 O.2       13 UNK        -0.5000 
     79 N          -3.4829  -25.7970  -45.1148 N.am      14 UNK        -0.5000 
     80 CA         -3.7287  -26.5237  -46.3615 C.3       14 UNK         0.1400 
     81 CB         -2.4443  -26.4964  -47.2062 C.3       14 UNK        -0.1800 
     82 C          -4.9065  -25.9498  -47.1735 C.2       14 UNK         0.5000 
     83 O          -5.3813  -26.6162  -48.0931 O.2       14 UNK        -0.5000 
     84 N          -5.3183  -24.7134  -46.8498 N.am      15 UNK        -0.5000 
     85 CA         -6.3071  -23.8789  -47.5456 C.3       15 UNK         0.1400 
     86 CB         -7.7057  -24.5282  -47.5275 C.3       15 UNK        -0.1800 
     87 C          -5.8620  -23.4586  -48.9641 C.2       15 UNK         0.5000 
     88 O          -6.6873  -23.0231  -49.7687 O.2       15 UNK        -0.5000 
     89 N          -4.5522  -23.5570  -49.2346 N.am      16 UNK        -0.5000 
     90 CA         -3.9059  -23.1830  -50.4909 C.3       16 UNK         0.1400 
     91 CB         -2.4588  -23.6967  -50.4886 C.3       16 UNK        -0.1800 
     92 C          -3.9363  -21.6694  -50.7574 C.2       16 UNK         0.5000 
     93 O          -3.8317  -21.2670  -51.9154 O.2       16 UNK        -0.5000 
     94 N          -4.1135  -20.8597  -49.7005 N.am      17 UNK        -0.5000 
     95 CA         -4.2546  -19.4002  -49.7453 C.3       17 UNK         0.1400 
     96 CB         -4.3968  -18.8659  -48.3117 C.3       17 UNK        -0.1800 
     97 C          -5.4223  -18.8912  -50.6146 C.2       17 UNK         0.5000 
     98 O          -5.3886  -17.7392  -51.0459 O.2       17 UNK        -0.5000 
     99 N          -6.4168  -19.7504  -50.8781 N.am      18 UNK        -0.5000 
    100 CA        -7.5249  -19.4861  -51.7963 C.3       18 UNK         0.1400 
    101 CB        -8.5697  -20.6018  -51.6444 C.3       18 UNK        -0.1800 
    102 C         -7.0848  -19.3562  -53.2705 C.2       18 UNK         0.5000 
    103 O         -7.7734  -18.6872  -54.0420 O.2       18 UNK        -0.5000 
    104 N         -5.9595  -19.9887  -53.6312 N.am      19 UNK        -0.5000 
    105 CA        -5.3485  -19.9258  -54.9584 C.3       19 UNK         0.1400 
    106 CB        -5.1125  -21.3549  -55.4758 C.3       19 UNK        -0.1800 
    107 C         -4.0319  -19.1344  -54.9042 C.2       19 UNK         0.5000 
    108 O         -3.8741  -18.1796  -55.6645 O.2       19 UNK        -0.5000 
    109 N         -3.1481  -19.5411  -53.9802 N.am      20 UNK        -0.5000 
    110 CA        -1.8085  -19.0388  -53.6725 C.3       20 UNK         0.1400 
    111 CB        -1.8521  -17.5800  -53.1917 C.3       20 UNK        -0.1800 
    112 C         -0.7788  -19.2265  -54.8019 C.2       20 UNK         0.5000 
    113 O         -0.9845  -18.7739  -55.9290 O.2       20 UNK        -0.5000 
    114 N          0.3693  -19.8257  -54.4532 N.am      21 UNK        -0.5000 
    115 CA         1.5345  -19.9893  -55.3338 C.3       21 UNK         0.1400 
    116 CB         2.5711  -20.8791  -54.6309 C.3       21 UNK        -0.1800 
    117 C          2.1728  -18.6504  -55.7627 C.2       21 UNK         0.5000 
    118 O          2.8329  -18.5907  -56.8004 O.2       21 UNK        -0.5000 
    119 N          1.9341  -17.6025  -54.9656 N.am      22 UNK        -0.5000 
    120 CA         2.2498  -16.2005  -55.2636 C.3       22 UNK         0.1400 
    121 C          1.3424  -15.5661  -56.3634 C.2       22 UNK         0.5000 
    122 N          0.2520  -16.1919  -56.7944 N.am      22 UNK        -0.7600 
    123 O          1.6422  -14.4772  -56.8454 O.2       22 UNK        -0.5000 
    124 C124        2.2160  -15.3487  -53.9674 C.3       23 UNK        -0.0398 
    125 S125        3.6664  -15.5839  -52.8788 S.3       23 UNK        -0.2404 
    126 C126        3.4005  -17.2080  -52.0785 C.3       23 UNK        -0.0205 
    127 H127       -8.7206  -15.1529  -50.0538 H         1 UNK         0.0600 
    128 H128       -7.7654  -16.0305  -51.2527 H         1 UNK         0.0600 
    129 H129       -8.4797  -14.4704  -51.6664 H         1 UNK         0.0600 
    130 H130       -5.6178  -15.9660  -50.7042 H         1 UNK         0.3000 
    131 H131       -4.2145  -13.4774  -50.2474 H         1 UNK         0.0600 
    132 H132       -3.0450  -16.3026  -50.0004 H         1 UNK         0.0800 
    133 H133       -3.4244  -15.6014  -51.5438 H         1 UNK         0.0800 
    134 H134        0.1913  -14.6647  -49.0313 H         1 UNK         0.0800 
    135 H135       -1.1427  -15.7025  -48.6215 H         1 UNK         0.0800 
    136 H136        1.7655  -15.3214  -50.8519 H         1 UNK         0.1150 
    137 H137        2.1073  -19.5265  -51.6115 H         1 UNK         0.1150 
    138 H138       -1.2423  -18.0102  -49.4166 H         1 UNK         0.1150 
    139 H139        0.1722  -20.9391  -51.2233 H         1 UNK         0.0800 
    140 H140       -1.2465  -20.3524  -50.4114 H         1 UNK         0.0800 
    141 H141       -1.7093  -20.3383  -48.1915 H         1 UNK         0.0800 
    142 H142       -0.5011  -19.9005  -47.0121 H         1 UNK         0.0800 
    143 H143       -1.3768  -22.7896  -47.4869 H         1 UNK         0.0600 
    144 H144        0.6676  -21.7737  -45.9177 H         1 UNK         0.3000 
    145 H145        1.3115  -24.9805  -44.5153 H         1 UNK         0.0600 
    146 H146        2.3117  -23.9919  -46.6052 H         1 UNK         0.0600 
    147 H147        3.4042  -23.9412  -45.2312 H         1 UNK         0.0600 
    148 H148        2.5836  -22.4768  -45.7500 H         1 UNK         0.0600 
    149 H149        1.8174  -22.2560  -43.4490 H         1 UNK         0.3000 
    150 H150        0.1871  -22.8784  -40.4408 H         1 UNK         0.0600 
    151 H151        3.2406  -22.7390  -40.6824 H         1 UNK         0.0600 
    152 H152        2.3494  -23.9986  -39.8346 H         1 UNK         0.0600 
    153 H153        2.2922  -22.3434  -39.2495 H         1 UNK         0.0600 
    154 H154        1.7940  -20.6867  -40.9770 H         1 UNK         0.3000 
    155 H155       -0.2632  -18.8421  -43.1856 H         1 UNK         0.0600 
    156 H156        0.2495  -18.5488  -40.1875 H         1 UNK         0.0600 
    157 H157       -1.3221  -18.6100  -40.9713 H         1 UNK         0.0600 
    158 H158       -0.2413  -17.2625  -41.2900 H         1 UNK         0.0600 
    159 H159        1.8039  -18.2971  -43.5464 H         1 UNK         0.3000 
    160 H160        4.2570  -17.2176  -42.0751 H         1 UNK         0.0600 
    161 H161        5.2253  -20.1138  -42.3079 H         1 UNK         0.0600 
    162 H162        5.4613  -19.0313  -40.9447 H         1 UNK         0.0600 
    163 H163        6.2536  -18.6905  -42.4726 H         1 UNK         0.0600 
    164 H164        4.1485  -17.1270  -44.2564 H         1 UNK         0.3000 
    165 H165        4.9216  -18.7257  -46.7265 H         1 UNK         0.0600 
    166 H166        3.2663  -20.4908  -47.1973 H         1 UNK         0.0600 
    167 H167        1.9388  -19.4177  -46.7645 H         1 UNK         0.0600 
    168 H168        2.9068  -19.0958  -48.2004 H         1 UNK         0.0600 
    169 H169        2.5363  -17.0180  -46.1614 H         1 UNK         0.3000 
    170 H170        4.4116  -14.0635  -46.2919 H         1 UNK         0.0600 
    171 H171        2.7609  -13.2968  -48.0151 H         1 UNK         0.0600 
    172 H172        2.4491  -14.9770  -48.4582 H         1 UNK         0.0600 
    173 H173        4.0318  -14.2702  -48.7405 H         1 UNK         0.0600 
    174 H174        1.5994  -14.5291  -46.1412 H         1 UNK         0.3000 
    175 H175        1.3688  -15.6644  -42.8231 H         1 UNK         0.0600 
    176 H176        1.7568  -13.2288  -42.3837 H         1 UNK         0.0600 
    177 H177        0.7545  -12.8148  -43.7705 H         1 UNK         0.0600 
    178 H178        0.0452  -13.6227  -42.3728 H         1 UNK         0.0600 
    179 H179       -0.7375  -14.7851  -44.3749 H         1 UNK         0.3000 
    180 H180       -1.0987  -17.2996  -46.7603 H         1 UNK         0.0600 
    181 H181       -2.5061  -17.3180  -44.0495 H         1 UNK         0.0600 
    182 H182       -1.8242  -18.6922  -44.9132 H         1 UNK         0.0600 
    183 H183       -3.2367  -17.8732  -45.5536 H         1 UNK         0.0600 
    184 H184       -2.1471  -15.4377  -47.2653 H         1 UNK         0.3000 
    185 H185       -4.3299  -13.2985  -45.9196 H         1 UNK         0.0600 
    186 H186       -2.4432  -11.9267  -45.0248 H         1 UNK         0.0600 
    187 H187       -1.5062  -12.2371  -46.4811 H         1 UNK         0.0600 
    188 H188       -2.9979  -11.2991  -46.5663 H         1 UNK         0.0600 
    189 H189       -2.8594  -13.0738  -48.3570 H         1 UNK         0.3000 
    190 H190       -1.8424  -21.3728  -44.2802 H         1 UNK         0.3000 
    191 H191       -4.7088  -20.9103  -44.7774 H         1 UNK         0.0600 
    192 H192       -3.3784  -19.4917  -43.1437 H         1 UNK         0.0600 
    193 H193       -4.8086  -20.2407  -42.4574 H         1 UNK         0.0600 
    194 H194       -3.2263  -20.9052  -42.1029 H         1 UNK         0.0600 
    195 H195       -2.5819  -23.3552  -43.2891 H         1 UNK         0.3000 
    196 H196       -4.7059  -24.9498  -42.1526 H         1 UNK         0.0600 
    197 H197       -2.8800  -26.5384  -41.6525 H         1 UNK         0.0600 
    198 H198       -2.3759  -24.9079  -41.2302 H         1 UNK         0.0600 
    199 H199       -1.7807  -25.6632  -42.7087 H         1 UNK         0.0600 
    200 H200       -2.6754  -25.1767  -45.1014 H         1 UNK         0.3000 
    201 H201       -3.9630  -27.5635  -46.1238 H         1 UNK         0.0600 
    202 H202       -2.5677  -27.0663  -48.1281 H         1 UNK         0.0600 
    203 H203       -1.6065  -26.9347  -46.6635 H         1 UNK         0.0600 
    204 H204       -2.1658  -25.4790  -47.4839 H         1 UNK         0.0600 
    205 H205       -4.8540  -24.2645  -46.0729 H         1 UNK         0.3000 
    206 H206       -6.3691  -22.9544  -46.9695 H         1 UNK         0.0600 
    207 H207       -7.9922  -24.8173  -46.5163 H         1 UNK         0.0600 
    208 H208       -8.4630  -23.8333  -47.8921 H         1 UNK         0.0600 
    209 H209       -7.7510  -25.4166  -48.1577 H         1 UNK         0.0600 
    210 H210       -3.9503  -23.8739  -48.4901 H         1 UNK         0.3000 
    211 H211       -4.4445  -23.6713  -51.3055 H         1 UNK         0.0600 
    212 H212       -2.4213  -24.7747  -50.3304 H         1 UNK         0.0600 
    213 H213       -1.9718  -23.4921  -51.4431 H         1 UNK         0.0600 
    214 H214       -1.8615  -23.2211  -49.7117 H         1 UNK         0.0600 
    215 H215       -4.1817  -21.2887  -48.7838 H         1 UNK         0.3000 
    216 H216       -3.3396  -18.9938  -50.1787 H         1 UNK         0.0600 
    217 H217       -5.2697  -19.2880  -47.8122 H         1 UNK         0.0600 
    218 H218       -4.5105  -17.7823  -48.3069 H         1 UNK         0.0600 
    219 H219       -3.5246  -19.0956  -47.7035 H         1 UNK         0.0600 
    220 H220       -6.3755  -20.6778  -50.4765 H         1 UNK         0.3000 
    221 H221       -7.9881  -18.5412  -51.5053 H         1 UNK         0.0600 
    222 H222       -8.1560  -21.5771  -51.9046 H         1 UNK         0.0600 
    223 H223       -8.9408  -20.6587  -50.6209 H         1 UNK         0.0600 
    224 H224       -9.4291  -20.4249  -52.2924 H         1 UNK         0.0600 
    225 H225       -5.4333  -20.4802  -52.9182 H         1 UNK         0.3000 
    226 H226       -6.0101  -19.4205  -55.6652 H         1 UNK         0.0600 
    227 H227       -6.0558  -21.8891  -55.5905 H         1 UNK         0.0600 
    228 H228       -4.6257  -21.3413  -56.4518 H         1 UNK         0.0600 
    229 H229       -4.4822  -21.9350  -54.8006 H         1 UNK         0.0600 
    230 H230       -3.4257  -20.3222  -53.3901 H         1 UNK         0.3000 
    231 H231       -1.4782  -19.6419  -52.8273 H         1 UNK         0.0600 
    232 H232       -2.2348  -16.9038  -53.9562 H         1 UNK         0.0600 
    233 H233       -0.8600  -17.2256  -52.9102 H         1 UNK         0.0600 
    234 H234       -2.4880  -17.4967  -52.3128 H         1 UNK         0.0600 
    235 H235        0.4735  -20.1769  -53.5137 H         1 UNK         0.3000 
    236 H236        1.2015  -20.4988  -56.2404 H         1 UNK         0.0600 
    237 H237        2.9447  -20.4195  -53.7155 H         1 UNK         0.0600 
    238 H238        2.1492  -21.8506  -54.3729 H         1 UNK         0.0600 
    239 H239        3.4300  -21.0616  -55.2781 H         1 UNK         0.0600 
    240 H240        1.3871  -17.7604  -54.1340 H         1 UNK         0.3000 
    241 H241        3.2643  -16.1674  -55.6652 H         1 UNK         0.0600 
    242 H242       -0.3093  -15.7561  -57.5086 H         1 UNK         0.3800 
    243 H243       -0.0298  -17.0957  -56.4299 H         1 UNK         0.3800 
    244 H244        1.2927  -15.5223  -53.4139 H         1 UNK         0.0800 
    245 H245        2.2087  -14.2845  -54.2102 H         1 UNK         0.0800 
    246 H246        3.5314  -17.9880  -52.8287 H         1 UNK         0.0800 
    247 H247        4.2022  -17.3574  -51.3544 H         1 UNK         0.0800 
@<TRIPOS>BOND
     1    1    2 1    
     2    1  127 1    
     3    1  128 1    
     4    1  129 1    
     5    2    3 2    
     6    2    4 am   BACKBONE|DICT|INTERRES
     7    4    5 1    
     8    4  130 1    
     9    5    6 1    
    10    5   65 1    
    11    5  131 1    
    12    6    7 1    
    13    6  132 1    
    14    6  133 1    
    15    7    8 1    
    16    8    9 1    
    17    8  134 1    
    18    8  135 1    
    19    9   10 ar   
    20    9   14 ar   
    21   10   11 ar   
    22   10  136 1    
    23   11   12 ar   
    24   11  126 1    
    25   12   13 ar   
    26   12  137 1    
    27   13   14 ar   
    28   13   15 1    
    29   14  138 1    
    30   15   16 1    
    31   15  139 1    
    32   15  140 1    
    33   16   17 1    
    34   17   18 1    
    35   17  141 1    
    36   17  142 1    
    37   18   19 1    
    38   18   67 1    
    39   18  143 1    
    40   19   20 am   BACKBONE|DICT|INTERRES
    41   19  144 1    
    42   20   21 2    
    43   20   22 1    
    44   22   23 1    
    45   22   24 1    
    46   22  145 1    
    47   23  146 1    
    48   23  147 1    
    49   23  148 1    
    50   24   25 am   BACKBONE|DICT|INTERRES
    51   24  149 1    
    52   25   26 2    
    53   25   27 1    
    54   27   28 1    
    55   27   29 1    
    56   27  150 1    
    57   28  151 1    
    58   28  152 1    
    59   28  153 1    
    60   29   30 am   BACKBONE|DICT|INTERRES
    61   29  154 1    
    62   30   31 2    
    63   30   32 1    
    64   32   33 1    
    65   32   34 1    
    66   32  155 1    
    67   33  156 1    
    68   33  157 1    
    69   33  158 1    
    70   34   35 am   BACKBONE|DICT|INTERRES
    71   34  159 1    
    72   35   36 2    
    73   35   37 1    
    74   37   38 1    
    75   37   39 1    
    76   37  160 1    
    77   38  161 1    
    78   38  162 1    
    79   38  163 1    
    80   39   40 am   BACKBONE|DICT|INTERRES
    81   39  164 1    
    82   40   41 2    
    83   40   42 1    
    84   42   43 1    
    85   42   44 1    
    86   42  165 1    
    87   43  166 1    
    88   43  167 1    
    89   43  168 1    
    90   44   45 am   BACKBONE|DICT|INTERRES
    91   44  169 1    
    92   45   46 2    
    93   45   47 1    
    94   47   48 1    
    95   47   49 1    
    96   47  170 1    
    97   48  171 1    
    98   48  172 1    
    99   48  173 1    
   100   49   50 am   BACKBONE|DICT|INTERRES
   101   49  174 1    
   102   50   51 2    
   103   50   52 1    
   104   52   53 1    
   105   52   54 1    
   106   52  175 1    
   107   53  176 1    
   108   53  177 1    
   109   53  178 1    
   110   54   55 am   BACKBONE|DICT|INTERRES
   111   54  179 1    
   112   55   56 2    
   113   55   57 1    
   114   57   58 1    
   115   57   59 1    
   116   57  180 1    
   117   58  181 1    
   118   58  182 1    
   119   58  183 1    
   120   59   60 am   BACKBONE|DICT|INTERRES
   121   59  184 1    
   122   60   61 2    
   123   60   62 1    
   124   62   63 1    
   125   62   64 1    
   126   62  185 1    
   127   63  186 1    
   128   63  187 1    
   129   63  188 1    
   130   64   65 am   BACKBONE|DICT|INTERRES
   131   64  189 1    
   132   65   66 2    
   133   67   68 2    
   134   67   69 am   BACKBONE|DICT|INTERRES
   135   69   70 1    
   136   69  190 1    
   137   70   71 1    
   138   70   72 1    
   139   70  191 1    
   140   71  192 1    
   141   71  193 1    
   142   71  194 1    
   143   72   73 2    
   144   72   74 am   BACKBONE|DICT|INTERRES
   145   74   75 1    
   146   74  195 1    
   147   75   76 1    
   148   75   77 1    
   149   75  196 1    
   150   76  197 1    
   151   76  198 1    
   152   76  199 1    
   153   77   78 2    
   154   77   79 am   BACKBONE|DICT|INTERRES
   155   79   80 1    
   156   79  200 1    
   157   80   81 1    
   158   80   82 1    
   159   80  201 1    
   160   81  202 1    
   161   81  203 1    
   162   81  204 1    
   163   82   83 2    
   164   82   84 am   BACKBONE|DICT|INTERRES
   165   84   85 1    
   166   84  205 1    
   167   85   86 1    
   168   85   87 1    
   169   85  206 1    
   170   86  207 1    
   171   86  208 1    
   172   86  209 1    
   173   87   88 2    
   174   87   89 am   BACKBONE|DICT|INTERRES
   175   89   90 1    
   176   89  210 1    
   177   90   91 1    
   178   90   92 1    
   179   90  211 1    
   180   91  212 1    
   181   91  213 1    
   182   91  214 1    
   183   92   93 2    
   184   92   94 am   BACKBONE|DICT|INTERRES
   185   94   95 1    
   186   94  215 1    
   187   95   96 1    
   188   95   97 1    
   189   95  216 1    
   190   96  217 1    
   191   96  218 1    
   192   96  219 1    
   193   97   98 2    
   194   97   99 am   BACKBONE|DICT|INTERRES
   195   99  100 1    
   196   99  220 1    
   197  100  101 1    
   198  100  102 1    
   199  100  221 1    
   200  101  222 1    
   201  101  223 1    
   202  101  224 1    
   203  102  103 2    
   204  102  104 am   BACKBONE|DICT|INTERRES
   205  104  105 1    
   206  104  225 1    
   207  105  106 1    
   208  105  107 1    
   209  105  226 1    
   210  106  227 1    
   211  106  228 1    
   212  106  229 1    
   213  107  108 2    
   214  107  109 am   BACKBONE|DICT|INTERRES
   215  109  110 1    
   216  109  230 1    
   217  110  111 1    
   218  110  112 1    
   219  110  231 1    
   220  111  232 1    
   221  111  233 1    
   222  111  234 1    
   223  112  113 2    
   224  112  114 am   BACKBONE|DICT|INTERRES
   225  114  115 1    
   226  114  235 1    
   227  115  116 1    
   228  115  117 1    
   229  115  236 1    
   230  116  237 1    
   231  116  238 1    
   232  116  239 1    
   233  117  118 2    
   234  117  119 am   BACKBONE|DICT|INTERRES
   235  119  120 1    
   236  119  240 1    
   237  120  121 1    
   238  120  124 1    
   239  120  241 1    
   240  121  122 am   BACKBONE|DICT|INTERRES
   241  121  123 2    
   242  122  242 1    
   243  122  243 1    
   244  124  125 1    
   245  124  244 1    
   246  124  245 1    
   247  125  126 1    
   248  126  246 1    
   249  126  247 1    
@<TRIPOS>SUBSTRUCTURE
     1 UNK         1 GROUP             0       ****    0 ROOT    
