@<TRIPOS>MOLECULE
3R540
247   249    1
SMALL
USER_CHARGES


@<TRIPOS>ATOM
      1 CA          4.2810  -16.7460  -47.0937 C.3       0 UNK        -0.1800 
      2 C           3.6173  -15.4234  -46.7415 C.2       0 UNK         0.5000 
      3 O           3.6360  -15.0200  -45.5808 O.2       0 UNK        -0.5000 
      4 N           3.0359  -14.7419  -47.7376 N.am      1 UNK        -0.5000 
      5 CA          2.2104  -13.5332  -47.5822 C.3       1 UNK         0.1400 
      6 C6          1.5474  -13.0927  -48.9173 C.3       23 UNK        -0.0398 
      7 S7          0.8686  -14.4381  -49.9591 S.3       23 UNK        -0.2404 
      8 C8         -0.1617  -15.3781  -48.7898 C.3       23 UNK        -0.0205 
      9 C9         -0.5595  -16.7379  -49.3419 C.ar      23 UNK        -0.0193 
     10 C10        -1.9052  -17.0577  -49.5438 C.ar      23 UNK        -0.1150 
     11 C11        -2.2713  -18.3342  -49.9811 C.ar      23 UNK        -0.0193 
     12 C12        -1.2807  -19.2911  -50.2171 C.ar      23 UNK        -0.1150 
     13 C13         0.0690  -18.9861  -50.0216 C.ar      23 UNK        -0.0193 
     14 C14         0.4219  -17.7011  -49.5961 C.ar      23 UNK        -0.1150 
     15 C15         1.1246  -20.0598  -50.2726 C.3       23 UNK        -0.0205 
     16 S16         2.4458  -20.1597  -49.0102 S.3       23 UNK        -0.2404 
     17 C17         1.5472  -20.0889  -47.4217 C.3       23 UNK        -0.0398 
     18 CA          1.0949  -21.4621  -46.8727 C.3       11 UNK         0.1400 
     19 N           0.8874  -21.4088  -45.4245 N.am      11 UNK        -0.5000 
     20 C           0.5925  -22.4495  -44.6343 C.2       10 UNK         0.5000 
     21 O           0.5187  -23.6128  -45.0291 O.2       10 UNK        -0.5000 
     22 CA          0.2676  -22.1218  -43.1651 C.3       10 UNK         0.1400 
     23 CB          1.5495  -21.9052  -42.3472 C.3       10 UNK        -0.1800 
     24 N          -0.6026  -20.9505  -43.0414 N.am      10 UNK        -0.5000 
     25 C          -1.8656  -20.9045  -43.4900 C.2       9 UNK         0.5000 
     26 O          -2.4436  -21.8650  -43.9999 O.2       9 UNK        -0.5000 
     27 CA         -2.5910  -19.5502  -43.3911 C.3       9 UNK         0.1400 
     28 CB         -3.1497  -19.3358  -41.9768 C.3       9 UNK        -0.1800 
     29 N          -1.7377  -18.4195  -43.7604 N.am      9 UNK        -0.5000 
     30 C          -1.2185  -18.2261  -44.9815 C.2       8 UNK         0.5000 
     31 O          -1.4372  -18.9641  -45.9386 O.2       8 UNK        -0.5000 
     32 CA         -0.2456  -17.0466  -45.1544 C.3       8 UNK         0.1400 
     33 CB         -1.0146  -15.7305  -45.3321 C.3       8 UNK        -0.1800 
     34 N           0.6980  -16.9283  -44.0431 N.am      8 UNK        -0.5000 
     35 C           1.5795  -17.8765  -43.6940 C.2       7 UNK         0.5000 
     36 O           1.7202  -18.9346  -44.3043 O.2       7 UNK        -0.5000 
     37 CA          2.4057  -17.6340  -42.4232 C.3       7 UNK         0.1400 
     38 CB          3.6387  -16.7831  -42.7286 C.3       7 UNK        -0.1800 
     39 N           1.6168  -16.9894  -41.3783 N.am      7 UNK        -0.5000 
     40 C           0.6825  -17.6172  -40.6537 C.2       6 UNK         0.5000 
     41 O           0.4158  -18.8146  -40.7671 O.2       6 UNK        -0.5000 
     42 CA         -0.1117  -16.7431  -39.6666 C.3       6 UNK         0.1400 
     43 CB          0.6956  -16.4962  -38.3833 C.3       6 UNK        -0.1800 
     44 N          -0.5084  -15.4584  -40.2479 N.am      6 UNK        -0.5000 
     45 C          -1.3677  -15.3319  -41.2678 C.2       5 UNK         0.5000 
     46 O          -1.9123  -16.2848  -41.8232 O.2       5 UNK        -0.5000 
     47 CA         -1.6590  -13.9073  -41.7692 C.3       5 UNK         0.1400 
     48 CB         -2.7921  -13.2751  -40.9469 C.3       5 UNK        -0.1800 
     49 N          -0.5088  -12.9999  -41.7769 N.am      5 UNK        -0.5000 
     50 C           0.6585  -13.1950  -42.4072 C.2       4 UNK         0.5000 
     51 O           0.9698  -14.2521  -42.9602 O.2       4 UNK        -0.5000 
     52 CA          1.5893  -11.9658  -42.4719 C.3       4 UNK         0.1400 
     53 CB          1.6715  -11.1990  -41.1321 C.3       4 UNK        -0.1800 
     54 N           2.9284  -12.2542  -42.9928 N.am      4 UNK        -0.5000 
     55 C           3.9156  -12.9462  -42.4045 C.2       3 UNK         0.5000 
     56 O           3.8013  -13.5132  -41.3164 O.2       3 UNK        -0.5000 
     57 CA          5.2772  -12.9599  -43.1357 C.3       3 UNK         0.1400 
     58 CB          6.0292  -14.2962  -43.0111 C.3       3 UNK        -0.1800 
     59 N           5.1460  -12.6253  -44.5548 N.am      3 UNK        -0.5000 
     60 C           5.4310  -11.4358  -45.1024 C.2       2 UNK         0.5000 
     61 O           5.8599  -10.4761  -44.4612 O.2       2 UNK        -0.5000 
     62 CA          5.1919  -11.2765  -46.6185 C.3       2 UNK         0.1400 
     63 CB          6.5248  -11.3400  -47.3802 C.3       2 UNK        -0.1800 
     64 N           4.2813  -12.2747  -47.1828 N.am      2 UNK        -0.5000 
     65 C           2.9651  -12.3482  -46.9399 C.2       1 UNK         0.5000 
     66 O           2.3589  -11.5528  -46.2208 O.2       1 UNK        -0.5000 
     67 C          -0.1587  -21.9837  -47.6041 C.2       11 UNK         0.5000 
     68 O          -0.0431  -22.8945  -48.4222 O.2       11 UNK        -0.5000 
     69 N          -1.3348  -21.4354  -47.2639 N.am      12 UNK        -0.5000 
     70 CA         -2.6380  -21.8325  -47.7972 C.3       12 UNK         0.1400 
     71 CB         -3.7346  -20.9238  -47.2202 C.3       12 UNK        -0.1800 
     72 C          -2.9719  -23.3068  -47.5261 C.2       12 UNK         0.5000 
     73 O          -3.4435  -23.9922  -48.4335 O.2       12 UNK        -0.5000 
     74 N          -2.6905  -23.7685  -46.2997 N.am      13 UNK        -0.5000 
     75 CA         -2.8468  -25.1594  -45.8804 C.3       13 UNK         0.1400 
     76 CB         -2.6686  -25.2620  -44.3580 C.3       13 UNK        -0.1800 
     77 C          -1.8828  -26.1085  -46.6144 C.2       13 UNK         0.5000 
     78 O          -2.3148  -27.1638  -47.0781 O.2       13 UNK        -0.5000 
     79 N          -0.6090  -25.7069  -46.7353 N.am      14 UNK        -0.5000 
     80 CA          0.4380  -26.4534  -47.4374 C.3       14 UNK         0.1400 
     81 CB          1.8034  -25.8042  -47.1643 C.3       14 UNK        -0.1800 
     82 C           0.1822  -26.5678  -48.9516 C.2       14 UNK         0.5000 
     83 O           0.3724  -27.6426  -49.5222 O.2       14 UNK        -0.5000 
     84 N          -0.2680  -25.4672  -49.5675 N.am      15 UNK        -0.5000 
     85 CA         -0.6458  -25.3934  -50.9793 C.3       15 UNK         0.1400 
     86 CB         -0.6423  -23.9193  -51.4182 C.3       15 UNK        -0.1800 
     87 C          -2.0182  -26.0255  -51.2778 C.2       15 UNK         0.5000 
     88 O          -2.3379  -26.2253  -52.4483 O.2       15 UNK        -0.5000 
     89 N          -2.8259  -26.2743  -50.2358 N.am      16 UNK        -0.5000 
     90 CA         -4.2127  -26.7563  -50.2742 C.3       16 UNK         0.1400 
     91 CB         -4.2595  -28.2245  -50.7439 C.3       16 UNK        -0.1800 
     92 C          -5.1485  -25.8332  -51.0888 C.2       16 UNK         0.5000 
     93 O          -6.0857  -26.3107  -51.7305 O.2       16 UNK        -0.5000 
     94 N          -4.8441  -24.5256  -51.0677 N.am      17 UNK        -0.5000 
     95 CA         -5.4748  -23.4376  -51.8249 C.3       17 UNK         0.1400 
     96 CB         -6.9054  -23.1811  -51.3086 C.3       17 UNK        -0.1800 
     97 C          -5.4213  -23.6048  -53.3639 C.2       17 UNK         0.5000 
     98 O          -6.2168  -22.9797  -54.0691 O.2       17 UNK        -0.5000 
     99 N          -4.4710  -24.4067  -53.8753 N.am      18 UNK        -0.5000 
    100 CA        -4.3248  -24.7574  -55.2964 C.3       18 UNK         0.1400 
    101 CB        -3.2679  -25.8620  -55.4426 C.3       18 UNK        -0.1800 
    102 C         -4.0002  -23.5773  -56.2358 C.2       18 UNK         0.5000 
    103 O         -4.1376  -23.7187  -57.4515 O.2       18 UNK        -0.5000 
    104 N         -3.6078  -22.4299  -55.6657 N.am      19 UNK        -0.5000 
    105 CA        -3.4293  -21.1545  -56.3617 C.3       19 UNK         0.1400 
    106 CB        -2.7310  -20.1713  -55.4097 C.3       19 UNK        -0.1800 
    107 C         -4.7458  -20.5445  -56.8926 C.2       19 UNK         0.5000 
    108 O         -4.6874  -19.6240  -57.7085 O.2       19 UNK        -0.5000 
    109 N         -5.8996  -21.0387  -56.4123 N.am      20 UNK        -0.5000 
    110 CA        -7.2832  -20.6942  -56.7738 C.3       20 UNK         0.1400 
    111 CB        -7.5490  -20.8940  -58.2776 C.3       20 UNK        -0.1800 
    112 C         -7.7353  -19.2997  -56.3022 C.2       20 UNK         0.5000 
    113 O         -8.8501  -19.1672  -55.7951 O.2       20 UNK        -0.5000 
    114 N         -6.8502  -18.2992  -56.4033 N.am      21 UNK        -0.5000 
    115 CA        -7.0206  -16.9387  -55.8790 C.3       21 UNK         0.1400 
    116 CB        -5.8164  -16.0881  -56.3101 C.3       21 UNK        -0.1800 
    117 C         -7.1953  -16.8913  -54.3459 C.2       21 UNK         0.5000 
    118 O         -7.7789  -15.9408  -53.8241 O.2       21 UNK        -0.5000 
    119 N         -6.7131  -17.9385  -53.6669 N.am      22 UNK        -0.5000 
    120 CA        -6.9351  -18.2288  -52.2448 C.3       22 UNK         0.1400 
    121 C         -8.4004  -18.6232  -51.8859 C.2       22 UNK         0.5000 
    122 N         -9.2748  -18.9264  -52.8395 N.am      22 UNK        -0.7600 
    123 O         -8.7526  -18.6506  -50.7102 O.2       22 UNK        -0.5000 
    124 C124       -5.9501  -19.3165  -51.7483 C.3       23 UNK        -0.0398 
    125 S125       -4.2037  -18.8097  -51.9109 S.3       23 UNK        -0.2404 
    126 C126       -3.7364  -18.6979  -50.1602 C.3       23 UNK        -0.0205 
    127 H127        5.3512  -16.6938  -46.8945 H         1 UNK         0.0600 
    128 H128        4.1382  -17.0056  -48.1430 H         1 UNK         0.0600 
    129 H129        3.8583  -17.5467  -46.4863 H         1 UNK         0.0600 
    130 H130        3.0686  -15.1152  -48.6760 H         1 UNK         0.3000 
    131 H131        1.4149  -13.7883  -46.8801 H         1 UNK         0.0600 
    132 H132        0.7447  -12.3811  -48.7162 H         1 UNK         0.0800 
    133 H133        2.2694  -12.5590  -49.5385 H         1 UNK         0.0800 
    134 H134       -1.0393  -14.7847  -48.5292 H         1 UNK         0.0800 
    135 H135        0.3839  -15.5542  -47.8654 H         1 UNK         0.0800 
    136 H136       -2.6693  -16.3204  -49.3421 H         1 UNK         0.1150 
    137 H137       -1.5657  -20.2789  -50.5505 H         1 UNK         0.1150 
    138 H138        1.4623  -17.4552  -49.4373 H         1 UNK         0.1150 
    139 H139        0.6554  -21.0413  -50.3512 H         1 UNK         0.0800 
    140 H140        1.5864  -19.8689  -51.2418 H         1 UNK         0.0800 
    141 H141        0.7174  -19.3848  -47.4643 H         1 UNK         0.0800 
    142 H142        2.2571  -19.6437  -46.7249 H         1 UNK         0.0800 
    143 H143        1.8990  -22.1809  -47.0433 H         1 UNK         0.0600 
    144 H144        0.9757  -20.4908  -44.9949 H         1 UNK         0.3000 
    145 H145       -0.2617  -22.9786  -42.7430 H         1 UNK         0.0600 
    146 H146        1.3202  -21.7189  -41.2978 H         1 UNK         0.0600 
    147 H147        2.1911  -22.7861  -42.3897 H         1 UNK         0.0600 
    148 H148        2.1297  -21.0597  -42.7165 H         1 UNK         0.0600 
    149 H149       -0.2028  -20.1224  -42.6189 H         1 UNK         0.3000 
    150 H150       -3.4315  -19.5739  -44.0876 H         1 UNK         0.0600 
    151 H151       -3.7877  -20.1682  -41.6770 H         1 UNK         0.0600 
    152 H152       -3.7530  -18.4293  -41.9260 H         1 UNK         0.0600 
    153 H153       -2.3525  -19.2477  -41.2378 H         1 UNK         0.0600 
    154 H154       -1.5579  -17.7309  -43.0346 H         1 UNK         0.3000 
    155 H155        0.3379  -17.2264  -46.0595 H         1 UNK         0.0600 
    156 H156       -1.6488  -15.5202  -44.4728 H         1 UNK         0.0600 
    157 H157       -1.6628  -15.7752  -46.2078 H         1 UNK         0.0600 
    158 H158       -0.3367  -14.8875  -45.4645 H         1 UNK         0.0600 
    159 H159        0.6922  -16.0535  -43.5248 H         1 UNK         0.3000 
    160 H160        2.7481  -18.6037  -42.0553 H         1 UNK         0.0600 
    161 H161        3.3500  -15.7874  -43.0636 H         1 UNK         0.0600 
    162 H162        4.2432  -17.2346  -43.5164 H         1 UNK         0.0600 
    163 H163        4.2719  -16.6714  -41.8485 H         1 UNK         0.0600 
    164 H164        1.7338  -15.9911  -41.2714 H         1 UNK         0.3000 
    165 H165       -1.0197  -17.2878  -39.3985 H         1 UNK         0.0600 
    166 H166        0.1069  -15.9494  -37.6466 H         1 UNK         0.0600 
    167 H167        0.9951  -17.4391  -37.9237 H         1 UNK         0.0600 
    168 H168        1.6030  -15.9238  -38.5802 H         1 UNK         0.0600 
    169 H169       -0.0948  -14.6252  -39.8563 H         1 UNK         0.3000 
    170 H170       -2.0053  -13.9893  -42.8000 H         1 UNK         0.0600 
    171 H171       -3.6747  -13.9164  -40.9390 H         1 UNK         0.0600 
    172 H172       -2.4952  -13.1126  -39.9101 H         1 UNK         0.0600 
    173 H173       -3.0957  -12.3149  -41.3643 H         1 UNK         0.0600 
    174 H174       -0.6639  -12.1003  -41.3461 H         1 UNK         0.3000 
    175 H175        1.1399  -11.2945  -43.2049 H         1 UNK         0.0600 
    176 H176        1.9707  -11.8489  -40.3091 H         1 UNK         0.0600 
    177 H177        2.3916  -10.3826  -41.1900 H         1 UNK         0.0600 
    178 H178        0.7128  -10.7536  -40.8654 H         1 UNK         0.0600 
    179 H179        3.1126  -11.8872  -43.9166 H         1 UNK         0.3000 
    180 H180        5.8848  -12.2073  -42.6296 H         1 UNK         0.0600 
    181 H181        5.5722  -15.0737  -43.6206 H         1 UNK         0.0600 
    182 H182        6.0612  -14.6503  -41.9802 H         1 UNK         0.0600 
    183 H183        7.0612  -14.1888  -43.3448 H         1 UNK         0.0600 
    184 H184        4.7404  -13.3535  -45.1348 H         1 UNK         0.3000 
    185 H185        4.7534  -10.2891  -46.7774 H         1 UNK         0.0600 
    186 H186        7.2226  -10.5867  -47.0121 H         1 UNK         0.0600 
    187 H187        7.0046  -12.3134  -47.2701 H         1 UNK         0.0600 
    188 H188        6.3808  -11.1539  -48.4447 H         1 UNK         0.0600 
    189 H189        4.6963  -12.9855  -47.7678 H         1 UNK         0.3000 
    190 H190       -1.3388  -20.6462  -46.6204 H         1 UNK         0.3000 
    191 H191       -2.6066  -21.6931  -48.8788 H         1 UNK         0.0600 
    192 H192       -3.8464  -21.0579  -46.1446 H         1 UNK         0.0600 
    193 H193       -4.7005  -21.1395  -47.6785 H         1 UNK         0.0600 
    194 H194       -3.5148  -19.8714  -47.3970 H         1 UNK         0.0600 
    195 H195       -2.3464  -23.1170  -45.6013 H         1 UNK         0.3000 
    196 H196       -3.8658  -25.4683  -46.1227 H         1 UNK         0.0600 
    197 H197       -2.7999  -26.2897  -44.0174 H         1 UNK         0.0600 
    198 H198       -3.4022  -24.6487  -43.8344 H         1 UNK         0.0600 
    199 H199       -1.6771  -24.9350  -44.0438 H         1 UNK         0.0600 
    200 H200       -0.3243  -24.8380  -46.2914 H         1 UNK         0.3000 
    201 H201        0.4569  -27.4653  -47.0277 H         1 UNK         0.0600 
    202 H202        2.0307  -25.8000  -46.0981 H         1 UNK         0.0600 
    203 H203        1.8366  -24.7727  -47.5164 H         1 UNK         0.0600 
    204 H204        2.6037  -26.3496  -47.6657 H         1 UNK         0.0600 
    205 H205       -0.3322  -24.5996  -49.0374 H         1 UNK         0.3000 
    206 H206        0.0995  -25.9291  -51.5706 H         1 UNK         0.0600 
    207 H207        0.3367  -23.4655  -51.2635 H         1 UNK         0.0600 
    208 H208       -0.8808  -23.8227  -52.4782 H         1 UNK         0.0600 
    209 H209       -1.3744  -23.3328  -50.8612 H         1 UNK         0.0600 
    210 H210       -2.4840  -26.0281  -49.3163 H         1 UNK         0.3000 
    211 H211       -4.5736  -26.7239  -49.2452 H         1 UNK         0.0600 
    212 H212       -3.9648  -28.3246  -51.7890 H         1 UNK         0.0600 
    213 H213       -5.2648  -28.6357  -50.6462 H         1 UNK         0.0600 
    214 H214       -3.5953  -28.8491  -50.1465 H         1 UNK         0.0600 
    215 H215       -4.0948  -24.2508  -50.4417 H         1 UNK         0.3000 
    216 H216       -4.8860  -22.5454  -51.6072 H         1 UNK         0.0600 
    217 H217       -7.3432  -22.2957  -51.7706 H         1 UNK         0.0600 
    218 H218       -6.9106  -23.0170  -50.2310 H         1 UNK         0.0600 
    219 H219       -7.5680  -24.0199  -51.5234 H         1 UNK         0.0600 
    220 H220       -3.8524  -24.8949  -53.2375 H         1 UNK         0.3000 
    221 H221       -5.2822  -25.1650  -55.6269 H         1 UNK         0.0600 
    222 H222       -2.2870  -25.5248  -55.1056 H         1 UNK         0.0600 
    223 H223       -3.5386  -26.7455  -54.8642 H         1 UNK         0.0600 
    224 H224       -3.1673  -26.1769  -56.4821 H         1 UNK         0.0600 
    225 H225       -3.5115  -22.4144  -54.6617 H         1 UNK         0.3000 
    226 H226       -2.7783  -21.3236  -57.2218 H         1 UNK         0.0600 
    227 H227       -2.5470  -19.2136  -55.8985 H         1 UNK         0.0600 
    228 H228       -3.3351  -19.9759  -54.5238 H         1 UNK         0.0600 
    229 H229       -1.7660  -20.5565  -55.0801 H         1 UNK         0.0600 
    230 H230       -5.8302  -21.7587  -55.6999 H         1 UNK         0.3000 
    231 H231       -7.9037  -21.4150  -56.2387 H         1 UNK         0.0600 
    232 H232       -7.2716  -21.8989  -58.5960 H         1 UNK         0.0600 
    233 H233       -6.9959  -20.1823  -58.8907 H         1 UNK         0.0600 
    234 H234       -8.6076  -20.7614  -58.5041 H         1 UNK         0.0600 
    235 H235       -5.9671  -18.5112  -56.8597 H         1 UNK         0.3000 
    236 H236       -7.9228  -16.5175  -56.3266 H         1 UNK         0.0600 
    237 H237       -5.9177  -15.0600  -55.9602 H         1 UNK         0.0600 
    238 H238       -4.8823  -16.4826  -55.9078 H         1 UNK         0.0600 
    239 H239       -5.7260  -16.0540  -57.3960 H         1 UNK         0.0600 
    240 H240       -6.2309  -18.6521  -54.1908 H         1 UNK         0.3000 
    241 H241       -6.7282  -17.3114  -51.6904 H         1 UNK         0.0600 
    242 H242       -9.0202  -18.9144  -53.8212 H         1 UNK         0.3800 
    243 H243      -10.2162  -19.1734  -52.5788 H         1 UNK         0.3800 
    244 H244       -6.1538  -19.5756  -50.7076 H         1 UNK         0.0800 
    245 H245       -6.0886  -20.2366  -52.3180 H         1 UNK         0.0800 
    246 H246       -4.3781  -17.9725  -49.6574 H         1 UNK         0.0800 
    247 H247       -3.9273  -19.6621  -49.6919 H         1 UNK         0.0800 
@<TRIPOS>BOND
     1    1    2 1    
     2    1  127 1    
     3    1  128 1    
     4    1  129 1    
     5    2    3 2    
     6    2    4 am   BACKBONE|DICT|INTERRES
     7    4    5 1    
     8    4  130 1    
     9    5    6 1    
    10    5   65 1    
    11    5  131 1    
    12    6    7 1    
    13    6  132 1    
    14    6  133 1    
    15    7    8 1    
    16    8    9 1    
    17    8  134 1    
    18    8  135 1    
    19    9   10 ar   
    20    9   14 ar   
    21   10   11 ar   
    22   10  136 1    
    23   11   12 ar   
    24   11  126 1    
    25   12   13 ar   
    26   12  137 1    
    27   13   14 ar   
    28   13   15 1    
    29   14  138 1    
    30   15   16 1    
    31   15  139 1    
    32   15  140 1    
    33   16   17 1    
    34   17   18 1    
    35   17  141 1    
    36   17  142 1    
    37   18   19 1    
    38   18   67 1    
    39   18  143 1    
    40   19   20 am   BACKBONE|DICT|INTERRES
    41   19  144 1    
    42   20   21 2    
    43   20   22 1    
    44   22   23 1    
    45   22   24 1    
    46   22  145 1    
    47   23  146 1    
    48   23  147 1    
    49   23  148 1    
    50   24   25 am   BACKBONE|DICT|INTERRES
    51   24  149 1    
    52   25   26 2    
    53   25   27 1    
    54   27   28 1    
    55   27   29 1    
    56   27  150 1    
    57   28  151 1    
    58   28  152 1    
    59   28  153 1    
    60   29   30 am   BACKBONE|DICT|INTERRES
    61   29  154 1    
    62   30   31 2    
    63   30   32 1    
    64   32   33 1    
    65   32   34 1    
    66   32  155 1    
    67   33  156 1    
    68   33  157 1    
    69   33  158 1    
    70   34   35 am   BACKBONE|DICT|INTERRES
    71   34  159 1    
    72   35   36 2    
    73   35   37 1    
    74   37   38 1    
    75   37   39 1    
    76   37  160 1    
    77   38  161 1    
    78   38  162 1    
    79   38  163 1    
    80   39   40 am   BACKBONE|DICT|INTERRES
    81   39  164 1    
    82   40   41 2    
    83   40   42 1    
    84   42   43 1    
    85   42   44 1    
    86   42  165 1    
    87   43  166 1    
    88   43  167 1    
    89   43  168 1    
    90   44   45 am   BACKBONE|DICT|INTERRES
    91   44  169 1    
    92   45   46 2    
    93   45   47 1    
    94   47   48 1    
    95   47   49 1    
    96   47  170 1    
    97   48  171 1    
    98   48  172 1    
    99   48  173 1    
   100   49   50 am   BACKBONE|DICT|INTERRES
   101   49  174 1    
   102   50   51 2    
   103   50   52 1    
   104   52   53 1    
   105   52   54 1    
   106   52  175 1    
   107   53  176 1    
   108   53  177 1    
   109   53  178 1    
   110   54   55 am   BACKBONE|DICT|INTERRES
   111   54  179 1    
   112   55   56 2    
   113   55   57 1    
   114   57   58 1    
   115   57   59 1    
   116   57  180 1    
   117   58  181 1    
   118   58  182 1    
   119   58  183 1    
   120   59   60 am   BACKBONE|DICT|INTERRES
   121   59  184 1    
   122   60   61 2    
   123   60   62 1    
   124   62   63 1    
   125   62   64 1    
   126   62  185 1    
   127   63  186 1    
   128   63  187 1    
   129   63  188 1    
   130   64   65 am   BACKBONE|DICT|INTERRES
   131   64  189 1    
   132   65   66 2    
   133   67   68 2    
   134   67   69 am   BACKBONE|DICT|INTERRES
   135   69   70 1    
   136   69  190 1    
   137   70   71 1    
   138   70   72 1    
   139   70  191 1    
   140   71  192 1    
   141   71  193 1    
   142   71  194 1    
   143   72   73 2    
   144   72   74 am   BACKBONE|DICT|INTERRES
   145   74   75 1    
   146   74  195 1    
   147   75   76 1    
   148   75   77 1    
   149   75  196 1    
   150   76  197 1    
   151   76  198 1    
   152   76  199 1    
   153   77   78 2    
   154   77   79 am   BACKBONE|DICT|INTERRES
   155   79   80 1    
   156   79  200 1    
   157   80   81 1    
   158   80   82 1    
   159   80  201 1    
   160   81  202 1    
   161   81  203 1    
   162   81  204 1    
   163   82   83 2    
   164   82   84 am   BACKBONE|DICT|INTERRES
   165   84   85 1    
   166   84  205 1    
   167   85   86 1    
   168   85   87 1    
   169   85  206 1    
   170   86  207 1    
   171   86  208 1    
   172   86  209 1    
   173   87   88 2    
   174   87   89 am   BACKBONE|DICT|INTERRES
   175   89   90 1    
   176   89  210 1    
   177   90   91 1    
   178   90   92 1    
   179   90  211 1    
   180   91  212 1    
   181   91  213 1    
   182   91  214 1    
   183   92   93 2    
   184   92   94 am   BACKBONE|DICT|INTERRES
   185   94   95 1    
   186   94  215 1    
   187   95   96 1    
   188   95   97 1    
   189   95  216 1    
   190   96  217 1    
   191   96  218 1    
   192   96  219 1    
   193   97   98 2    
   194   97   99 am   BACKBONE|DICT|INTERRES
   195   99  100 1    
   196   99  220 1    
   197  100  101 1    
   198  100  102 1    
   199  100  221 1    
   200  101  222 1    
   201  101  223 1    
   202  101  224 1    
   203  102  103 2    
   204  102  104 am   BACKBONE|DICT|INTERRES
   205  104  105 1    
   206  104  225 1    
   207  105  106 1    
   208  105  107 1    
   209  105  226 1    
   210  106  227 1    
   211  106  228 1    
   212  106  229 1    
   213  107  108 2    
   214  107  109 am   BACKBONE|DICT|INTERRES
   215  109  110 1    
   216  109  230 1    
   217  110  111 1    
   218  110  112 1    
   219  110  231 1    
   220  111  232 1    
   221  111  233 1    
   222  111  234 1    
   223  112  113 2    
   224  112  114 am   BACKBONE|DICT|INTERRES
   225  114  115 1    
   226  114  235 1    
   227  115  116 1    
   228  115  117 1    
   229  115  236 1    
   230  116  237 1    
   231  116  238 1    
   232  116  239 1    
   233  117  118 2    
   234  117  119 am   BACKBONE|DICT|INTERRES
   235  119  120 1    
   236  119  240 1    
   237  120  121 1    
   238  120  124 1    
   239  120  241 1    
   240  121  122 am   BACKBONE|DICT|INTERRES
   241  121  123 2    
   242  122  242 1    
   243  122  243 1    
   244  124  125 1    
   245  124  244 1    
   246  124  245 1    
   247  125  126 1    
   248  126  246 1    
   249  126  247 1    
@<TRIPOS>SUBSTRUCTURE
     1 UNK         1 GROUP             0       ****    0 ROOT    
