@<TRIPOS>MOLECULE
3R540
247   249    1
SMALL
USER_CHARGES


@<TRIPOS>ATOM
      1 CA          6.7682  -16.5111  -46.2845 C.3       0 UNK        -0.1800 
      2 C           6.0580  -15.1854  -46.5204 C.2       0 UNK         0.5000 
      3 O           6.7153  -14.1792  -46.7836 O.2       0 UNK        -0.5000 
      4 N           4.7205  -15.1844  -46.4188 N.am      1 UNK        -0.5000 
      5 CA          3.8297  -14.0229  -46.5888 C.3       1 UNK         0.1400 
      6 C6          3.8091  -13.4476  -48.0317 C.3       23 UNK        -0.0398 
      7 S7          3.0764  -14.6357  -49.2066 S.3       23 UNK        -0.2404 
      8 C8          4.5482  -15.3381  -50.0083 C.3       23 UNK        -0.0205 
      9 C9          4.3604  -16.8246  -50.2569 C.ar      23 UNK        -0.0193 
     10 C10         3.8484  -17.2831  -51.4734 C.ar      23 UNK        -0.1150 
     11 C11         3.6743  -18.6522  -51.6985 C.ar      23 UNK        -0.0193 
     12 C12         4.0307  -19.5635  -50.6986 C.ar      23 UNK        -0.1150 
     13 C13         4.5157  -19.1142  -49.4678 C.ar      23 UNK        -0.0193 
     14 C14         4.6861  -17.7448  -49.2581 C.ar      23 UNK        -0.1150 
     15 C15         4.8361  -20.1000  -48.3545 C.3       23 UNK        -0.0205 
     16 S16         3.4744  -20.2066  -47.1482 S.3       23 UNK        -0.2404 
     17 C17         2.1622  -20.9827  -48.1506 C.3       23 UNK        -0.0398 
     18 CA          1.3180  -21.9946  -47.3408 C.3       11 UNK         0.1400 
     19 N           0.4770  -21.3476  -46.3278 N.am      11 UNK        -0.5000 
     20 C          -0.1958  -22.0041  -45.3721 C.2       10 UNK         0.5000 
     21 O          -0.0905  -23.2146  -45.1772 O.2       10 UNK        -0.5000 
     22 CA         -1.1877  -21.1893  -44.5190 C.3       10 UNK         0.1400 
     23 CB         -0.4835  -20.5574  -43.3094 C.3       10 UNK        -0.1800 
     24 N          -1.8933  -20.1572  -45.2836 N.am      10 UNK        -0.5000 
     25 C          -2.7383  -20.4117  -46.2936 C.2       9 UNK         0.5000 
     26 O          -3.0281  -21.5451  -46.6690 O.2       9 UNK        -0.5000 
     27 CA         -3.3244  -19.2054  -47.0443 C.3       9 UNK         0.1400 
     28 CB         -4.5172  -18.6122  -46.2824 C.3       9 UNK        -0.1800 
     29 N          -2.3232  -18.1707  -47.2952 N.am      9 UNK        -0.5000 
     30 C          -1.2683  -18.3118  -48.1095 C.2       8 UNK         0.5000 
     31 O          -1.0975  -19.2935  -48.8338 O.2       8 UNK        -0.5000 
     32 CA         -0.2183  -17.1824  -48.0969 C.3       8 UNK         0.1400 
     33 CB         -0.6167  -16.0660  -49.0698 C.3       8 UNK        -0.1800 
     34 N          -0.0101  -16.6198  -46.7597 N.am      8 UNK        -0.5000 
     35 C           0.4679  -17.3201  -45.7212 C.2       7 UNK         0.5000 
     36 O           0.8383  -18.4892  -45.8064 O.2       7 UNK        -0.5000 
     37 CA          0.4664  -16.6319  -44.3454 C.3       7 UNK         0.1400 
     38 CB          1.7222  -15.7792  -44.1229 C.3       7 UNK        -0.1800 
     39 N          -0.7296  -15.8156  -44.1482 N.am      7 UNK        -0.5000 
     40 C          -1.9415  -16.3225  -43.8884 C.2       6 UNK         0.5000 
     41 O          -2.1592  -17.5244  -43.7362 O.2       6 UNK        -0.5000 
     42 CA         -3.1096  -15.3218  -43.8371 C.3       6 UNK         0.1400 
     43 CB         -3.2325  -14.6974  -42.4398 C.3       6 UNK        -0.1800 
     44 N          -2.9807  -14.2639  -44.8423 N.am      6 UNK        -0.5000 
     45 C          -3.1110  -14.4744  -46.1606 C.2       5 UNK         0.5000 
     46 O          -3.3627  -15.5741  -46.6487 O.2       5 UNK        -0.5000 
     47 CA         -2.8918  -13.2762  -47.1019 C.3       5 UNK         0.1400 
     48 CB         -4.2206  -12.5531  -47.3652 C.3       5 UNK        -0.1800 
     49 N          -1.9050  -12.3092  -46.6228 N.am      5 UNK        -0.5000 
     50 C          -0.6204  -12.5710  -46.3478 C.2       4 UNK         0.5000 
     51 O          -0.1152  -13.6932  -46.4332 O.2       4 UNK        -0.5000 
     52 CA          0.2478  -11.3912  -45.8647 C.3       4 UNK         0.1400 
     53 CB         -0.4802  -10.0281  -45.8358 C.3       4 UNK        -0.1800 
     54 N           0.8536  -11.6681  -44.5611 N.am      4 UNK        -0.5000 
     55 C           0.2225  -11.9941  -43.4215 C.2       3 UNK         0.5000 
     56 O          -1.0016  -12.1005  -43.3299 O.2       3 UNK        -0.5000 
     57 CA          1.1073  -12.2771  -42.1888 C.3       3 UNK         0.1400 
     58 CB          0.5079  -13.3749  -41.2911 C.3       3 UNK        -0.1800 
     59 N           2.4596  -12.6736  -42.5887 N.am      3 UNK        -0.5000 
     60 C           3.5477  -11.8948  -42.5419 C.2       2 UNK         0.5000 
     61 O           3.5639  -10.7589  -42.0677 O.2       2 UNK        -0.5000 
     62 CA          4.8262  -12.4761  -43.1766 C.3       2 UNK         0.1400 
     63 CB          5.6377  -13.2601  -42.1344 C.3       2 UNK        -0.1800 
     64 N           4.5597  -13.3448  -44.3289 N.am      2 UNK        -0.5000 
     65 C           4.0358  -12.9420  -45.4980 C.2       1 UNK         0.5000 
     66 O           3.6816  -11.7809  -45.7055 O.2       1 UNK        -0.5000 
     67 C           0.4751  -22.8715  -48.2902 C.2       11 UNK         0.5000 
     68 O           0.8359  -24.0224  -48.5392 O.2       11 UNK        -0.5000 
     69 N          -0.6435  -22.3236  -48.7855 N.am      12 UNK        -0.5000 
     70 CA         -1.5526  -22.9998  -49.7130 C.3       12 UNK         0.1400 
     71 CB         -2.4834  -21.9612  -50.3384 C.3       12 UNK        -0.1800 
     72 C          -2.3594  -24.1522  -49.0867 C.2       12 UNK         0.5000 
     73 O          -2.8337  -25.0199  -49.8211 O.2       12 UNK        -0.5000 
     74 N          -2.4828  -24.1760  -47.7526 N.am      13 UNK        -0.5000 
     75 CA         -3.1285  -25.2390  -46.9773 C.3       13 UNK         0.1400 
     76 CB         -3.1370  -24.8624  -45.4883 C.3       13 UNK        -0.1800 
     77 C          -2.4841  -26.6243  -47.1733 C.2       13 UNK         0.5000 
     78 O          -3.1897  -27.6293  -47.0943 O.2       13 UNK        -0.5000 
     79 N          -1.1823  -26.6567  -47.4953 N.am      14 UNK        -0.5000 
     80 CA         -0.4399  -27.8666  -47.8609 C.3       14 UNK         0.1400 
     81 CB          1.0554  -27.5272  -47.9477 C.3       14 UNK        -0.1800 
     82 C          -0.9244  -28.5105  -49.1781 C.2       14 UNK         0.5000 
     83 O          -0.7641  -29.7185  -49.3543 O.2       14 UNK        -0.5000 
     84 N          -1.5246  -27.7020  -50.0618 N.am      15 UNK        -0.5000 
     85 CA         -2.1556  -28.1228  -51.3135 C.3       15 UNK         0.1400 
     86 CB         -1.7154  -27.1513  -52.4226 C.3       15 UNK        -0.1800 
     87 C          -3.6946  -28.1575  -51.1982 C.2       15 UNK         0.5000 
     88 O          -4.3639  -28.4043  -52.2022 O.2       15 UNK        -0.5000 
     89 N          -4.2287  -27.8865  -49.9951 N.am      16 UNK        -0.5000 
     90 CA         -5.6480  -27.7254  -49.6568 C.3       16 UNK         0.1400 
     91 CB         -6.4039  -29.0619  -49.8061 C.3       16 UNK        -0.1800 
     92 C          -6.3254  -26.5584  -50.4115 C.2       16 UNK         0.5000 
     93 O          -7.5223  -26.6206  -50.6969 O.2       16 UNK        -0.5000 
     94 N          -5.5474  -25.5110  -50.7153 N.am      17 UNK        -0.5000 
     95 CA         -5.9499  -24.3529  -51.5149 C.3       17 UNK         0.1400 
     96 CB         -4.9976  -24.2407  -52.7190 C.3       17 UNK        -0.1800 
     97 C          -5.9821  -23.0592  -50.6784 C.2       17 UNK         0.5000 
     98 O          -5.9021  -21.9655  -51.2403 O.2       17 UNK        -0.5000 
     99 N          -6.1043  -23.1882  -49.3489 N.am      18 UNK        -0.5000 
    100 CA        -6.0925  -22.0880  -48.3761 C.3       18 UNK         0.1400 
    101 CB        -6.2217  -22.6658  -46.9602 C.3       18 UNK        -0.1800 
    102 C         -7.1683  -21.0091  -48.6080 C.2       18 UNK         0.5000 
    103 O         -6.9342  -19.8449  -48.2874 O.2       18 UNK        -0.5000 
    104 N         -8.3119  -21.4085  -49.1814 N.am      19 UNK        -0.5000 
    105 CA        -9.4071  -20.5151  -49.5624 C.3       19 UNK         0.1400 
    106 CB       -10.6483  -21.3585  -49.8920 C.3       19 UNK        -0.1800 
    107 C         -9.0552  -19.5884  -50.7439 C.2       19 UNK         0.5000 
    108 O         -9.5881  -18.4805  -50.8181 O.2       19 UNK        -0.5000 
    109 N         -8.1726  -20.0514  -51.6398 N.am      20 UNK        -0.5000 
    110 CA        -7.6534  -19.2742  -52.7649 C.3       20 UNK         0.1400 
    111 CB        -7.3344  -20.2210  -53.9334 C.3       20 UNK        -0.1800 
    112 C         -6.4058  -18.4704  -52.3594 C.2       20 UNK         0.5000 
    113 O         -6.2695  -17.3216  -52.7821 O.2       20 UNK        -0.5000 
    114 N         -5.5454  -19.0951  -51.5396 N.am      21 UNK        -0.5000 
    115 CA        -4.2403  -18.6368  -51.0523 C.3       21 UNK         0.1400 
    116 CB        -4.3401  -17.2802  -50.3261 C.3       21 UNK        -0.1800 
    117 C         -3.1527  -18.6336  -52.1465 C.2       21 UNK         0.5000 
    118 O         -3.4531  -18.5799  -53.3414 O.2       21 UNK        -0.5000 
    119 N         -1.8925  -18.7397  -51.7101 N.am      22 UNK        -0.5000 
    120 CA        -0.7118  -18.8190  -52.5813 C.3       22 UNK         0.1400 
    121 C         -0.4215  -17.4942  -53.3427 C.2       22 UNK         0.5000 
    122 N          0.0407  -17.5716  -54.5833 N.am      22 UNK        -0.7600 
    123 O         -0.5791  -16.3993  -52.8086 O.2       22 UNK        -0.5000 
    124 C124        0.5244  -19.3030  -51.7823 C.3       23 UNK        -0.0398 
    125 S125        1.6824  -20.2847  -52.7964 S.3       23 UNK        -0.2404 
    126 C126        3.0841  -19.1368  -53.0170 C.3       23 UNK        -0.0205 
    127 H127        7.4938  -16.4091  -45.4775 H         1 UNK         0.0600 
    128 H128        7.3003  -16.8169  -47.1853 H         1 UNK         0.0600 
    129 H129        6.0708  -17.3046  -46.0144 H         1 UNK         0.0600 
    130 H130        4.2505  -16.0558  -46.2192 H         1 UNK         0.3000 
    131 H131        2.8247  -14.4008  -46.4084 H         1 UNK         0.0600 
    132 H132        4.8035  -13.1411  -48.3574 H         1 UNK         0.0800 
    133 H133        3.1881  -12.5519  -48.0835 H         1 UNK         0.0800 
    134 H134        4.7326  -14.8120  -50.9461 H         1 UNK         0.0800 
    135 H135        5.4344  -15.1831  -49.3928 H         1 UNK         0.0800 
    136 H136        3.5764  -16.5707  -52.2397 H         1 UNK         0.1150 
    137 H137        3.8996  -20.6223  -50.8706 H         1 UNK         0.1150 
    138 H138        5.0563  -17.3952  -48.3075 H         1 UNK         0.1150 
    139 H139        5.0491  -21.0898  -48.7613 H         1 UNK         0.0800 
    140 H140        5.7422  -19.7826  -47.8365 H         1 UNK         0.0800 
    141 H141        2.6327  -21.4859  -48.9967 H         1 UNK         0.0800 
    142 H142        1.5347  -20.1965  -48.5735 H         1 UNK         0.0800 
    143 H143        2.0055  -22.6646  -46.8197 H         1 UNK         0.0600 
    144 H144        0.4197  -20.3337  -46.3558 H         1 UNK         0.3000 
    145 H145       -1.9403  -21.8847  -44.1412 H         1 UNK         0.0600 
    146 H146       -1.1866  -20.0050  -42.6859 H         1 UNK         0.0600 
    147 H147       -0.0260  -21.3243  -42.6833 H         1 UNK         0.0600 
    148 H148        0.3070  -19.8722  -43.6130 H         1 UNK         0.0600 
    149 H149       -1.7368  -19.1958  -45.0051 H         1 UNK         0.3000 
    150 H150       -3.6908  -19.5634  -48.0068 H         1 UNK         0.0600 
    151 H151       -5.2649  -19.3773  -46.0706 H         1 UNK         0.0600 
    152 H152       -5.0081  -17.8350  -46.8683 H         1 UNK         0.0600 
    153 H153       -4.2161  -18.1754  -45.3309 H         1 UNK         0.0600 
    154 H154       -2.4574  -17.2868  -46.8135 H         1 UNK         0.3000 
    155 H155        0.7318  -17.6042  -48.4325 H         1 UNK         0.0600 
    156 H156       -1.5914  -15.6473  -48.8238 H         1 UNK         0.0600 
    157 H157       -0.6707  -16.4425  -50.0912 H         1 UNK         0.0600 
    158 H158        0.1084  -15.2526  -49.0609 H         1 UNK         0.0600 
    159 H159       -0.2461  -15.6409  -46.6273 H         1 UNK         0.3000 
    160 H160        0.4757  -17.4243  -43.5939 H         1 UNK         0.0600 
    161 H161        1.6280  -14.8052  -44.5988 H         1 UNK         0.0600 
    162 H162        2.6130  -16.2705  -44.5157 H         1 UNK         0.0600 
    163 H163        1.8921  -15.6171  -43.0592 H         1 UNK         0.0600 
    164 H164       -0.6519  -14.8261  -44.3362 H         1 UNK         0.3000 
    165 H165       -4.0291  -15.8748  -44.0408 H         1 UNK         0.0600 
    166 H166       -4.0892  -14.0259  -42.3817 H         1 UNK         0.0600 
    167 H167       -3.3707  -15.4677  -41.6801 H         1 UNK         0.0600 
    168 H168       -2.3426  -14.1290  -42.1709 H         1 UNK         0.0600 
    169 H169       -2.7281  -13.3415  -44.5118 H         1 UNK         0.3000 
    170 H170       -2.5274  -13.6670  -48.0529 H         1 UNK         0.0600 
    171 H171       -4.9719  -13.2446  -47.7495 H         1 UNK         0.0600 
    172 H172       -4.6219  -12.1044  -46.4556 H         1 UNK         0.0600 
    173 H173       -4.1005  -11.7625  -48.1062 H         1 UNK         0.0600 
    174 H174       -2.2334  -11.3633  -46.4935 H         1 UNK         0.3000 
    175 H175        1.0686  -11.3116  -46.5787 H         1 UNK         0.0600 
    176 H176       -1.3189  -10.0216  -45.1385 H         1 UNK         0.0600 
    177 H177        0.2017   -9.2334  -45.5329 H         1 UNK         0.0600 
    178 H178       -0.8596   -9.7597  -46.8226 H         1 UNK         0.0600 
    179 H179        1.8650  -11.6246  -44.5502 H         1 UNK         0.3000 
    180 H180        1.1419  -11.3539  -41.6072 H         1 UNK         0.0600 
    181 H181        0.3292  -14.2990  -41.8400 H         1 UNK         0.0600 
    182 H182       -0.4461  -13.0560  -40.8698 H         1 UNK         0.0600 
    183 H183        1.1673  -13.6034  -40.4537 H         1 UNK         0.0600 
    184 H184        2.5547  -13.5891  -43.0009 H         1 UNK         0.3000 
    185 H185        5.4336  -11.6371  -43.5228 H         1 UNK         0.0600 
    186 H186        5.8743  -12.6346  -41.2726 H         1 UNK         0.0600 
    187 H187        5.0913  -14.1303  -41.7684 H         1 UNK         0.0600 
    188 H188        6.5834  -13.6075  -42.5510 H         1 UNK         0.0600 
    189 H189        4.8381  -14.3109  -44.2401 H         1 UNK         0.3000 
    190 H190       -0.8745  -21.3666  -48.5425 H         1 UNK         0.3000 
    191 H191       -0.9525  -23.4347  -50.5150 H         1 UNK         0.0600 
    192 H192       -1.9063  -21.2228  -50.8876 H         1 UNK         0.0600 
    193 H193       -3.1683  -22.4175  -51.0499 H         1 UNK         0.0600 
    194 H194       -3.0737  -21.4459  -49.5824 H         1 UNK         0.0600 
    195 H195       -2.1590  -23.3689  -47.2322 H         1 UNK         0.3000 
    196 H196       -4.1619  -25.3095  -47.3211 H         1 UNK         0.0600 
    197 H197       -3.7259  -25.5765  -44.9115 H         1 UNK         0.0600 
    198 H198       -3.5698  -23.8763  -45.3231 H         1 UNK         0.0600 
    199 H199       -2.1308  -24.8593  -45.0700 H         1 UNK         0.0600 
    200 H200       -0.6784  -25.7813  -47.5547 H         1 UNK         0.3000 
    201 H201       -0.5798  -28.6003  -47.0645 H         1 UNK         0.0600 
    202 H202        1.4242  -27.1210  -47.0057 H         1 UNK         0.0600 
    203 H203        1.2557  -26.7941  -48.7302 H         1 UNK         0.0600 
    204 H204        1.6460  -28.4164  -48.1719 H         1 UNK         0.0600 
    205 H205       -1.6434  -26.7234  -49.8265 H         1 UNK         0.3000 
    206 H206       -1.8271  -29.1270  -51.5877 H         1 UNK         0.0600 
    207 H207       -0.6295  -27.1228  -52.5130 H         1 UNK         0.0600 
    208 H208       -2.1123  -27.4545  -53.3922 H         1 UNK         0.0600 
    209 H209       -2.0624  -26.1354  -52.2296 H         1 UNK         0.0600 
    210 H210       -3.5893  -27.7358  -49.2254 H         1 UNK         0.3000 
    211 H211       -5.6753  -27.4524  -48.6010 H         1 UNK         0.0600 
    212 H212       -6.4830  -29.3697  -50.8491 H         1 UNK         0.0600 
    213 H213       -7.4176  -28.9847  -49.4113 H         1 UNK         0.0600 
    214 H214       -5.9041  -29.8601  -49.2573 H         1 UNK         0.0600 
    215 H215       -4.5739  -25.5205  -50.4198 H         1 UNK         0.3000 
    216 H216       -6.9607  -24.4876  -51.9040 H         1 UNK         0.0600 
    217 H217       -5.2509  -23.3901  -53.3530 H         1 UNK         0.0600 
    218 H218       -5.0535  -25.1338  -53.3417 H         1 UNK         0.0600 
    219 H219       -3.9604  -24.1253  -52.4048 H         1 UNK         0.0600 
    220 H220       -6.1778  -24.1219  -48.9742 H         1 UNK         0.3000 
    221 H221       -5.1230  -21.5954  -48.4546 H         1 UNK         0.0600 
    222 H222       -7.1601  -23.2054  -46.8273 H         1 UNK         0.0600 
    223 H223       -5.4050  -23.3499  -46.7408 H         1 UNK         0.0600 
    224 H224       -6.1851  -21.8748  -46.2100 H         1 UNK         0.0600 
    225 H225       -8.4226  -22.3870  -49.4024 H         1 UNK         0.3000 
    226 H226       -9.6430  -19.8813  -48.7049 H         1 UNK         0.0600 
    227 H227      -10.9531  -21.9631  -49.0376 H         1 UNK         0.0600 
    228 H228      -11.4938  -20.7220  -50.1561 H         1 UNK         0.0600 
    229 H229      -10.4677  -22.0298  -50.7325 H         1 UNK         0.0600 
    230 H230       -7.7346  -20.9488  -51.4749 H         1 UNK         0.3000 
    231 H231       -8.4147  -18.5691  -53.1056 H         1 UNK         0.0600 
    232 H232       -8.2225  -20.7668  -54.2518 H         1 UNK         0.0600 
    233 H233       -6.5689  -20.9511  -53.6687 H         1 UNK         0.0600 
    234 H234       -6.9682  -19.6628  -54.7959 H         1 UNK         0.0600 
    235 H235       -5.7505  -20.0677  -51.3286 H         1 UNK         0.3000 
    236 H236       -3.9426  -19.3803  -50.3145 H         1 UNK         0.0600 
    237 H237       -3.3993  -17.0279  -49.8391 H         1 UNK         0.0600 
    238 H238       -4.5731  -16.4638  -51.0094 H         1 UNK         0.0600 
    239 H239       -5.1070  -17.3037  -49.5515 H         1 UNK         0.0600 
    240 H240       -1.7109  -18.8017  -50.7153 H         1 UNK         0.3000 
    241 H241       -0.9496  -19.5811  -53.3268 H         1 UNK         0.0600 
    242 H242        0.2397  -16.7205  -55.0851 H         1 UNK         0.3800 
    243 H243        0.1878  -18.4600  -55.0368 H         1 UNK         0.3800 
    244 H244        0.2154  -19.9752  -50.9819 H         1 UNK         0.0800 
    245 H245        1.0264  -18.4737  -51.2817 H         1 UNK         0.0800 
    246 H246        2.7526  -18.2941  -53.6253 H         1 UNK         0.0800 
    247 H247        3.8656  -19.6402  -53.5873 H         1 UNK         0.0800 
@<TRIPOS>BOND
     1    1    2 1    
     2    1  127 1    
     3    1  128 1    
     4    1  129 1    
     5    2    3 2    
     6    2    4 am   BACKBONE|DICT|INTERRES
     7    4    5 1    
     8    4  130 1    
     9    5    6 1    
    10    5   65 1    
    11    5  131 1    
    12    6    7 1    
    13    6  132 1    
    14    6  133 1    
    15    7    8 1    
    16    8    9 1    
    17    8  134 1    
    18    8  135 1    
    19    9   10 ar   
    20    9   14 ar   
    21   10   11 ar   
    22   10  136 1    
    23   11   12 ar   
    24   11  126 1    
    25   12   13 ar   
    26   12  137 1    
    27   13   14 ar   
    28   13   15 1    
    29   14  138 1    
    30   15   16 1    
    31   15  139 1    
    32   15  140 1    
    33   16   17 1    
    34   17   18 1    
    35   17  141 1    
    36   17  142 1    
    37   18   19 1    
    38   18   67 1    
    39   18  143 1    
    40   19   20 am   BACKBONE|DICT|INTERRES
    41   19  144 1    
    42   20   21 2    
    43   20   22 1    
    44   22   23 1    
    45   22   24 1    
    46   22  145 1    
    47   23  146 1    
    48   23  147 1    
    49   23  148 1    
    50   24   25 am   BACKBONE|DICT|INTERRES
    51   24  149 1    
    52   25   26 2    
    53   25   27 1    
    54   27   28 1    
    55   27   29 1    
    56   27  150 1    
    57   28  151 1    
    58   28  152 1    
    59   28  153 1    
    60   29   30 am   BACKBONE|DICT|INTERRES
    61   29  154 1    
    62   30   31 2    
    63   30   32 1    
    64   32   33 1    
    65   32   34 1    
    66   32  155 1    
    67   33  156 1    
    68   33  157 1    
    69   33  158 1    
    70   34   35 am   BACKBONE|DICT|INTERRES
    71   34  159 1    
    72   35   36 2    
    73   35   37 1    
    74   37   38 1    
    75   37   39 1    
    76   37  160 1    
    77   38  161 1    
    78   38  162 1    
    79   38  163 1    
    80   39   40 am   BACKBONE|DICT|INTERRES
    81   39  164 1    
    82   40   41 2    
    83   40   42 1    
    84   42   43 1    
    85   42   44 1    
    86   42  165 1    
    87   43  166 1    
    88   43  167 1    
    89   43  168 1    
    90   44   45 am   BACKBONE|DICT|INTERRES
    91   44  169 1    
    92   45   46 2    
    93   45   47 1    
    94   47   48 1    
    95   47   49 1    
    96   47  170 1    
    97   48  171 1    
    98   48  172 1    
    99   48  173 1    
   100   49   50 am   BACKBONE|DICT|INTERRES
   101   49  174 1    
   102   50   51 2    
   103   50   52 1    
   104   52   53 1    
   105   52   54 1    
   106   52  175 1    
   107   53  176 1    
   108   53  177 1    
   109   53  178 1    
   110   54   55 am   BACKBONE|DICT|INTERRES
   111   54  179 1    
   112   55   56 2    
   113   55   57 1    
   114   57   58 1    
   115   57   59 1    
   116   57  180 1    
   117   58  181 1    
   118   58  182 1    
   119   58  183 1    
   120   59   60 am   BACKBONE|DICT|INTERRES
   121   59  184 1    
   122   60   61 2    
   123   60   62 1    
   124   62   63 1    
   125   62   64 1    
   126   62  185 1    
   127   63  186 1    
   128   63  187 1    
   129   63  188 1    
   130   64   65 am   BACKBONE|DICT|INTERRES
   131   64  189 1    
   132   65   66 2    
   133   67   68 2    
   134   67   69 am   BACKBONE|DICT|INTERRES
   135   69   70 1    
   136   69  190 1    
   137   70   71 1    
   138   70   72 1    
   139   70  191 1    
   140   71  192 1    
   141   71  193 1    
   142   71  194 1    
   143   72   73 2    
   144   72   74 am   BACKBONE|DICT|INTERRES
   145   74   75 1    
   146   74  195 1    
   147   75   76 1    
   148   75   77 1    
   149   75  196 1    
   150   76  197 1    
   151   76  198 1    
   152   76  199 1    
   153   77   78 2    
   154   77   79 am   BACKBONE|DICT|INTERRES
   155   79   80 1    
   156   79  200 1    
   157   80   81 1    
   158   80   82 1    
   159   80  201 1    
   160   81  202 1    
   161   81  203 1    
   162   81  204 1    
   163   82   83 2    
   164   82   84 am   BACKBONE|DICT|INTERRES
   165   84   85 1    
   166   84  205 1    
   167   85   86 1    
   168   85   87 1    
   169   85  206 1    
   170   86  207 1    
   171   86  208 1    
   172   86  209 1    
   173   87   88 2    
   174   87   89 am   BACKBONE|DICT|INTERRES
   175   89   90 1    
   176   89  210 1    
   177   90   91 1    
   178   90   92 1    
   179   90  211 1    
   180   91  212 1    
   181   91  213 1    
   182   91  214 1    
   183   92   93 2    
   184   92   94 am   BACKBONE|DICT|INTERRES
   185   94   95 1    
   186   94  215 1    
   187   95   96 1    
   188   95   97 1    
   189   95  216 1    
   190   96  217 1    
   191   96  218 1    
   192   96  219 1    
   193   97   98 2    
   194   97   99 am   BACKBONE|DICT|INTERRES
   195   99  100 1    
   196   99  220 1    
   197  100  101 1    
   198  100  102 1    
   199  100  221 1    
   200  101  222 1    
   201  101  223 1    
   202  101  224 1    
   203  102  103 2    
   204  102  104 am   BACKBONE|DICT|INTERRES
   205  104  105 1    
   206  104  225 1    
   207  105  106 1    
   208  105  107 1    
   209  105  226 1    
   210  106  227 1    
   211  106  228 1    
   212  106  229 1    
   213  107  108 2    
   214  107  109 am   BACKBONE|DICT|INTERRES
   215  109  110 1    
   216  109  230 1    
   217  110  111 1    
   218  110  112 1    
   219  110  231 1    
   220  111  232 1    
   221  111  233 1    
   222  111  234 1    
   223  112  113 2    
   224  112  114 am   BACKBONE|DICT|INTERRES
   225  114  115 1    
   226  114  235 1    
   227  115  116 1    
   228  115  117 1    
   229  115  236 1    
   230  116  237 1    
   231  116  238 1    
   232  116  239 1    
   233  117  118 2    
   234  117  119 am   BACKBONE|DICT|INTERRES
   235  119  120 1    
   236  119  240 1    
   237  120  121 1    
   238  120  124 1    
   239  120  241 1    
   240  121  122 am   BACKBONE|DICT|INTERRES
   241  121  123 2    
   242  122  242 1    
   243  122  243 1    
   244  124  125 1    
   245  124  244 1    
   246  124  245 1    
   247  125  126 1    
   248  126  246 1    
   249  126  247 1    
@<TRIPOS>SUBSTRUCTURE
     1 UNK         1 GROUP             0       ****    0 ROOT    
