@<TRIPOS>MOLECULE
3R540
247   249    1
SMALL
USER_CHARGES


@<TRIPOS>ATOM
      1 CA          6.0322  -11.5639  -52.9535 C.3       0 UNK        -0.1800 
      2 C           5.3022  -11.6331  -51.6194 C.2       0 UNK         0.5000 
      3 O           5.1285  -10.6067  -50.9612 O.2       0 UNK        -0.5000 
      4 N           4.8837  -12.8380  -51.2159 N.am      1 UNK        -0.5000 
      5 CA          4.1210  -13.0938  -49.9896 C.3       1 UNK         0.1400 
      6 C6          4.0784  -14.5991  -49.6239 C.3       23 UNK        -0.0398 
      7 S7          5.7279  -15.3613  -49.4604 S.3       23 UNK        -0.2404 
      8 C8          5.7854  -16.4312  -50.9352 C.3       23 UNK        -0.0205 
      9 C9          4.7917  -17.5821  -50.8529 C.ar      23 UNK        -0.0193 
     10 C10         3.6264  -17.5730  -51.6262 C.ar      23 UNK        -0.1150 
     11 C11         2.7160  -18.6309  -51.5523 C.ar      23 UNK        -0.0193 
     12 C12         2.9913  -19.7156  -50.7137 C.ar      23 UNK        -0.1150 
     13 C13         4.1542  -19.7390  -49.9350 C.ar      23 UNK        -0.0193 
     14 C14         5.0470  -18.6660  -50.0093 C.ar      23 UNK        -0.1150 
     15 C15         4.4714  -20.9249  -49.0317 C.3       23 UNK        -0.0205 
     16 S16         3.3968  -20.9840  -47.5610 S.3       23 UNK        -0.2404 
     17 C17         1.9927  -21.9744  -48.1739 C.3       23 UNK        -0.0398 
     18 CA          1.7569  -23.2490  -47.3312 C.3       11 UNK         0.1400 
     19 N           1.2779  -22.9194  -45.9856 N.am      11 UNK        -0.5000 
     20 C           1.0610  -23.8048  -45.0035 C.2       10 UNK         0.5000 
     21 O           1.3785  -24.9942  -45.0743 O.2       10 UNK        -0.5000 
     22 CA          0.3637  -23.2579  -43.7420 C.3       10 UNK         0.1400 
     23 CB          0.3146  -24.2680  -42.5767 C.3       10 UNK        -0.1800 
     24 N           0.9195  -21.9766  -43.3054 N.am      10 UNK        -0.5000 
     25 C           2.1668  -21.7196  -42.8849 C.2       9 UNK         0.5000 
     26 O           3.0430  -22.5767  -42.7634 O.2       9 UNK        -0.5000 
     27 CA          2.5034  -20.2527  -42.5438 C.3       9 UNK         0.1400 
     28 CB          3.4451  -19.6633  -43.6060 C.3       9 UNK        -0.1800 
     29 N           1.3239  -19.3913  -42.4278 N.am      9 UNK        -0.5000 
     30 C           0.4472  -19.4092  -41.4146 C.2       8 UNK         0.5000 
     31 O           0.5761  -20.1119  -40.4117 O.2       8 UNK        -0.5000 
     32 CA         -0.8046  -18.5223  -41.5672 C.3       8 UNK         0.1400 
     33 CB         -0.5194  -17.0888  -41.0952 C.3       8 UNK        -0.1800 
     34 N          -1.3228  -18.4938  -42.9382 N.am      8 UNK        -0.5000 
     35 C          -1.8388  -19.5529  -43.5796 C.2       7 UNK         0.5000 
     36 O          -1.9655  -20.6652  -43.0687 O.2       7 UNK        -0.5000 
     37 CA         -2.2377  -19.3515  -45.0519 C.3       7 UNK         0.1400 
     38 CB         -3.6027  -18.6555  -45.1605 C.3       7 UNK        -0.1800 
     39 N          -1.2331  -18.5995  -45.8053 N.am      7 UNK        -0.5000 
     40 C           0.0114  -19.0343  -46.0533 C.2       6 UNK         0.5000 
     41 O           0.4168  -20.1521  -45.7337 O.2       6 UNK        -0.5000 
     42 CA          0.9763  -18.0403  -46.7299 C.3       6 UNK         0.1400 
     43 CB          0.7916  -18.0431  -48.2524 C.3       6 UNK        -0.1800 
     44 N           0.8242  -16.6756  -46.2221 N.am      6 UNK        -0.5000 
     45 C           1.0599  -16.3099  -44.9540 C.2       5 UNK         0.5000 
     46 O           1.5024  -17.0698  -44.0951 O.2       5 UNK        -0.5000 
     47 CA          0.6724  -14.8757  -44.5597 C.3       5 UNK         0.1400 
     48 CB          1.7894  -13.8798  -44.9075 C.3       5 UNK        -0.1800 
     49 N          -0.5870  -14.4701  -45.1855 N.am      5 UNK        -0.5000 
     50 C          -1.7864  -14.9555  -44.8307 C.2       4 UNK         0.5000 
     51 O          -1.9495  -15.7485  -43.9038 O.2       4 UNK        -0.5000 
     52 CA         -2.9993  -14.5136  -45.6720 C.3       4 UNK         0.1400 
     53 CB         -3.5767  -13.1960  -45.1347 C.3       4 UNK        -0.1800 
     54 N          -2.6711  -14.3550  -47.0891 N.am      4 UNK        -0.5000 
     55 C          -2.3663  -15.3657  -47.9158 C.2       3 UNK         0.5000 
     56 O          -2.4168  -16.5503  -47.5886 O.2       3 UNK        -0.5000 
     57 CA         -1.8587  -14.9824  -49.3205 C.3       3 UNK         0.1400 
     58 CB         -2.9999  -14.9611  -50.3420 C.3       3 UNK        -0.1800 
     59 N          -1.1623  -13.6929  -49.3468 N.am      3 UNK        -0.5000 
     60 C           0.0097  -13.4810  -48.7393 C.2       2 UNK         0.5000 
     61 O           0.5866  -14.3377  -48.0643 O.2       2 UNK        -0.5000 
     62 CA          0.6235  -12.0763  -48.8636 C.3       2 UNK         0.1400 
     63 CB          0.2946  -11.2343  -47.6213 C.3       2 UNK        -0.1800 
     64 N           2.0729  -12.2004  -48.9933 N.am      2 UNK        -0.5000 
     65 C           2.6742  -12.5816  -50.1258 C.2       1 UNK         0.5000 
     66 O           2.1084  -12.6159  -51.2223 O.2       1 UNK        -0.5000 
     67 C           0.7470  -24.1594  -48.0592 C.2       11 UNK         0.5000 
     68 O          -0.4582  -23.9837  -47.8822 O.2       11 UNK        -0.5000 
     69 N           1.2423  -25.0710  -48.9086 N.am      12 UNK        -0.5000 
     70 CA          0.4355  -26.0361  -49.6692 C.3       12 UNK         0.1400 
     71 CB          1.3705  -26.9500  -50.4753 C.3       12 UNK        -0.1800 
     72 C          -0.6177  -25.3922  -50.5954 C.2       12 UNK         0.5000 
     73 O          -1.6996  -25.9510  -50.7740 O.2       12 UNK        -0.5000 
     74 N          -0.2947  -24.2077  -51.1303 N.am      13 UNK        -0.5000 
     75 CA         -1.1799  -23.3849  -51.9564 C.3       13 UNK         0.1400 
     76 CB         -0.3227  -22.3424  -52.6899 C.3       13 UNK        -0.1800 
     77 C          -2.3032  -22.6822  -51.1658 C.2       13 UNK         0.5000 
     78 O          -3.2444  -22.1921  -51.7871 O.2       13 UNK        -0.5000 
     79 N          -2.1825  -22.6263  -49.8336 N.am      14 UNK        -0.5000 
     80 CA         -3.0832  -21.9222  -48.9205 C.3       14 UNK         0.1400 
     81 CB         -2.3704  -20.6516  -48.4322 C.3       14 UNK        -0.1800 
     82 C          -3.5213  -22.8440  -47.7617 C.2       14 UNK         0.5000 
     83 O          -3.8649  -22.3693  -46.6763 O.2       14 UNK        -0.5000 
     84 N          -3.4974  -24.1634  -48.0097 N.am      15 UNK        -0.5000 
     85 CA         -3.6986  -25.2323  -47.0247 C.3       15 UNK         0.1400 
     86 CB         -3.3195  -26.5739  -47.6690 C.3       15 UNK        -0.1800 
     87 C          -5.1162  -25.3017  -46.4238 C.2       15 UNK         0.5000 
     88 O          -5.3131  -25.9666  -45.4065 O.2       15 UNK        -0.5000 
     89 N          -6.0711  -24.5979  -47.0436 N.am      16 UNK        -0.5000 
     90 CA         -7.4456  -24.4208  -46.5754 C.3       16 UNK         0.1400 
     91 CB         -8.2789  -23.8750  -47.7479 C.3       16 UNK        -0.1800 
     92 C          -7.5752  -23.4904  -45.3482 C.2       16 UNK         0.5000 
     93 O          -8.6855  -23.3411  -44.8370 O.2       16 UNK        -0.5000 
     94 N          -6.4671  -22.8559  -44.9269 N.am      17 UNK        -0.5000 
     95 CA         -6.3870  -21.7672  -43.9430 C.3       17 UNK         0.1400 
     96 CB         -6.8777  -22.2070  -42.5478 C.3       17 UNK        -0.1800 
     97 C          -7.0768  -20.4921  -44.4715 C.2       17 UNK         0.5000 
     98 O          -7.7268  -19.7588  -43.7249 O.2       17 UNK        -0.5000 
     99 N          -6.9056  -20.2728  -45.7761 N.am      18 UNK        -0.5000 
    100 CA        -7.4037  -19.1781  -46.5902 C.3       18 UNK         0.1400 
    101 CB        -8.8696  -19.4409  -46.9779 C.3       18 UNK        -0.1800 
    102 C         -6.4951  -19.1191  -47.8268 C.2       18 UNK         0.5000 
    103 O         -5.7337  -20.0620  -48.0576 O.2       18 UNK        -0.5000 
    104 N         -6.5853  -18.0223  -48.5901 N.am      19 UNK        -0.5000 
    105 CA        -5.7273  -17.7145  -49.7401 C.3       19 UNK         0.1400 
    106 CB        -6.2158  -16.4108  -50.3926 C.3       19 UNK        -0.1800 
    107 C         -5.6263  -18.8417  -50.7859 C.2       19 UNK         0.5000 
    108 O         -4.5167  -19.2192  -51.1602 O.2       19 UNK        -0.5000 
    109 N         -6.7898  -19.3754  -51.1886 N.am      20 UNK        -0.5000 
    110 CA        -6.9786  -20.4967  -52.1127 C.3       20 UNK         0.1400 
    111 CB        -6.6606  -21.8310  -51.4061 C.3       20 UNK        -0.1800 
    112 C         -6.2448  -20.2932  -53.4567 C.2       20 UNK         0.5000 
    113 O         -6.7156  -19.4972  -54.2712 O.2       20 UNK        -0.5000 
    114 N         -5.1303  -21.0040  -53.6760 N.am      21 UNK        -0.5000 
    115 CA        -4.3184  -20.9112  -54.8902 C.3       21 UNK         0.1400 
    116 CB        -3.7119  -22.2907  -55.1946 C.3       21 UNK        -0.1800 
    117 C         -3.2145  -19.8401  -54.7933 C.2       21 UNK         0.5000 
    118 O         -2.6743  -19.4494  -55.8296 O.2       21 UNK        -0.5000 
    119 N         -2.8862  -19.3870  -53.5768 N.am      22 UNK        -0.5000 
    120 CA        -1.9434  -18.2903  -53.3236 C.3       22 UNK         0.1400 
    121 C         -2.5881  -16.9008  -53.5994 C.2       22 UNK         0.5000 
    122 N         -1.8058  -15.9221  -54.0337 N.am      22 UNK        -0.7600 
    123 O         -3.7834  -16.6906  -53.4067 O.2       22 UNK        -0.5000 
    124 C124       -1.3523  -18.3971  -51.8941 C.3       23 UNK        -0.0398 
    125 S125        0.2064  -17.4691  -51.6775 S.3       23 UNK        -0.2404 
    126 C126        1.4422  -18.6051  -52.3852 C.3       23 UNK        -0.0205 
    127 H127        6.1266  -12.5469  -53.4158 H         1 UNK         0.0600 
    128 H128        7.0337  -11.1573  -52.8128 H         1 UNK         0.0600 
    129 H129        5.4928  -10.9144  -53.6429 H         1 UNK         0.0600 
    130 H130        5.0376  -13.6390  -51.8090 H         1 UNK         0.3000 
    131 H131        4.6056  -12.5543  -49.1728 H         1 UNK         0.0600 
    132 H132        3.5643  -14.7413  -48.6710 H         1 UNK         0.0800 
    133 H133        3.4879  -15.1501  -50.3562 H         1 UNK         0.0800 
    134 H134        5.6113  -15.8322  -51.8299 H         1 UNK         0.0800 
    135 H135        6.7934  -16.8366  -51.0346 H         1 UNK         0.0800 
    136 H136        3.4186  -16.7382  -52.2807 H         1 UNK         0.1150 
    137 H137        2.2940  -20.5376  -50.6683 H         1 UNK         0.1150 
    138 H138        5.9485  -18.6723  -49.4126 H         1 UNK         0.1150 
    139 H139        4.4048  -21.8545  -49.5982 H         1 UNK         0.0800 
    140 H140        5.5052  -20.8655  -48.6878 H         1 UNK         0.0800 
    141 H141        2.1778  -22.2438  -49.2138 H         1 UNK         0.0800 
    142 H142        1.0991  -21.3485  -48.1807 H         1 UNK         0.0800 
    143 H143        2.6986  -23.7924  -47.2303 H         1 UNK         0.0600 
    144 H144        0.9917  -21.9536  -45.8417 H         1 UNK         0.3000 
    145 H145       -0.6665  -23.0518  -44.0366 H         1 UNK         0.0600 
    146 H146       -0.2027  -23.8477  -41.7142 H         1 UNK         0.0600 
    147 H147       -0.2220  -25.1717  -42.8677 H         1 UNK         0.0600 
    148 H148        1.3120  -24.5701  -42.2562 H         1 UNK         0.0600 
    149 H149        0.2908  -21.1886  -43.3904 H         1 UNK         0.3000 
    150 H150        3.0255  -20.2509  -41.5850 H         1 UNK         0.0600 
    151 H151        4.3563  -20.2557  -43.6969 H         1 UNK         0.0600 
    152 H152        3.7428  -18.6464  -43.3504 H         1 UNK         0.0600 
    153 H153        2.9727  -19.6378  -44.5885 H         1 UNK         0.0600 
    154 H154        1.1865  -18.7167  -43.1760 H         1 UNK         0.3000 
    155 H155       -1.5845  -18.9396  -40.9269 H         1 UNK         0.0600 
    156 H156       -0.1738  -17.0802  -40.0608 H         1 UNK         0.0600 
    157 H157       -1.4166  -16.4715  -41.1441 H         1 UNK         0.0600 
    158 H158        0.2494  -16.6100  -41.7016 H         1 UNK         0.0600 
    159 H159       -1.3016  -17.5972  -43.4136 H         1 UNK         0.3000 
    160 H160       -2.3252  -20.3415  -45.5032 H         1 UNK         0.0600 
    161 H161       -3.5882  -17.6595  -44.7205 H         1 UNK         0.0600 
    162 H162       -4.3698  -19.2287  -44.6414 H         1 UNK         0.0600 
    163 H163       -3.9165  -18.5554  -46.1990 H         1 UNK         0.0600 
    164 H164       -1.5195  -17.7008  -46.1783 H         1 UNK         0.3000 
    165 H165        1.9958  -18.3643  -46.5124 H         1 UNK         0.0600 
    166 H166        1.4954  -17.3661  -48.7378 H         1 UNK         0.0600 
    167 H167        0.9630  -19.0359  -48.6663 H         1 UNK         0.0600 
    168 H168       -0.2157  -17.7438  -48.5391 H         1 UNK         0.0600 
    169 H169        0.5138  -15.9687  -46.8806 H         1 UNK         0.3000 
    170 H170        0.5355  -14.8534  -43.4765 H         1 UNK         0.0600 
    171 H171        2.7110  -14.1380  -44.3845 H         1 UNK         0.0600 
    172 H172        2.0157  -13.8701  -45.9730 H         1 UNK         0.0600 
    173 H173        1.5214  -12.8664  -44.6090 H         1 UNK         0.0600 
    174 H174       -0.5190  -13.8758  -45.9978 H         1 UNK         0.3000 
    175 H175       -3.7671  -15.2850  -45.5828 H         1 UNK         0.0600 
    176 H176       -3.8494  -13.2905  -44.0827 H         1 UNK         0.0600 
    177 H177       -2.8602  -12.3776  -45.2161 H         1 UNK         0.0600 
    178 H178       -4.4774  -12.9098  -45.6781 H         1 UNK         0.0600 
    179 H179       -2.6134  -13.4117  -47.4425 H         1 UNK         0.3000 
    180 H180       -1.1464  -15.7488  -49.6306 H         1 UNK         0.0600 
    181 H181       -3.4119  -15.9608  -50.4668 H         1 UNK         0.0600 
    182 H182       -3.8087  -14.2954  -50.0389 H         1 UNK         0.0600 
    183 H183       -2.6482  -14.6415  -51.3230 H         1 UNK         0.0600 
    184 H184       -1.5896  -12.9524  -49.8845 H         1 UNK         0.3000 
    185 H185        0.2168  -11.5759  -49.7451 H         1 UNK         0.0600 
    186 H186       -0.7832  -11.1158  -47.5027 H         1 UNK         0.0600 
    187 H187        0.6776  -11.6898  -46.7079 H         1 UNK         0.0600 
    188 H188        0.7230  -10.2349  -47.7002 H         1 UNK         0.0600 
    189 H189        2.5926  -12.2309  -48.1284 H         1 UNK         0.3000 
    190 H190        2.2439  -25.1541  -49.0099 H         1 UNK         0.3000 
    191 H191       -0.0997  -26.6543  -48.9464 H         1 UNK         0.0600 
    192 H192        1.9662  -26.3847  -51.1931 H         1 UNK         0.0600 
    193 H193        0.8025  -27.6948  -51.0345 H         1 UNK         0.0600 
    194 H194        2.0550  -27.4906  -49.8214 H         1 UNK         0.0600 
    195 H195        0.6213  -23.8326  -50.9365 H         1 UNK         0.3000 
    196 H196       -1.6569  -24.0257  -52.7009 H         1 UNK         0.0600 
    197 H197       -0.9351  -21.6910  -53.3146 H         1 UNK         0.0600 
    198 H198        0.4094  -22.8201  -53.3412 H         1 UNK         0.0600 
    199 H199        0.2162  -21.7110  -51.9840 H         1 UNK         0.0600 
    200 H200       -1.4126  -23.1093  -49.3808 H         1 UNK         0.3000 
    201 H201       -3.9934  -21.6206  -49.4388 H         1 UNK         0.0600 
    202 H202       -3.0327  -20.0464  -47.8156 H         1 UNK         0.0600 
    203 H203       -1.4865  -20.8952  -47.8430 H         1 UNK         0.0600 
    204 H204       -2.0583  -20.0260  -49.2681 H         1 UNK         0.0600 
    205 H205       -3.2001  -24.4595  -48.9284 H         1 UNK         0.3000 
    206 H206       -3.0109  -25.0472  -46.1969 H         1 UNK         0.0600 
    207 H207       -2.2754  -26.5761  -47.9789 H         1 UNK         0.0600 
    208 H208       -3.4483  -27.3997  -46.9681 H         1 UNK         0.0600 
    209 H209       -3.9316  -26.7864  -48.5463 H         1 UNK         0.0600 
    210 H210       -5.8066  -24.0817  -47.8695 H         1 UNK         0.3000 
    211 H211       -7.8436  -25.3969  -46.2908 H         1 UNK         0.0600 
    212 H212       -9.3290  -23.7729  -47.4710 H         1 UNK         0.0600 
    213 H213       -8.2366  -24.5427  -48.6086 H         1 UNK         0.0600 
    214 H214       -7.9274  -22.8924  -48.0665 H         1 UNK         0.0600 
    215 H215       -5.6105  -23.0296  -45.4396 H         1 UNK         0.3000 
    216 H216       -5.3272  -21.5237  -43.8522 H         1 UNK         0.0600 
    217 H217       -6.6518  -21.4447  -41.8014 H         1 UNK         0.0600 
    218 H218       -6.3884  -23.1276  -42.2299 H         1 UNK         0.0600 
    219 H219       -7.9549  -22.3721  -42.5240 H         1 UNK         0.0600 
    220 H220       -6.2937  -20.8894  -46.3004 H         1 UNK         0.3000 
    221 H221       -7.3160  -18.2412  -46.0368 H         1 UNK         0.0600 
    222 H222       -8.9738  -20.3671  -47.5448 H         1 UNK         0.0600 
    223 H223       -9.5041  -19.5183  -46.0948 H         1 UNK         0.0600 
    224 H224       -9.2666  -18.6317  -47.5914 H         1 UNK         0.0600 
    225 H225       -7.2499  -17.3080  -48.3310 H         1 UNK         0.3000 
    226 H226       -4.7215  -17.5506  -49.3482 H         1 UNK         0.0600 
    227 H227       -5.6417  -16.1791  -51.2907 H         1 UNK         0.0600 
    228 H228       -7.2636  -16.4753  -50.6878 H         1 UNK         0.0600 
    229 H229       -6.1106  -15.5659  -49.7119 H         1 UNK         0.0600 
    230 H230       -7.6377  -18.9730  -50.8171 H         1 UNK         0.3000 
    231 H231       -8.0417  -20.5135  -52.3575 H         1 UNK         0.0600 
    232 H232       -7.3441  -22.0005  -50.5742 H         1 UNK         0.0600 
    233 H233       -5.6516  -21.8480  -51.0018 H         1 UNK         0.0600 
    234 H234       -6.7639  -22.6769  -52.0867 H         1 UNK         0.0600 
    235 H235       -4.7381  -21.5597  -52.9201 H         1 UNK         0.3000 
    236 H236       -4.9572  -20.6410  -55.7337 H         1 UNK         0.0600 
    237 H237       -4.4888  -23.0473  -55.3043 H         1 UNK         0.0600 
    238 H238       -3.1446  -22.2706  -56.1259 H         1 UNK         0.0600 
    239 H239       -3.0339  -22.6186  -54.4076 H         1 UNK         0.0600 
    240 H240       -3.4400  -19.6840  -52.7778 H         1 UNK         0.3000 
    241 H241       -1.1186  -18.4152  -54.0280 H         1 UNK         0.0600 
    242 H242       -0.8166  -16.0599  -54.1688 H         1 UNK         0.3800 
    243 H243       -2.2100  -15.0170  -54.2145 H         1 UNK         0.3800 
    244 H244       -2.0712  -18.0453  -51.1523 H         1 UNK         0.0800 
    245 H245       -1.1624  -19.4404  -51.6386 H         1 UNK         0.0800 
    246 H246        1.6751  -18.2873  -53.4024 H         1 UNK         0.0800 
    247 H247        1.0301  -19.6092  -52.4718 H         1 UNK         0.0800 
@<TRIPOS>BOND
     1    1    2 1    
     2    1  127 1    
     3    1  128 1    
     4    1  129 1    
     5    2    3 2    
     6    2    4 am   BACKBONE|DICT|INTERRES
     7    4    5 1    
     8    4  130 1    
     9    5    6 1    
    10    5   65 1    
    11    5  131 1    
    12    6    7 1    
    13    6  132 1    
    14    6  133 1    
    15    7    8 1    
    16    8    9 1    
    17    8  134 1    
    18    8  135 1    
    19    9   10 ar   
    20    9   14 ar   
    21   10   11 ar   
    22   10  136 1    
    23   11   12 ar   
    24   11  126 1    
    25   12   13 ar   
    26   12  137 1    
    27   13   14 ar   
    28   13   15 1    
    29   14  138 1    
    30   15   16 1    
    31   15  139 1    
    32   15  140 1    
    33   16   17 1    
    34   17   18 1    
    35   17  141 1    
    36   17  142 1    
    37   18   19 1    
    38   18   67 1    
    39   18  143 1    
    40   19   20 am   BACKBONE|DICT|INTERRES
    41   19  144 1    
    42   20   21 2    
    43   20   22 1    
    44   22   23 1    
    45   22   24 1    
    46   22  145 1    
    47   23  146 1    
    48   23  147 1    
    49   23  148 1    
    50   24   25 am   BACKBONE|DICT|INTERRES
    51   24  149 1    
    52   25   26 2    
    53   25   27 1    
    54   27   28 1    
    55   27   29 1    
    56   27  150 1    
    57   28  151 1    
    58   28  152 1    
    59   28  153 1    
    60   29   30 am   BACKBONE|DICT|INTERRES
    61   29  154 1    
    62   30   31 2    
    63   30   32 1    
    64   32   33 1    
    65   32   34 1    
    66   32  155 1    
    67   33  156 1    
    68   33  157 1    
    69   33  158 1    
    70   34   35 am   BACKBONE|DICT|INTERRES
    71   34  159 1    
    72   35   36 2    
    73   35   37 1    
    74   37   38 1    
    75   37   39 1    
    76   37  160 1    
    77   38  161 1    
    78   38  162 1    
    79   38  163 1    
    80   39   40 am   BACKBONE|DICT|INTERRES
    81   39  164 1    
    82   40   41 2    
    83   40   42 1    
    84   42   43 1    
    85   42   44 1    
    86   42  165 1    
    87   43  166 1    
    88   43  167 1    
    89   43  168 1    
    90   44   45 am   BACKBONE|DICT|INTERRES
    91   44  169 1    
    92   45   46 2    
    93   45   47 1    
    94   47   48 1    
    95   47   49 1    
    96   47  170 1    
    97   48  171 1    
    98   48  172 1    
    99   48  173 1    
   100   49   50 am   BACKBONE|DICT|INTERRES
   101   49  174 1    
   102   50   51 2    
   103   50   52 1    
   104   52   53 1    
   105   52   54 1    
   106   52  175 1    
   107   53  176 1    
   108   53  177 1    
   109   53  178 1    
   110   54   55 am   BACKBONE|DICT|INTERRES
   111   54  179 1    
   112   55   56 2    
   113   55   57 1    
   114   57   58 1    
   115   57   59 1    
   116   57  180 1    
   117   58  181 1    
   118   58  182 1    
   119   58  183 1    
   120   59   60 am   BACKBONE|DICT|INTERRES
   121   59  184 1    
   122   60   61 2    
   123   60   62 1    
   124   62   63 1    
   125   62   64 1    
   126   62  185 1    
   127   63  186 1    
   128   63  187 1    
   129   63  188 1    
   130   64   65 am   BACKBONE|DICT|INTERRES
   131   64  189 1    
   132   65   66 2    
   133   67   68 2    
   134   67   69 am   BACKBONE|DICT|INTERRES
   135   69   70 1    
   136   69  190 1    
   137   70   71 1    
   138   70   72 1    
   139   70  191 1    
   140   71  192 1    
   141   71  193 1    
   142   71  194 1    
   143   72   73 2    
   144   72   74 am   BACKBONE|DICT|INTERRES
   145   74   75 1    
   146   74  195 1    
   147   75   76 1    
   148   75   77 1    
   149   75  196 1    
   150   76  197 1    
   151   76  198 1    
   152   76  199 1    
   153   77   78 2    
   154   77   79 am   BACKBONE|DICT|INTERRES
   155   79   80 1    
   156   79  200 1    
   157   80   81 1    
   158   80   82 1    
   159   80  201 1    
   160   81  202 1    
   161   81  203 1    
   162   81  204 1    
   163   82   83 2    
   164   82   84 am   BACKBONE|DICT|INTERRES
   165   84   85 1    
   166   84  205 1    
   167   85   86 1    
   168   85   87 1    
   169   85  206 1    
   170   86  207 1    
   171   86  208 1    
   172   86  209 1    
   173   87   88 2    
   174   87   89 am   BACKBONE|DICT|INTERRES
   175   89   90 1    
   176   89  210 1    
   177   90   91 1    
   178   90   92 1    
   179   90  211 1    
   180   91  212 1    
   181   91  213 1    
   182   91  214 1    
   183   92   93 2    
   184   92   94 am   BACKBONE|DICT|INTERRES
   185   94   95 1    
   186   94  215 1    
   187   95   96 1    
   188   95   97 1    
   189   95  216 1    
   190   96  217 1    
   191   96  218 1    
   192   96  219 1    
   193   97   98 2    
   194   97   99 am   BACKBONE|DICT|INTERRES
   195   99  100 1    
   196   99  220 1    
   197  100  101 1    
   198  100  102 1    
   199  100  221 1    
   200  101  222 1    
   201  101  223 1    
   202  101  224 1    
   203  102  103 2    
   204  102  104 am   BACKBONE|DICT|INTERRES
   205  104  105 1    
   206  104  225 1    
   207  105  106 1    
   208  105  107 1    
   209  105  226 1    
   210  106  227 1    
   211  106  228 1    
   212  106  229 1    
   213  107  108 2    
   214  107  109 am   BACKBONE|DICT|INTERRES
   215  109  110 1    
   216  109  230 1    
   217  110  111 1    
   218  110  112 1    
   219  110  231 1    
   220  111  232 1    
   221  111  233 1    
   222  111  234 1    
   223  112  113 2    
   224  112  114 am   BACKBONE|DICT|INTERRES
   225  114  115 1    
   226  114  235 1    
   227  115  116 1    
   228  115  117 1    
   229  115  236 1    
   230  116  237 1    
   231  116  238 1    
   232  116  239 1    
   233  117  118 2    
   234  117  119 am   BACKBONE|DICT|INTERRES
   235  119  120 1    
   236  119  240 1    
   237  120  121 1    
   238  120  124 1    
   239  120  241 1    
   240  121  122 am   BACKBONE|DICT|INTERRES
   241  121  123 2    
   242  122  242 1    
   243  122  243 1    
   244  124  125 1    
   245  124  244 1    
   246  124  245 1    
   247  125  126 1    
   248  126  246 1    
   249  126  247 1    
@<TRIPOS>SUBSTRUCTURE
     1 UNK         1 GROUP             0       ****    0 ROOT    
