@<TRIPOS>MOLECULE
3R540
247   249    1
SMALL
USER_CHARGES


@<TRIPOS>ATOM
      1 CA         -2.5902  -10.3135  -49.1804 C.3       0 UNK        -0.1800 
      2 C          -1.3862  -11.1368  -48.7485 C.2       0 UNK         0.5000 
      3 O          -0.4733  -10.6053  -48.1173 O.2       0 UNK        -0.5000 
      4 N          -1.3871  -12.4375  -49.0636 N.am      1 UNK        -0.5000 
      5 CA         -0.3424  -13.3958  -48.6812 C.3       1 UNK         0.1400 
      6 C6         -0.5200  -14.7575  -49.4078 C.3       23 UNK        -0.0398 
      7 S7          0.9925  -15.3461  -50.2456 S.3       23 UNK        -0.2404 
      8 C8          1.3573  -16.9239  -49.3950 C.3       23 UNK        -0.0205 
      9 C9          0.5215  -18.1321  -49.8336 C.ar      23 UNK        -0.0193 
     10 C10        -0.8067  -18.0117  -50.2621 C.ar      23 UNK        -0.1150 
     11 C11        -1.5554  -19.1366  -50.6073 C.ar      23 UNK        -0.0193 
     12 C12        -0.9691  -20.4002  -50.5327 C.ar      23 UNK        -0.1150 
     13 C13         0.3590  -20.5497  -50.1262 C.ar      23 UNK        -0.0193 
     14 C14         1.0955  -19.4090  -49.7788 C.ar      23 UNK        -0.1150 
     15 C15         0.9725  -21.9505  -50.1081 C.3       23 UNK        -0.0205 
     16 S16         2.1278  -22.2847  -48.7338 S.3       23 UNK        -0.2404 
     17 C17         1.1195  -21.8903  -47.2685 C.3       23 UNK        -0.0398 
     18 CA          0.5092  -23.1256  -46.5619 C.3       11 UNK         0.1400 
     19 N           0.2636  -22.8407  -45.1446 N.am      11 UNK        -0.5000 
     20 C          -0.2033  -23.7031  -44.2322 C.2       10 UNK         0.5000 
     21 O          -0.4396  -24.8851  -44.4648 O.2       10 UNK        -0.5000 
     22 CA         -0.5179  -23.1330  -42.8389 C.3       10 UNK         0.1400 
     23 CB          0.7473  -23.0506  -41.9715 C.3       10 UNK        -0.1800 
     24 N          -1.1507  -21.8173  -42.9261 N.am      10 UNK        -0.5000 
     25 C          -2.3902  -21.6084  -43.3925 C.2       9 UNK         0.5000 
     26 O          -3.1527  -22.5121  -43.7358 O.2       9 UNK        -0.5000 
     27 CA         -2.8274  -20.1404  -43.5471 C.3       9 UNK         0.1400 
     28 CB         -3.3211  -19.5728  -42.2084 C.3       9 UNK        -0.1800 
     29 N          -1.7534  -19.2939  -44.0691 N.am      9 UNK        -0.5000 
     30 C          -1.2576  -19.3937  -45.3123 C.2       8 UNK         0.5000 
     31 O          -1.6802  -20.1867  -46.1508 O.2       8 UNK        -0.5000 
     32 CA         -0.0637  -18.4871  -45.6691 C.3       8 UNK         0.1400 
     33 CB         -0.5889  -17.1410  -46.1769 C.3       8 UNK        -0.1800 
     34 N           0.8510  -18.2576  -44.5478 N.am      8 UNK        -0.5000 
     35 C           1.4643  -19.2227  -43.8443 C.2       7 UNK         0.5000 
     36 O           1.3961  -20.4149  -44.1393 O.2       7 UNK        -0.5000 
     37 CA          2.2403  -18.8174  -42.5738 C.3       7 UNK         0.1400 
     38 CB          3.7530  -18.8846  -42.8303 C.3       7 UNK        -0.1800 
     39 N           1.9094  -17.4887  -42.0566 N.am      7 UNK        -0.5000 
     40 C           0.6975  -17.0509  -41.6844 C.2       6 UNK         0.5000 
     41 O          -0.3068  -17.7641  -41.6539 O.2       6 UNK        -0.5000 
     42 CA          0.5788  -15.5478  -41.3524 C.3       6 UNK         0.1400 
     43 CB          0.5065  -15.3383  -39.8327 C.3       6 UNK        -0.1800 
     44 N           1.6620  -14.7167  -41.8990 N.am      6 UNK        -0.5000 
     45 C           1.9448  -14.5738  -43.2016 C.2       5 UNK         0.5000 
     46 O           1.3535  -15.1800  -44.0957 O.2       5 UNK        -0.5000 
     47 CA          3.1233  -13.6607  -43.5574 C.3       5 UNK         0.1400 
     48 CB          4.2944  -14.4775  -44.1331 C.3       5 UNK        -0.1800 
     49 N           2.6870  -12.6550  -44.5200 N.am      5 UNK        -0.5000 
     50 C           3.2630  -11.4567  -44.6808 C.2       4 UNK         0.5000 
     51 O           4.2610  -11.0901  -44.0581 O.2       4 UNK        -0.5000 
     52 CA          2.6036  -10.4866  -45.6790 C.3       4 UNK         0.1400 
     53 CB          2.9828  -10.8333  -47.1274 C.3       4 UNK        -0.1800 
     54 N           1.1483  -10.4523  -45.5413 N.am      4 UNK        -0.5000 
     55 C           0.4955   -9.9103  -44.5025 C.2       3 UNK         0.5000 
     56 O           1.0524   -9.3183  -43.5772 O.2       3 UNK        -0.5000 
     57 CA         -1.0356  -10.0715  -44.4809 C.3       3 UNK         0.1400 
     58 CB         -1.7236   -8.9457  -45.2683 C.3       3 UNK        -0.1800 
     59 N          -1.4497  -11.3708  -45.0095 N.am      3 UNK        -0.5000 
     60 C          -1.3418  -12.5222  -44.3317 C.2       2 UNK         0.5000 
     61 O          -0.9804  -12.5904  -43.1567 O.2       2 UNK        -0.5000 
     62 CA         -1.6837  -13.8172  -45.0906 C.3       2 UNK         0.1400 
     63 CB         -3.1364  -14.2373  -44.8222 C.3       2 UNK        -0.1800 
     64 N          -1.4739  -13.7295  -46.5367 N.am      2 UNK        -0.5000 
     65 C          -0.2921  -13.5616  -47.1479 C.2       1 UNK         0.5000 
     66 O           0.7807  -13.4672  -46.5555 O.2       1 UNK        -0.5000 
     67 C          -0.7683  -23.6166  -47.2792 C.2       11 UNK         0.5000 
     68 O          -0.7350  -24.6399  -47.9686 O.2       11 UNK        -0.5000 
     69 N          -1.8791  -22.8966  -47.0629 N.am      12 UNK        -0.5000 
     70 CA         -3.2127  -23.2208  -47.5656 C.3       12 UNK         0.1400 
     71 CB         -4.1789  -22.0759  -47.2311 C.3       12 UNK        -0.1800 
     72 C          -3.7486  -24.5576  -47.0267 C.2       12 UNK         0.5000 
     73 O          -4.3023  -25.3425  -47.7963 O.2       12 UNK        -0.5000 
     74 N          -3.5577  -24.7993  -45.7225 N.am      13 UNK        -0.5000 
     75 CA         -3.9397  -26.0420  -45.0523 C.3       13 UNK         0.1400 
     76 CB         -3.8435  -25.8523  -43.5308 C.3       13 UNK        -0.1800 
     77 C          -3.0981  -27.2496  -45.5061 C.2       13 UNK         0.5000 
     78 O          -3.6451  -28.3414  -45.6673 O.2       13 UNK        -0.5000 
     79 N          -1.7897  -27.0341  -45.6981 N.am      14 UNK        -0.5000 
     80 CA         -0.8250  -28.0531  -46.1038 C.3       14 UNK         0.1400 
     81 CB          0.6048  -27.5196  -45.9217 C.3       14 UNK        -0.1800 
     82 C          -1.0321  -28.5485  -47.5431 C.2       14 UNK         0.5000 
     83 O          -0.9768  -29.7590  -47.7679 O.2       14 UNK        -0.5000 
     84 N          -1.2557  -27.6241  -48.4883 N.am      15 UNK        -0.5000 
     85 CA         -1.3996  -27.9607  -49.9064 C.3       15 UNK         0.1400 
     86 CB         -0.0227  -28.2842  -50.5218 C.3       15 UNK        -0.1800 
     87 C          -2.0910  -26.8764  -50.7424 C.2       15 UNK         0.5000 
     88 O          -2.7711  -27.2266  -51.7074 O.2       15 UNK        -0.5000 
     89 N          -1.8517  -25.5934  -50.4310 N.am      16 UNK        -0.5000 
     90 CA         -2.2232  -24.3888  -51.1951 C.3       16 UNK         0.1400 
     91 CB         -3.7474  -24.2677  -51.3877 C.3       16 UNK        -0.1800 
     92 C          -1.4823  -24.2284  -52.5415 C.2       16 UNK         0.5000 
     93 O          -1.0965  -23.1109  -52.8839 O.2       16 UNK        -0.5000 
     94 N          -1.2694  -25.3402  -53.2577 N.am      17 UNK        -0.5000 
     95 CA         -0.6310  -25.4582  -54.5686 C.3       17 UNK         0.1400 
     96 CB          0.8602  -25.0554  -54.4938 C.3       17 UNK        -0.1800 
     97 C          -1.4448  -24.7247  -55.6553 C.2       17 UNK         0.5000 
     98 O          -2.6664  -24.8836  -55.7025 O.2       17 UNK        -0.5000 
     99 N          -0.7680  -23.9602  -56.5211 N.am      18 UNK        -0.5000 
    100 CA        -1.3826  -23.1826  -57.5992 C.3       18 UNK         0.1400 
    101 CB        -0.3074  -22.8678  -58.6516 C.3       18 UNK        -0.1800 
    102 C         -2.0556  -21.8833  -57.1118 C.2       18 UNK         0.5000 
    103 O         -2.8555  -21.3078  -57.8515 O.2       18 UNK        -0.5000 
    104 N         -1.7096  -21.4280  -55.9007 N.am      19 UNK        -0.5000 
    105 CA        -2.2568  -20.2250  -55.2806 C.3       19 UNK         0.1400 
    106 CB        -1.2654  -19.7254  -54.2186 C.3       19 UNK        -0.1800 
    107 C         -3.6452  -20.4815  -54.6654 C.2       19 UNK         0.5000 
    108 O         -3.9684  -21.6115  -54.2931 O.2       19 UNK        -0.5000 
    109 N         -4.4273  -19.4072  -54.5392 N.am      20 UNK        -0.5000 
    110 CA        -5.7521  -19.3684  -53.9295 C.3       20 UNK         0.1400 
    111 CB        -6.8079  -19.8706  -54.9317 C.3       20 UNK        -0.1800 
    112 C         -6.0341  -17.9217  -53.4961 C.2       20 UNK         0.5000 
    113 O         -5.3193  -17.0126  -53.9291 O.2       20 UNK        -0.5000 
    114 N         -7.0653  -17.7389  -52.6563 N.am      21 UNK        -0.5000 
    115 CA        -7.4963  -16.4649  -52.0587 C.3       21 UNK         0.1400 
    116 CB        -8.0863  -15.5267  -53.1327 C.3       21 UNK        -0.1800 
    117 C         -6.3655  -15.8139  -51.2342 C.2       21 UNK         0.5000 
    118 O         -5.9855  -14.6670  -51.4772 O.2       21 UNK        -0.5000 
    119 N         -5.8110  -16.6108  -50.3129 N.am      22 UNK        -0.5000 
    120 CA        -4.5644  -16.3413  -49.5792 C.3       22 UNK         0.1400 
    121 C         -4.5955  -15.1185  -48.6171 C.2       22 UNK         0.5000 
    122 N         -5.7555  -14.6480  -48.1790 N.am      22 UNK        -0.7600 
    123 O         -3.5469  -14.5831  -48.2723 O.2       22 UNK        -0.5000 
    124 C124       -4.0457  -17.6036  -48.8347 C.3       23 UNK        -0.0398 
    125 S125       -4.2065  -19.1709  -49.7681 S.3       23 UNK        -0.2404 
    126 C126       -2.9854  -18.9850  -51.1005 C.3       23 UNK        -0.0205 
    127 H127       -3.0732   -9.8708  -48.3093 H         1 UNK         0.0600 
    128 H128       -3.3277  -10.9199  -49.7070 H         1 UNK         0.0600 
    129 H129       -2.2746   -9.5078  -49.8430 H         1 UNK         0.0600 
    130 H130       -2.1919  -12.8300  -49.5321 H         1 UNK         0.3000 
    131 H131        0.6085  -12.9523  -48.9851 H         1 UNK         0.0600 
    132 H132       -1.2798  -14.6747  -50.1863 H         1 UNK         0.0800 
    133 H133       -0.8959  -15.5272  -48.7331 H         1 UNK         0.0800 
    134 H134        1.2625  -16.7878  -48.3194 H         1 UNK         0.0800 
    135 H135        2.4115  -17.1408  -49.5737 H         1 UNK         0.0800 
    136 H136       -1.2780  -17.0477  -50.3421 H         1 UNK         0.1150 
    137 H137       -1.5480  -21.2665  -50.8172 H         1 UNK         0.1150 
    138 H138        2.1233  -19.5159  -49.4621 H         1 UNK         0.1150 
    139 H139        0.1883  -22.7058  -50.0719 H         1 UNK         0.0800 
    140 H140        1.4981  -22.1059  -51.0509 H         1 UNK         0.0800 
    141 H141        0.3546  -21.1550  -47.5159 H         1 UNK         0.0800 
    142 H142        1.7982  -21.3775  -46.5863 H         1 UNK         0.0800 
    143 H143        1.2368  -23.9392  -46.5907 H         1 UNK         0.0600 
    144 H144        0.4858  -21.8994  -44.8310 H         1 UNK         0.3000 
    145 H145       -1.2171  -23.8143  -42.3493 H         1 UNK         0.0600 
    146 H146        0.5166  -22.6815  -40.9721 H         1 UNK         0.0600 
    147 H147        1.5003  -22.3936  -42.4061 H         1 UNK         0.0600 
    148 H148        1.2019  -24.0354  -41.8569 H         1 UNK         0.0600 
    149 H149       -0.5723  -21.0182  -42.7133 H         1 UNK         0.3000 
    150 H150       -3.6575  -20.1127  -44.2563 H         1 UNK         0.0600 
    151 H151       -4.1397  -20.1726  -41.8084 H         1 UNK         0.0600 
    152 H152       -3.6908  -18.5540  -42.3251 H         1 UNK         0.0600 
    153 H153       -2.5281  -19.5568  -41.4596 H         1 UNK         0.0600 
    154 H154       -1.3297  -18.6408  -43.4205 H         1 UNK         0.3000 
    155 H155        0.5071  -18.9618  -46.4689 H         1 UNK         0.0600 
    156 H156       -1.0976  -17.2641  -47.1322 H         1 UNK         0.0600 
    157 H157        0.2167  -16.4214  -46.3166 H         1 UNK         0.0600 
    158 H158       -1.3055  -16.7087  -45.4799 H         1 UNK         0.0600 
    159 H159        0.9808  -17.2927  -44.2632 H         1 UNK         0.3000 
    160 H160        1.9886  -19.5440  -41.7988 H         1 UNK         0.0600 
    161 H161        4.0655  -18.1566  -43.5803 H         1 UNK         0.0600 
    162 H162        4.0461  -19.8723  -43.1892 H         1 UNK         0.0600 
    163 H163        4.3179  -18.6922  -41.9180 H         1 UNK         0.0600 
    164 H164        2.6616  -16.8165  -42.0518 H         1 UNK         0.3000 
    165 H165       -0.3572  -15.1962  -41.7918 H         1 UNK         0.0600 
    166 H166        0.3235  -14.2920  -39.5870 H         1 UNK         0.0600 
    167 H167       -0.3070  -15.9192  -39.3957 H         1 UNK         0.0600 
    168 H168        1.4302  -15.6443  -39.3400 H         1 UNK         0.0600 
    169 H169        2.2040  -14.1972  -41.2236 H         1 UNK         0.3000 
    170 H170        3.4589  -13.1600  -42.6466 H         1 UNK         0.0600 
    171 H171        4.0181  -14.9678  -45.0676 H         1 UNK         0.0600 
    172 H172        5.1602  -13.8455  -44.3308 H         1 UNK         0.0600 
    173 H173        4.6117  -15.2533  -43.4353 H         1 UNK         0.0600 
    174 H174        1.8893  -12.9156  -45.0985 H         1 UNK         0.3000 
    175 H175        2.9839   -9.4847  -45.4684 H         1 UNK         0.0600 
    176 H176        2.6428  -11.8287  -47.4118 H         1 UNK         0.0600 
    177 H177        2.5494  -10.1204  -47.8291 H         1 UNK         0.0600 
    178 H178        4.0647  -10.8073  -47.2622 H         1 UNK         0.0600 
    179 H179        0.6125  -10.8846  -46.2846 H         1 UNK         0.3000 
    180 H180       -1.3642   -9.9986  -43.4417 H         1 UNK         0.0600 
    181 H181       -2.8084   -9.0483  -45.2384 H         1 UNK         0.0600 
    182 H182       -1.4162   -8.9309  -46.3135 H         1 UNK         0.0600 
    183 H183       -1.4778   -7.9715  -44.8441 H         1 UNK         0.0600 
    184 H184       -1.7334  -11.4045  -45.9773 H         1 UNK         0.3000 
    185 H185       -1.0302  -14.5950  -44.7001 H         1 UNK         0.0600 
    186 H186       -3.8438  -13.5022  -45.2080 H         1 UNK         0.0600 
    187 H187       -3.3632  -15.1956  -45.2901 H         1 UNK         0.0600 
    188 H188       -3.3217  -14.3455  -43.7528 H         1 UNK         0.0600 
    189 H189       -2.3000  -13.8424  -47.1213 H         1 UNK         0.3000 
    190 H190       -1.8045  -22.0323  -46.5319 H         1 UNK         0.3000 
    191 H191       -3.1467  -23.2953  -48.6495 H         1 UNK         0.0600 
    192 H192       -4.3055  -21.9531  -46.1554 H         1 UNK         0.0600 
    193 H193       -5.1643  -22.2568  -47.6619 H         1 UNK         0.0600 
    194 H194       -3.8170  -21.1295  -47.6303 H         1 UNK         0.0600 
    195 H195       -3.1348  -24.0801  -45.1461 H         1 UNK         0.3000 
    196 H196       -4.9822  -26.2517  -45.3008 H         1 UNK         0.0600 
    197 H197       -4.4907  -25.0427  -43.1930 H         1 UNK         0.0600 
    198 H198       -2.8257  -25.6189  -43.2172 H         1 UNK         0.0600 
    199 H199       -4.1507  -26.7565  -43.0041 H         1 UNK         0.0600 
    200 H200       -1.4061  -26.1212  -45.4654 H         1 UNK         0.3000 
    201 H201       -0.9480  -28.9106  -45.4389 H         1 UNK         0.0600 
    202 H202        0.8076  -27.2873  -44.8763 H         1 UNK         0.0600 
    203 H203        0.7744  -26.6140  -46.5054 H         1 UNK         0.0600 
    204 H204        1.3426  -28.2582  -46.2376 H         1 UNK         0.0600 
    205 H205       -1.3042  -26.6464  -48.2239 H         1 UNK         0.3000 
    206 H206       -2.0293  -28.8500  -49.9850 H         1 UNK         0.0600 
    207 H207        0.6702  -27.4494  -50.4096 H         1 UNK         0.0600 
    208 H208        0.4308  -29.1594  -50.0569 H         1 UNK         0.0600 
    209 H209       -0.1081  -28.4986  -51.5880 H         1 UNK         0.0600 
    210 H210       -1.2696  -25.3979  -49.6214 H         1 UNK         0.3000 
    211 H211       -1.9112  -23.5521  -50.5727 H         1 UNK         0.0600 
    212 H212       -4.1306  -25.0082  -52.0899 H         1 UNK         0.0600 
    213 H213       -4.0066  -23.2853  -51.7850 H         1 UNK         0.0600 
    214 H214       -4.2828  -24.3921  -50.4472 H         1 UNK         0.0600 
    215 H215       -1.7058  -26.1866  -52.9047 H         1 UNK         0.3000 
    216 H216       -0.6706  -26.5169  -54.8279 H         1 UNK         0.0600 
    217 H217        1.3814  -25.2935  -55.4217 H         1 UNK         0.0600 
    218 H218        1.3687  -25.5992  -53.6975 H         1 UNK         0.0600 
    219 H219        0.9921  -23.9905  -54.2997 H         1 UNK         0.0600 
    220 H220        0.2337  -23.8827  -56.4206 H         1 UNK         0.3000 
    221 H221       -2.1542  -23.7917  -58.0751 H         1 UNK         0.0600 
    222 H222        0.4980  -22.2613  -58.2353 H         1 UNK         0.0600 
    223 H223        0.1318  -23.7812  -59.0531 H         1 UNK         0.0600 
    224 H224       -0.7318  -22.3170  -59.4921 H         1 UNK         0.0600 
    225 H225       -1.1157  -22.0015  -55.3187 H         1 UNK         0.3000 
    226 H226       -2.3550  -19.4510  -56.0452 H         1 UNK         0.0600 
    227 H227       -0.2870  -19.5241  -54.6550 H         1 UNK         0.0600 
    228 H228       -1.6109  -18.7975  -53.7620 H         1 UNK         0.0600 
    229 H229       -1.1301  -20.4561  -53.4214 H         1 UNK         0.0600 
    230 H230       -4.0879  -18.4921  -54.8118 H         1 UNK         0.3000 
    231 H231       -5.7563  -19.9994  -53.0380 H         1 UNK         0.0600 
    232 H232       -7.8078  -19.8468  -54.4974 H         1 UNK         0.0600 
    233 H233       -6.6119  -20.9003  -55.2313 H         1 UNK         0.0600 
    234 H234       -6.8260  -19.2580  -55.8339 H         1 UNK         0.0600 
    235 H235       -7.5895  -18.5514  -52.3625 H         1 UNK         0.3000 
    236 H236       -8.2962  -16.7015  -51.3554 H         1 UNK         0.0600 
    237 H237       -7.3367  -15.2162  -53.8611 H         1 UNK         0.0600 
    238 H238       -8.8986  -16.0109  -53.6746 H         1 UNK         0.0600 
    239 H239       -8.4929  -14.6226  -52.6781 H         1 UNK         0.0600 
    240 H240       -6.1811  -17.5431  -50.1982 H         1 UNK         0.3000 
    241 H241       -3.8217  -16.0901  -50.3383 H         1 UNK         0.0600 
    242 H242       -5.7665  -13.8501  -47.5649 H         1 UNK         0.3800 
    243 H243       -6.6226  -15.0699  -48.4697 H         1 UNK         0.3800 
    244 H244       -4.6002  -17.7409  -47.9046 H         1 UNK         0.0800 
    245 H245       -3.0051  -17.4727  -48.5388 H         1 UNK         0.0800 
    246 H246       -3.1240  -18.0297  -51.6084 H         1 UNK         0.0800 
    247 H247       -3.1881  -19.7536  -51.8460 H         1 UNK         0.0800 
@<TRIPOS>BOND
     1    1    2 1    
     2    1  127 1    
     3    1  128 1    
     4    1  129 1    
     5    2    3 2    
     6    2    4 am   BACKBONE|DICT|INTERRES
     7    4    5 1    
     8    4  130 1    
     9    5    6 1    
    10    5   65 1    
    11    5  131 1    
    12    6    7 1    
    13    6  132 1    
    14    6  133 1    
    15    7    8 1    
    16    8    9 1    
    17    8  134 1    
    18    8  135 1    
    19    9   10 ar   
    20    9   14 ar   
    21   10   11 ar   
    22   10  136 1    
    23   11   12 ar   
    24   11  126 1    
    25   12   13 ar   
    26   12  137 1    
    27   13   14 ar   
    28   13   15 1    
    29   14  138 1    
    30   15   16 1    
    31   15  139 1    
    32   15  140 1    
    33   16   17 1    
    34   17   18 1    
    35   17  141 1    
    36   17  142 1    
    37   18   19 1    
    38   18   67 1    
    39   18  143 1    
    40   19   20 am   BACKBONE|DICT|INTERRES
    41   19  144 1    
    42   20   21 2    
    43   20   22 1    
    44   22   23 1    
    45   22   24 1    
    46   22  145 1    
    47   23  146 1    
    48   23  147 1    
    49   23  148 1    
    50   24   25 am   BACKBONE|DICT|INTERRES
    51   24  149 1    
    52   25   26 2    
    53   25   27 1    
    54   27   28 1    
    55   27   29 1    
    56   27  150 1    
    57   28  151 1    
    58   28  152 1    
    59   28  153 1    
    60   29   30 am   BACKBONE|DICT|INTERRES
    61   29  154 1    
    62   30   31 2    
    63   30   32 1    
    64   32   33 1    
    65   32   34 1    
    66   32  155 1    
    67   33  156 1    
    68   33  157 1    
    69   33  158 1    
    70   34   35 am   BACKBONE|DICT|INTERRES
    71   34  159 1    
    72   35   36 2    
    73   35   37 1    
    74   37   38 1    
    75   37   39 1    
    76   37  160 1    
    77   38  161 1    
    78   38  162 1    
    79   38  163 1    
    80   39   40 am   BACKBONE|DICT|INTERRES
    81   39  164 1    
    82   40   41 2    
    83   40   42 1    
    84   42   43 1    
    85   42   44 1    
    86   42  165 1    
    87   43  166 1    
    88   43  167 1    
    89   43  168 1    
    90   44   45 am   BACKBONE|DICT|INTERRES
    91   44  169 1    
    92   45   46 2    
    93   45   47 1    
    94   47   48 1    
    95   47   49 1    
    96   47  170 1    
    97   48  171 1    
    98   48  172 1    
    99   48  173 1    
   100   49   50 am   BACKBONE|DICT|INTERRES
   101   49  174 1    
   102   50   51 2    
   103   50   52 1    
   104   52   53 1    
   105   52   54 1    
   106   52  175 1    
   107   53  176 1    
   108   53  177 1    
   109   53  178 1    
   110   54   55 am   BACKBONE|DICT|INTERRES
   111   54  179 1    
   112   55   56 2    
   113   55   57 1    
   114   57   58 1    
   115   57   59 1    
   116   57  180 1    
   117   58  181 1    
   118   58  182 1    
   119   58  183 1    
   120   59   60 am   BACKBONE|DICT|INTERRES
   121   59  184 1    
   122   60   61 2    
   123   60   62 1    
   124   62   63 1    
   125   62   64 1    
   126   62  185 1    
   127   63  186 1    
   128   63  187 1    
   129   63  188 1    
   130   64   65 am   BACKBONE|DICT|INTERRES
   131   64  189 1    
   132   65   66 2    
   133   67   68 2    
   134   67   69 am   BACKBONE|DICT|INTERRES
   135   69   70 1    
   136   69  190 1    
   137   70   71 1    
   138   70   72 1    
   139   70  191 1    
   140   71  192 1    
   141   71  193 1    
   142   71  194 1    
   143   72   73 2    
   144   72   74 am   BACKBONE|DICT|INTERRES
   145   74   75 1    
   146   74  195 1    
   147   75   76 1    
   148   75   77 1    
   149   75  196 1    
   150   76  197 1    
   151   76  198 1    
   152   76  199 1    
   153   77   78 2    
   154   77   79 am   BACKBONE|DICT|INTERRES
   155   79   80 1    
   156   79  200 1    
   157   80   81 1    
   158   80   82 1    
   159   80  201 1    
   160   81  202 1    
   161   81  203 1    
   162   81  204 1    
   163   82   83 2    
   164   82   84 am   BACKBONE|DICT|INTERRES
   165   84   85 1    
   166   84  205 1    
   167   85   86 1    
   168   85   87 1    
   169   85  206 1    
   170   86  207 1    
   171   86  208 1    
   172   86  209 1    
   173   87   88 2    
   174   87   89 am   BACKBONE|DICT|INTERRES
   175   89   90 1    
   176   89  210 1    
   177   90   91 1    
   178   90   92 1    
   179   90  211 1    
   180   91  212 1    
   181   91  213 1    
   182   91  214 1    
   183   92   93 2    
   184   92   94 am   BACKBONE|DICT|INTERRES
   185   94   95 1    
   186   94  215 1    
   187   95   96 1    
   188   95   97 1    
   189   95  216 1    
   190   96  217 1    
   191   96  218 1    
   192   96  219 1    
   193   97   98 2    
   194   97   99 am   BACKBONE|DICT|INTERRES
   195   99  100 1    
   196   99  220 1    
   197  100  101 1    
   198  100  102 1    
   199  100  221 1    
   200  101  222 1    
   201  101  223 1    
   202  101  224 1    
   203  102  103 2    
   204  102  104 am   BACKBONE|DICT|INTERRES
   205  104  105 1    
   206  104  225 1    
   207  105  106 1    
   208  105  107 1    
   209  105  226 1    
   210  106  227 1    
   211  106  228 1    
   212  106  229 1    
   213  107  108 2    
   214  107  109 am   BACKBONE|DICT|INTERRES
   215  109  110 1    
   216  109  230 1    
   217  110  111 1    
   218  110  112 1    
   219  110  231 1    
   220  111  232 1    
   221  111  233 1    
   222  111  234 1    
   223  112  113 2    
   224  112  114 am   BACKBONE|DICT|INTERRES
   225  114  115 1    
   226  114  235 1    
   227  115  116 1    
   228  115  117 1    
   229  115  236 1    
   230  116  237 1    
   231  116  238 1    
   232  116  239 1    
   233  117  118 2    
   234  117  119 am   BACKBONE|DICT|INTERRES
   235  119  120 1    
   236  119  240 1    
   237  120  121 1    
   238  120  124 1    
   239  120  241 1    
   240  121  122 am   BACKBONE|DICT|INTERRES
   241  121  123 2    
   242  122  242 1    
   243  122  243 1    
   244  124  125 1    
   245  124  244 1    
   246  124  245 1    
   247  125  126 1    
   248  126  246 1    
   249  126  247 1    
@<TRIPOS>SUBSTRUCTURE
     1 UNK         1 GROUP             0       ****    0 ROOT    
