@<TRIPOS>MOLECULE
3R540
247   249    1
SMALL
USER_CHARGES


@<TRIPOS>ATOM
      1 CA         -0.1117  -13.4937  -53.8655 C.3       0 UNK        -0.1800 
      2 C          -0.8767  -12.7846  -52.7589 C.2       0 UNK         0.5000 
      3 O          -2.0439  -12.4419  -52.9467 O.2       0 UNK        -0.5000 
      4 N          -0.2216  -12.5533  -51.6125 N.am      1 UNK        -0.5000 
      5 CA         -0.7971  -11.8696  -50.4486 C.3       1 UNK         0.1400 
      6 C6          0.3055  -11.3169  -49.5016 C.3       23 UNK        -0.0398 
      7 S7          0.9510  -12.4260  -48.1952 S.3       23 UNK        -0.2404 
      8 C8          2.2654  -13.3654  -49.0402 C.3       23 UNK        -0.0205 
      9 C9          1.7581  -14.6897  -49.5958 C.ar      23 UNK        -0.0193 
     10 C10         1.9197  -15.0089  -50.9487 C.ar      23 UNK        -0.1150 
     11 C11         1.4570  -16.2314  -51.4472 C.ar      23 UNK        -0.0193 
     12 C12         0.8290  -17.1345  -50.5861 C.ar      23 UNK        -0.1150 
     13 C13         0.6868  -16.8391  -49.2294 C.ar      23 UNK        -0.0193 
     14 C14         1.1533  -15.6174  -48.7413 C.ar      23 UNK        -0.1150 
     15 C15         0.0276  -17.8302  -48.2875 C.3       23 UNK        -0.0205 
     16 S16         1.2456  -18.9878  -47.5861 S.3       23 UNK        -0.2404 
     17 C17         0.4325  -19.4049  -46.0108 C.3       23 UNK        -0.0398 
     18 CA         -0.6638  -20.4744  -46.1996 C.3       11 UNK         0.1400 
     19 N          -0.1364  -21.7985  -46.5433 N.am      11 UNK        -0.5000 
     20 C          -0.8797  -22.7985  -47.0381 C.2       10 UNK         0.5000 
     21 O          -2.0728  -22.6824  -47.3129 O.2       10 UNK        -0.5000 
     22 CA         -0.1941  -24.1649  -47.2219 C.3       10 UNK         0.1400 
     23 CB          0.4906  -24.2603  -48.5911 C.3       10 UNK        -0.1800 
     24 N           0.7825  -24.4482  -46.1715 N.am      10 UNK        -0.5000 
     25 C           0.4611  -24.6979  -44.8951 C.2       9 UNK         0.5000 
     26 O          -0.6961  -24.7595  -44.4819 O.2       9 UNK        -0.5000 
     27 CA          1.6338  -24.8460  -43.9077 C.3       9 UNK         0.1400 
     28 CB          2.1579  -26.2896  -43.9021 C.3       9 UNK        -0.1800 
     29 N           2.7426  -23.9241  -44.1801 N.am      9 UNK        -0.5000 
     30 C           2.6381  -22.5892  -44.1553 C.2       8 UNK         0.5000 
     31 O           1.5781  -21.9920  -43.9509 O.2       8 UNK        -0.5000 
     32 CA          3.9134  -21.7842  -44.4583 C.3       8 UNK         0.1400 
     33 CB          4.0177  -21.4890  -45.9620 C.3       8 UNK        -0.1800 
     34 N           3.9030  -20.5212  -43.7226 N.am      8 UNK        -0.5000 
     35 C           4.1193  -20.4167  -42.4057 C.2       7 UNK         0.5000 
     36 O           4.4866  -21.3643  -41.7082 O.2       7 UNK        -0.5000 
     37 CA          3.8467  -19.0545  -41.7357 C.3       7 UNK         0.1400 
     38 CB          4.9947  -18.6278  -40.7974 C.3       7 UNK        -0.1800 
     39 N           3.4764  -17.9607  -42.6430 N.am      7 UNK        -0.5000 
     40 C           4.2499  -17.3172  -43.5333 C.2       6 UNK         0.5000 
     41 O           5.3918  -17.6690  -43.8288 O.2       6 UNK        -0.5000 
     42 CA          3.6579  -16.0521  -44.1967 C.3       6 UNK         0.1400 
     43 CB          3.1993  -16.3520  -45.6305 C.3       6 UNK        -0.1800 
     44 N           2.5343  -15.4736  -43.4548 N.am      6 UNK        -0.5000 
     45 C           2.6192  -14.9340  -42.2282 C.2       5 UNK         0.5000 
     46 O           3.6874  -14.7252  -41.6521 O.2       5 UNK        -0.5000 
     47 CA          1.2984  -14.6063  -41.4980 C.3       5 UNK         0.1400 
     48 CB          1.0547  -13.0891  -41.4894 C.3       5 UNK        -0.1800 
     49 N           0.1133  -15.2654  -42.0540 N.am      5 UNK        -0.5000 
     50 C          -0.0934  -16.5858  -42.1768 C.2       4 UNK         0.5000 
     51 O           0.6936  -17.4417  -41.7726 O.2       4 UNK        -0.5000 
     52 CA         -1.3627  -17.0186  -42.9409 C.3       4 UNK         0.1400 
     53 CB         -2.4533  -17.4878  -41.9675 C.3       4 UNK        -0.1800 
     54 N          -1.9052  -15.9663  -43.8098 N.am      4 UNK        -0.5000 
     55 C          -1.2760  -15.4656  -44.8818 C.2       3 UNK         0.5000 
     56 O          -0.1800  -15.8663  -45.2787 O.2       3 UNK        -0.5000 
     57 CA         -1.9332  -14.2554  -45.5599 C.3       3 UNK         0.1400 
     58 CB         -1.2056  -12.9645  -45.1530 C.3       3 UNK        -0.1800 
     59 N          -1.8946  -14.3852  -47.0126 N.am      3 UNK        -0.5000 
     60 C          -2.7887  -15.0750  -47.7317 C.2       2 UNK         0.5000 
     61 O          -3.7239  -15.6935  -47.2218 O.2       2 UNK        -0.5000 
     62 CA         -2.6152  -15.0899  -49.2682 C.3       2 UNK         0.1400 
     63 CB         -3.9662  -15.0651  -50.0135 C.3       2 UNK        -0.1800 
     64 N          -1.7223  -14.0518  -49.7979 N.am      2 UNK        -0.5000 
     65 C          -1.8756  -12.7181  -49.7357 C.2       1 UNK         0.5000 
     66 O          -2.8094  -12.1533  -49.1651 O.2       1 UNK        -0.5000 
     67 C          -1.6001  -20.5420  -44.9821 C.2       11 UNK         0.5000 
     68 O          -2.6805  -19.9525  -45.0261 O.2       11 UNK        -0.5000 
     69 N          -1.1979  -21.3017  -43.9530 N.am      12 UNK        -0.5000 
     70 CA         -2.0035  -21.6017  -42.7677 C.3       12 UNK         0.1400 
     71 CB         -1.1564  -22.3912  -41.7596 C.3       12 UNK        -0.1800 
     72 C          -3.3082  -22.3503  -43.1061 C.2       12 UNK         0.5000 
     73 O          -4.3434  -22.0672  -42.5036 O.2       12 UNK        -0.5000 
     74 N          -3.2610  -23.2253  -44.1204 N.am      13 UNK        -0.5000 
     75 CA         -4.4071  -23.9026  -44.7346 C.3       13 UNK         0.1400 
     76 CB         -3.9148  -25.1923  -45.4150 C.3       13 UNK        -0.1800 
     77 C          -5.1980  -22.9918  -45.7053 C.2       13 UNK         0.5000 
     78 O          -5.6051  -23.4408  -46.7791 O.2       13 UNK        -0.5000 
     79 N          -5.4033  -21.7269  -45.3095 N.am      14 UNK        -0.5000 
     80 CA         -6.1646  -20.6777  -45.9941 C.3       14 UNK         0.1400 
     81 CB         -7.6745  -20.9834  -45.9077 C.3       14 UNK        -0.1800 
     82 C          -5.6915  -20.4179  -47.4390 C.2       14 UNK         0.5000 
     83 O          -6.5193  -20.3214  -48.3457 O.2       14 UNK        -0.5000 
     84 N          -4.3658  -20.3400  -47.6289 N.am      15 UNK        -0.5000 
     85 CA         -3.6809  -20.1741  -48.9180 C.3       15 UNK         0.1400 
     86 CB         -3.9108  -18.7568  -49.4758 C.3       15 UNK        -0.1800 
     87 C          -4.0468  -21.2891  -49.9158 C.2       15 UNK         0.5000 
     88 O          -4.5281  -21.0104  -51.0156 O.2       15 UNK        -0.5000 
     89 N          -3.8320  -22.5354  -49.4752 N.am      16 UNK        -0.5000 
     90 CA         -4.1483  -23.7916  -50.1565 C.3       16 UNK         0.1400 
     91 CB         -3.2234  -23.9840  -51.3768 C.3       16 UNK        -0.1800 
     92 C          -5.6475  -23.9035  -50.5005 C.2       16 UNK         0.5000 
     93 O          -5.9980  -24.2242  -51.6357 O.2       16 UNK        -0.5000 
     94 N          -6.5041  -23.5910  -49.5164 N.am      17 UNK        -0.5000 
     95 CA         -7.9651  -23.4943  -49.6197 C.3       17 UNK         0.1400 
     96 CB         -8.5909  -24.8938  -49.7911 C.3       17 UNK        -0.1800 
     97 C          -8.4125  -22.4887  -50.7047 C.2       17 UNK         0.5000 
     98 O          -9.2572  -22.8058  -51.5442 O.2       17 UNK        -0.5000 
     99 N          -7.8014  -21.2970  -50.6679 N.am      18 UNK        -0.5000 
    100 CA        -7.9784  -20.1527  -51.5658 C.3       18 UNK         0.1400 
    101 CB        -9.4202  -19.6090  -51.4885 C.3       18 UNK        -0.1800 
    102 C         -7.5079  -20.3834  -53.0194 C.2       18 UNK         0.5000 
    103 O         -7.8383  -19.5773  -53.8911 O.2       18 UNK        -0.5000 
    104 N         -6.7220  -21.4411  -53.2686 N.am      19 UNK        -0.5000 
    105 CA        -6.1086  -21.7208  -54.5716 C.3       19 UNK         0.1400 
    106 CB        -5.7902  -23.2199  -54.6732 C.3       19 UNK        -0.1800 
    107 C         -4.8377  -20.8857  -54.8336 C.2       19 UNK         0.5000 
    108 O         -4.3981  -20.8231  -55.9821 O.2       19 UNK        -0.5000 
    109 N         -4.2894  -20.2744  -53.7723 N.am      20 UNK        -0.5000 
    110 CA        -3.0206  -19.5547  -53.6616 C.3       20 UNK         0.1400 
    111 CB        -2.8095  -18.5016  -54.7673 C.3       20 UNK        -0.1800 
    112 C         -1.8506  -20.5453  -53.5595 C.2       20 UNK         0.5000 
    113 O         -1.5493  -21.2599  -54.5177 O.2       20 UNK        -0.5000 
    114 N         -1.1997  -20.5578  -52.3882 N.am      21 UNK        -0.5000 
    115 CA        -0.1094  -21.4720  -52.0293 C.3       21 UNK         0.1400 
    116 CB         0.2475  -21.2599  -50.5504 C.3       21 UNK        -0.1800 
    117 C          1.1484  -21.3588  -52.9157 C.2       21 UNK         0.5000 
    118 O          1.9189  -22.3163  -52.9931 O.2       21 UNK        -0.5000 
    119 N          1.3207  -20.2089  -53.5788 N.am      22 UNK        -0.5000 
    120 CA         2.3736  -19.9648  -54.5778 C.3       22 UNK         0.1400 
    121 C          2.0963  -20.6197  -55.9649 C.2       22 UNK         0.5000 
    122 N          0.9161  -21.1711  -56.2288 N.am      22 UNK        -0.7600 
    123 O          2.9766  -20.6336  -56.8209 O.2       22 UNK        -0.5000 
    124 C124        2.6902  -18.4540  -54.7372 C.3       23 UNK        -0.0398 
    125 S125        3.1008  -17.6468  -53.1510 S.3       23 UNK        -0.2404 
    126 C126        1.6360  -16.5963  -52.9110 C.3       23 UNK        -0.0205 
    127 H127        0.9627  -13.4750  -53.6844 H         1 UNK         0.0600 
    128 H128       -0.2973  -13.0072  -54.8232 H         1 UNK         0.0600 
    129 H129       -0.4376  -14.5310  -53.9407 H         1 UNK         0.0600 
    130 H130        0.7343  -12.8606  -51.5145 H         1 UNK         0.3000 
    131 H131       -1.3216  -10.9959  -50.8429 H         1 UNK         0.0600 
    132 H132        1.1398  -10.9158  -50.0787 H         1 UNK         0.0800 
    133 H133       -0.1050  -10.4535  -48.9758 H         1 UNK         0.0800 
    134 H134        3.0543  -13.5795  -48.3179 H         1 UNK         0.0800 
    135 H135        2.7234  -12.7537  -49.8186 H         1 UNK         0.0800 
    136 H136        2.4179  -14.3164  -51.6124 H         1 UNK         0.1150 
    137 H137        0.4728  -18.0769  -50.9726 H         1 UNK         0.1150 
    138 H138        1.0432  -15.3874  -47.6905 H         1 UNK         0.1150 
    139 H139       -0.4813  -17.2860  -47.4920 H         1 UNK         0.0800 
    140 H140       -0.7438  -18.3940  -48.8128 H         1 UNK         0.0800 
    141 H141        0.0211  -18.4879  -45.5887 H         1 UNK         0.0800 
    142 H142        1.1888  -19.7415  -45.3016 H         1 UNK         0.0800 
    143 H143       -1.2834  -20.1452  -47.0309 H         1 UNK         0.0600 
    144 H144        0.8258  -21.9785  -46.3008 H         1 UNK         0.3000 
    145 H145       -0.9720  -24.9301  -47.1821 H         1 UNK         0.0600 
    146 H146        1.3358  -23.5758  -48.6647 H         1 UNK         0.0600 
    147 H147        0.8628  -25.2686  -48.7732 H         1 UNK         0.0600 
    148 H148       -0.2060  -24.0236  -49.3963 H         1 UNK         0.0600 
    149 H149        1.7581  -24.4193  -46.4281 H         1 UNK         0.3000 
    150 H150        1.2523  -24.6189  -42.9101 H         1 UNK         0.0600 
    151 H151        1.3549  -26.9953  -43.6843 H         1 UNK         0.0600 
    152 H152        2.9249  -26.4278  -43.1399 H         1 UNK         0.0600 
    153 H153        2.5870  -26.5675  -44.8655 H         1 UNK         0.0600 
    154 H154        3.6423  -24.3441  -44.3649 H         1 UNK         0.3000 
    155 H155        4.7857  -22.3661  -44.1533 H         1 UNK         0.0600 
    156 H156        4.0625  -22.4122  -46.5411 H         1 UNK         0.0600 
    157 H157        4.9197  -20.9204  -46.1894 H         1 UNK         0.0600 
    158 H158        3.1640  -20.9169  -46.3236 H         1 UNK         0.0600 
    159 H159        3.5887  -19.7020  -44.2190 H         1 UNK         0.3000 
    160 H160        2.9662  -19.2139  -41.1115 H         1 UNK         0.0600 
    161 H161        4.7710  -17.6803  -40.3069 H         1 UNK         0.0600 
    162 H162        5.9370  -18.5145  -41.3339 H         1 UNK         0.0600 
    163 H163        5.1554  -19.3675  -40.0122 H         1 UNK         0.0600 
    164 H164        2.5356  -17.6078  -42.4944 H         1 UNK         0.3000 
    165 H165        4.4542  -15.3063  -44.2413 H         1 UNK         0.0600 
    166 H166        2.3553  -17.0409  -45.6419 H         1 UNK         0.0600 
    167 H167        2.8925  -15.4399  -46.1419 H         1 UNK         0.0600 
    168 H168        4.0002  -16.8009  -46.2193 H         1 UNK         0.0600 
    169 H169        1.6193  -15.5852  -43.8735 H         1 UNK         0.3000 
    170 H170        1.4085  -14.9449  -40.4660 H         1 UNK         0.0600 
    171 H171        0.9171  -12.6990  -42.4987 H         1 UNK         0.0600 
    172 H172        0.1702  -12.8334  -40.9056 H         1 UNK         0.0600 
    173 H173        1.8984  -12.5591  -41.0453 H         1 UNK         0.0600 
    174 H174       -0.5990  -14.6518  -42.4190 H         1 UNK         0.3000 
    175 H175       -1.0858  -17.8662  -43.5690 H         1 UNK         0.0600 
    176 H176       -2.8088  -16.6726  -41.3363 H         1 UNK         0.0600 
    177 H177       -3.3087  -17.8982  -42.5049 H         1 UNK         0.0600 
    178 H178       -2.0787  -18.2733  -41.3097 H         1 UNK         0.0600 
    179 H179       -2.8009  -15.5833  -43.5427 H         1 UNK         0.3000 
    180 H180       -2.9731  -14.1768  -45.2355 H         1 UNK         0.0600 
    181 H181       -0.1430  -13.0050  -45.3965 H         1 UNK         0.0600 
    182 H182       -1.2884  -12.7906  -44.0797 H         1 UNK         0.0600 
    183 H183       -1.6309  -12.0959  -45.6564 H         1 UNK         0.0600 
    184 H184       -1.1288  -13.9314  -47.4899 H         1 UNK         0.3000 
    185 H185       -2.1360  -16.0408  -49.5013 H         1 UNK         0.0600 
    186 H186       -3.8210  -15.1255  -51.0922 H         1 UNK         0.0600 
    187 H187       -4.5959  -15.9071  -49.7260 H         1 UNK         0.0600 
    188 H188       -4.5281  -14.1553  -49.8016 H         1 UNK         0.0600 
    189 H189       -0.8997  -14.3943  -50.2745 H         1 UNK         0.3000 
    190 H190       -0.2675  -21.7129  -43.9859 H         1 UNK         0.3000 
    191 H191       -2.2792  -20.6504  -42.3087 H         1 UNK         0.0600 
    192 H192       -0.8484  -23.3567  -42.1605 H         1 UNK         0.0600 
    193 H193       -0.2561  -21.8410  -41.4849 H         1 UNK         0.0600 
    194 H194       -1.7164  -22.5799  -40.8430 H         1 UNK         0.0600 
    195 H195       -2.3569  -23.4287  -44.5301 H         1 UNK         0.3000 
    196 H196       -5.0998  -24.1929  -43.9424 H         1 UNK         0.0600 
    197 H197       -3.3729  -25.8271  -44.7138 H         1 UNK         0.0600 
    198 H198       -3.2512  -24.9749  -46.2517 H         1 UNK         0.0600 
    199 H199       -4.7503  -25.7774  -45.8013 H         1 UNK         0.0600 
    200 H200       -5.0161  -21.4655  -44.4106 H         1 UNK         0.3000 
    201 H201       -5.9800  -19.7539  -45.4440 H         1 UNK         0.0600 
    202 H202       -8.2656  -20.1663  -46.3231 H         1 UNK         0.0600 
    203 H203       -7.9905  -21.1167  -44.8731 H         1 UNK         0.0600 
    204 H204       -7.9352  -21.8889  -46.4563 H         1 UNK         0.0600 
    205 H205       -3.7731  -20.4492  -46.8140 H         1 UNK         0.3000 
    206 H206       -2.6139  -20.2810  -48.7371 H         1 UNK         0.0600 
    207 H207       -4.9527  -18.5899  -49.7512 H         1 UNK         0.0600 
    208 H208       -3.3037  -18.5784  -50.3626 H         1 UNK         0.0600 
    209 H209       -3.6364  -18.0048  -48.7375 H         1 UNK         0.0600 
    210 H210       -3.4099  -22.6371  -48.5537 H         1 UNK         0.3000 
    211 H211       -3.9351  -24.5919  -49.4464 H         1 UNK         0.0600 
    212 H212       -2.1757  -23.9626  -51.0788 H         1 UNK         0.0600 
    213 H213       -3.4032  -24.9461  -51.8578 H         1 UNK         0.0600 
    214 H214       -3.3729  -23.2084  -52.1284 H         1 UNK         0.0600 
    215 H215       -6.1166  -23.3679  -48.6016 H         1 UNK         0.3000 
    216 H216       -8.3128  -23.0920  -48.6673 H         1 UNK         0.0600 
    217 H217       -9.6796  -24.8406  -49.7595 H         1 UNK         0.0600 
    218 H218       -8.3132  -25.3495  -50.7420 H         1 UNK         0.0600 
    219 H219       -8.2758  -25.5655  -48.9926 H         1 UNK         0.0600 
    220 H220       -7.1456  -21.1270  -49.9074 H         1 UNK         0.3000 
    221 H221       -7.3198  -19.3783  -51.1697 H         1 UNK         0.0600 
    222 H222      -10.1380  -20.2976  -51.9348 H         1 UNK         0.0600 
    223 H223       -9.7198  -19.4331  -50.4552 H         1 UNK         0.0600 
    224 H224       -9.5103  -18.6586  -52.0156 H         1 UNK         0.0600 
    225 H225       -6.4823  -22.0631  -52.5064 H         1 UNK         0.3000 
    226 H226       -6.8287  -21.4802  -55.3565 H         1 UNK         0.0600 
    227 H227       -6.6687  -23.8287  -54.4583 H         1 UNK         0.0600 
    228 H228       -5.4519  -23.4784  -55.6772 H         1 UNK         0.0600 
    229 H229       -5.0002  -23.5100  -53.9806 H         1 UNK         0.0600 
    230 H230       -4.7141  -20.4789  -52.8713 H         1 UNK         0.3000 
    231 H231       -3.0884  -19.0082  -52.7205 H         1 UNK         0.0600 
    232 H232       -1.9488  -17.8722  -54.5389 H         1 UNK         0.0600 
    233 H233       -3.6762  -17.8473  -54.8608 H         1 UNK         0.0600 
    234 H234       -2.6230  -18.9563  -55.7405 H         1 UNK         0.0600 
    235 H235       -1.5073  -19.9322  -51.6605 H         1 UNK         0.3000 
    236 H236       -0.4849  -22.4905  -52.1452 H         1 UNK         0.0600 
    237 H237       -0.5972  -21.4859  -49.8999 H         1 UNK         0.0600 
    238 H238        1.0723  -21.9071  -50.2543 H         1 UNK         0.0600 
    239 H239        0.5635  -20.2375  -50.3517 H         1 UNK         0.0600 
    240 H240        0.6374  -19.4789  -53.4595 H         1 UNK         0.3000 
    241 H241        3.2849  -20.4399  -54.2092 H         1 UNK         0.0600 
    242 H242        0.7627  -21.5918  -57.1314 H         1 UNK         0.3800 
    243 H243        0.1664  -21.1795  -55.5446 H         1 UNK         0.3800 
    244 H244        3.5456  -18.3178  -55.4012 H         1 UNK         0.0800 
    245 H245        1.8572  -17.9354  -55.2147 H         1 UNK         0.0800 
    246 H246        0.7401  -17.1084  -53.2645 H         1 UNK         0.0800 
    247 H247        1.7460  -15.7028  -53.5246 H         1 UNK         0.0800 
@<TRIPOS>BOND
     1    1    2 1    
     2    1  127 1    
     3    1  128 1    
     4    1  129 1    
     5    2    3 2    
     6    2    4 am   BACKBONE|DICT|INTERRES
     7    4    5 1    
     8    4  130 1    
     9    5    6 1    
    10    5   65 1    
    11    5  131 1    
    12    6    7 1    
    13    6  132 1    
    14    6  133 1    
    15    7    8 1    
    16    8    9 1    
    17    8  134 1    
    18    8  135 1    
    19    9   10 ar   
    20    9   14 ar   
    21   10   11 ar   
    22   10  136 1    
    23   11   12 ar   
    24   11  126 1    
    25   12   13 ar   
    26   12  137 1    
    27   13   14 ar   
    28   13   15 1    
    29   14  138 1    
    30   15   16 1    
    31   15  139 1    
    32   15  140 1    
    33   16   17 1    
    34   17   18 1    
    35   17  141 1    
    36   17  142 1    
    37   18   19 1    
    38   18   67 1    
    39   18  143 1    
    40   19   20 am   BACKBONE|DICT|INTERRES
    41   19  144 1    
    42   20   21 2    
    43   20   22 1    
    44   22   23 1    
    45   22   24 1    
    46   22  145 1    
    47   23  146 1    
    48   23  147 1    
    49   23  148 1    
    50   24   25 am   BACKBONE|DICT|INTERRES
    51   24  149 1    
    52   25   26 2    
    53   25   27 1    
    54   27   28 1    
    55   27   29 1    
    56   27  150 1    
    57   28  151 1    
    58   28  152 1    
    59   28  153 1    
    60   29   30 am   BACKBONE|DICT|INTERRES
    61   29  154 1    
    62   30   31 2    
    63   30   32 1    
    64   32   33 1    
    65   32   34 1    
    66   32  155 1    
    67   33  156 1    
    68   33  157 1    
    69   33  158 1    
    70   34   35 am   BACKBONE|DICT|INTERRES
    71   34  159 1    
    72   35   36 2    
    73   35   37 1    
    74   37   38 1    
    75   37   39 1    
    76   37  160 1    
    77   38  161 1    
    78   38  162 1    
    79   38  163 1    
    80   39   40 am   BACKBONE|DICT|INTERRES
    81   39  164 1    
    82   40   41 2    
    83   40   42 1    
    84   42   43 1    
    85   42   44 1    
    86   42  165 1    
    87   43  166 1    
    88   43  167 1    
    89   43  168 1    
    90   44   45 am   BACKBONE|DICT|INTERRES
    91   44  169 1    
    92   45   46 2    
    93   45   47 1    
    94   47   48 1    
    95   47   49 1    
    96   47  170 1    
    97   48  171 1    
    98   48  172 1    
    99   48  173 1    
   100   49   50 am   BACKBONE|DICT|INTERRES
   101   49  174 1    
   102   50   51 2    
   103   50   52 1    
   104   52   53 1    
   105   52   54 1    
   106   52  175 1    
   107   53  176 1    
   108   53  177 1    
   109   53  178 1    
   110   54   55 am   BACKBONE|DICT|INTERRES
   111   54  179 1    
   112   55   56 2    
   113   55   57 1    
   114   57   58 1    
   115   57   59 1    
   116   57  180 1    
   117   58  181 1    
   118   58  182 1    
   119   58  183 1    
   120   59   60 am   BACKBONE|DICT|INTERRES
   121   59  184 1    
   122   60   61 2    
   123   60   62 1    
   124   62   63 1    
   125   62   64 1    
   126   62  185 1    
   127   63  186 1    
   128   63  187 1    
   129   63  188 1    
   130   64   65 am   BACKBONE|DICT|INTERRES
   131   64  189 1    
   132   65   66 2    
   133   67   68 2    
   134   67   69 am   BACKBONE|DICT|INTERRES
   135   69   70 1    
   136   69  190 1    
   137   70   71 1    
   138   70   72 1    
   139   70  191 1    
   140   71  192 1    
   141   71  193 1    
   142   71  194 1    
   143   72   73 2    
   144   72   74 am   BACKBONE|DICT|INTERRES
   145   74   75 1    
   146   74  195 1    
   147   75   76 1    
   148   75   77 1    
   149   75  196 1    
   150   76  197 1    
   151   76  198 1    
   152   76  199 1    
   153   77   78 2    
   154   77   79 am   BACKBONE|DICT|INTERRES
   155   79   80 1    
   156   79  200 1    
   157   80   81 1    
   158   80   82 1    
   159   80  201 1    
   160   81  202 1    
   161   81  203 1    
   162   81  204 1    
   163   82   83 2    
   164   82   84 am   BACKBONE|DICT|INTERRES
   165   84   85 1    
   166   84  205 1    
   167   85   86 1    
   168   85   87 1    
   169   85  206 1    
   170   86  207 1    
   171   86  208 1    
   172   86  209 1    
   173   87   88 2    
   174   87   89 am   BACKBONE|DICT|INTERRES
   175   89   90 1    
   176   89  210 1    
   177   90   91 1    
   178   90   92 1    
   179   90  211 1    
   180   91  212 1    
   181   91  213 1    
   182   91  214 1    
   183   92   93 2    
   184   92   94 am   BACKBONE|DICT|INTERRES
   185   94   95 1    
   186   94  215 1    
   187   95   96 1    
   188   95   97 1    
   189   95  216 1    
   190   96  217 1    
   191   96  218 1    
   192   96  219 1    
   193   97   98 2    
   194   97   99 am   BACKBONE|DICT|INTERRES
   195   99  100 1    
   196   99  220 1    
   197  100  101 1    
   198  100  102 1    
   199  100  221 1    
   200  101  222 1    
   201  101  223 1    
   202  101  224 1    
   203  102  103 2    
   204  102  104 am   BACKBONE|DICT|INTERRES
   205  104  105 1    
   206  104  225 1    
   207  105  106 1    
   208  105  107 1    
   209  105  226 1    
   210  106  227 1    
   211  106  228 1    
   212  106  229 1    
   213  107  108 2    
   214  107  109 am   BACKBONE|DICT|INTERRES
   215  109  110 1    
   216  109  230 1    
   217  110  111 1    
   218  110  112 1    
   219  110  231 1    
   220  111  232 1    
   221  111  233 1    
   222  111  234 1    
   223  112  113 2    
   224  112  114 am   BACKBONE|DICT|INTERRES
   225  114  115 1    
   226  114  235 1    
   227  115  116 1    
   228  115  117 1    
   229  115  236 1    
   230  116  237 1    
   231  116  238 1    
   232  116  239 1    
   233  117  118 2    
   234  117  119 am   BACKBONE|DICT|INTERRES
   235  119  120 1    
   236  119  240 1    
   237  120  121 1    
   238  120  124 1    
   239  120  241 1    
   240  121  122 am   BACKBONE|DICT|INTERRES
   241  121  123 2    
   242  122  242 1    
   243  122  243 1    
   244  124  125 1    
   245  124  244 1    
   246  124  245 1    
   247  125  126 1    
   248  126  246 1    
   249  126  247 1    
@<TRIPOS>SUBSTRUCTURE
     1 UNK         1 GROUP             0       ****    0 ROOT    
