@<TRIPOS>MOLECULE
3R540
247   249    1
SMALL
USER_CHARGES


@<TRIPOS>ATOM
      1 CA          3.3241  -10.2555  -43.8171 C.3       0 UNK        -0.1800 
      2 C           2.7789  -10.5565  -45.2052 C.2       0 UNK         0.5000 
      3 O           2.9708   -9.7586  -46.1228 O.2       0 UNK        -0.5000 
      4 N           2.0968  -11.6997  -45.3623 N.am      1 UNK        -0.5000 
      5 CA          1.5591  -12.1669  -46.6485 C.3       1 UNK         0.1400 
      6 C6          0.3950  -13.1704  -46.4545 C.3       23 UNK        -0.0398 
      7 S7         -0.8367  -13.0730  -47.7957 S.3       23 UNK        -0.2404 
      8 C8         -1.3197  -14.8166  -47.9751 C.3       23 UNK        -0.0205 
      9 C9         -0.5496  -15.5328  -49.0733 C.ar      23 UNK        -0.0193 
     10 C10        -0.9330  -15.3692  -50.4067 C.ar      23 UNK        -0.1150 
     11 C11        -0.2917  -16.0813  -51.4226 C.ar      23 UNK        -0.0193 
     12 C12         0.7414  -16.9637  -51.0964 C.ar      23 UNK        -0.1150 
     13 C13         1.1423  -17.1362  -49.7677 C.ar      23 UNK        -0.0193 
     14 C14         0.4998  -16.4031  -48.7614 C.ar      23 UNK        -0.1150 
     15 C15         2.2718  -18.1162  -49.4521 C.3       23 UNK        -0.0205 
     16 S16         1.9739  -19.1779  -47.9980 S.3       23 UNK        -0.2404 
     17 C17         0.3269  -19.8747  -48.3655 C.3       23 UNK        -0.0398 
     18 CA          0.0584  -21.1972  -47.6099 C.3       11 UNK         0.1400 
     19 N           0.1804  -21.0726  -46.1520 N.am      11 UNK        -0.5000 
     20 C           0.3163  -22.1235  -45.3308 C.2       10 UNK         0.5000 
     21 O           0.3366  -23.2900  -45.7242 O.2       10 UNK        -0.5000 
     22 CA          0.4130  -21.8450  -43.8205 C.3       10 UNK         0.1400 
     23 CB          1.8454  -21.4600  -43.4246 C.3       10 UNK        -0.1800 
     24 N          -0.5289  -20.8349  -43.3340 N.am      10 UNK        -0.5000 
     25 C          -1.8618  -20.9843  -43.3435 C.2       9 UNK         0.5000 
     26 O          -2.4382  -21.9244  -43.8896 O.2       9 UNK        -0.5000 
     27 CA         -2.6890  -19.9069  -42.6258 C.3       9 UNK         0.1400 
     28 CB         -2.5524  -20.0346  -41.1002 C.3       9 UNK        -0.1800 
     29 N          -2.2669  -18.5747  -43.0450 N.am      9 UNK        -0.5000 
     30 C          -2.8369  -17.8856  -44.0423 C.2       8 UNK         0.5000 
     31 O          -3.8553  -18.2498  -44.6305 O.2       8 UNK        -0.5000 
     32 CA         -2.1428  -16.5823  -44.4861 C.3       8 UNK         0.1400 
     33 CB         -2.7858  -15.3619  -43.8125 C.3       8 UNK        -0.1800 
     34 N          -0.6972  -16.5639  -44.2401 N.am      8 UNK        -0.5000 
     35 C           0.1758  -17.4174  -44.7985 C.2       7 UNK         0.5000 
     36 O          -0.1500  -18.2660  -45.6245 O.2       7 UNK        -0.5000 
     37 CA          1.6347  -17.3827  -44.2991 C.3       7 UNK         0.1400 
     38 CB          2.5139  -16.5073  -45.1997 C.3       7 UNK        -0.1800 
     39 N           1.7655  -16.9212  -42.9189 N.am      7 UNK        -0.5000 
     40 C           1.1812  -17.4823  -41.8500 C.2       6 UNK         0.5000 
     41 O           0.5274  -18.5252  -41.9042 O.2       6 UNK        -0.5000 
     42 CA          1.2933  -16.7244  -40.5120 C.3       6 UNK         0.1400 
     43 CB          2.3195  -17.4094  -39.5978 C.3       6 UNK        -0.1800 
     44 N           1.6537  -15.3089  -40.6539 N.am      6 UNK        -0.5000 
     45 C           0.9470  -14.3721  -41.3070 C.2       5 UNK         0.5000 
     46 O          -0.1273  -14.5919  -41.8664 O.2       5 UNK        -0.5000 
     47 CA          1.5895  -12.9751  -41.4115 C.3       5 UNK         0.1400 
     48 CB          1.1071  -12.0687  -40.2702 C.3       5 UNK        -0.1800 
     49 N           3.0556  -13.0329  -41.3996 N.am      5 UNK        -0.5000 
     50 C           3.8003  -13.5225  -42.3991 C.2       4 UNK         0.5000 
     51 O           3.3357  -13.8585  -43.4936 O.2       4 UNK        -0.5000 
     52 CA          5.2991  -13.6922  -42.1116 C.3       4 UNK         0.1400 
     53 CB          5.5351  -14.7551  -41.0205 C.3       4 UNK        -0.1800 
     54 N           5.9732  -14.0963  -43.3392 N.am      4 UNK        -0.5000 
     55 C           7.2734  -13.9408  -43.6130 C.2       3 UNK         0.5000 
     56 O           8.0792  -13.4344  -42.8309 O.2       3 UNK        -0.5000 
     57 CA          7.7647  -14.4362  -44.9899 C.3       3 UNK         0.1400 
     58 CB          8.4440  -15.8077  -44.8526 C.3       3 UNK        -0.1800 
     59 N           6.7030  -14.5350  -45.9964 N.am      3 UNK        -0.5000 
     60 C           6.0733  -13.4882  -46.5452 C.2       2 UNK         0.5000 
     61 O           6.3372  -12.3166  -46.2704 O.2       2 UNK        -0.5000 
     62 CA          4.9340  -13.7819  -47.5321 C.3       2 UNK         0.1400 
     63 CB          4.7894  -15.2606  -47.9463 C.3       2 UNK        -0.1800 
     64 N           3.7047  -13.3156  -46.9070 N.am      2 UNK        -0.5000 
     65 C           2.6749  -12.7480  -47.5445 C.2       1 UNK         0.5000 
     66 O           2.6007  -12.6401  -48.7691 O.2       1 UNK        -0.5000 
     67 C          -1.3137  -21.7763  -48.0029 C.2       11 UNK         0.5000 
     68 O          -1.3896  -22.5585  -48.9494 O.2       11 UNK        -0.5000 
     69 N          -2.3633  -21.4232  -47.2453 N.am      12 UNK        -0.5000 
     70 CA         -3.7108  -21.9703  -47.4016 C.3       12 UNK         0.1400 
     71 CB         -4.7062  -21.1594  -46.5592 C.3       12 UNK        -0.1800 
     72 C          -3.7672  -23.4647  -47.0425 C.2       12 UNK         0.5000 
     73 O          -4.3751  -24.2398  -47.7803 O.2       12 UNK        -0.5000 
     74 N          -3.0932  -23.8486  -45.9489 N.am      13 UNK        -0.5000 
     75 CA         -2.9282  -25.2359  -45.5169 C.3       13 UNK         0.1400 
     76 CB         -2.2731  -25.2736  -44.1282 C.3       13 UNK        -0.1800 
     77 C          -2.1281  -26.0758  -46.5284 C.2       13 UNK         0.5000 
     78 O          -2.5467  -27.1876  -46.8506 O.2       13 UNK        -0.5000 
     79 N          -1.0278  -25.5151  -47.0529 N.am      14 UNK        -0.5000 
     80 CA         -0.1981  -26.1246  -48.0975 C.3       14 UNK         0.1400 
     81 CB          1.0628  -25.2752  -48.3145 C.3       14 UNK        -0.1800 
     82 C          -0.9514  -26.3282  -49.4269 C.2       14 UNK         0.5000 
     83 O          -0.7485  -27.3439  -50.0925 O.2       14 UNK        -0.5000 
     84 N          -1.8362  -25.3812  -49.7655 N.am      15 UNK        -0.5000 
     85 CA         -2.7444  -25.4456  -50.9116 C.3       15 UNK         0.1400 
     86 CB         -3.2005  -24.0194  -51.2600 C.3       15 UNK        -0.1800 
     87 C          -3.9703  -26.3544  -50.6827 C.2       15 UNK         0.5000 
     88 O          -4.7597  -26.5256  -51.6109 O.2       15 UNK        -0.5000 
     89 N          -4.1405  -26.8860  -49.4619 N.am      16 UNK        -0.5000 
     90 CA         -5.2710  -27.6982  -48.9960 C.3       16 UNK         0.1400 
     91 CB         -5.2842  -29.0706  -49.7008 C.3       16 UNK        -0.1800 
     92 C          -6.6226  -26.9556  -49.0884 C.2       16 UNK         0.5000 
     93 O          -7.6498  -27.5701  -49.3817 O.2       16 UNK        -0.5000 
     94 N          -6.5827  -25.6368  -48.8449 N.am      17 UNK        -0.5000 
     95 CA         -7.6875  -24.6755  -48.8999 C.3       17 UNK         0.1400 
     96 CB         -8.7136  -24.9619  -47.7838 C.3       17 UNK        -0.1800 
     97 C          -8.3376  -24.5350  -50.2952 C.2       17 UNK         0.5000 
     98 O          -9.5091  -24.1616  -50.3853 O.2       17 UNK        -0.5000 
     99 N          -7.5763  -24.8218  -51.3621 N.am      18 UNK        -0.5000 
    100 CA        -8.0029  -24.6611  -52.7527 C.3       18 UNK         0.1400 
    101 CB        -6.9597  -25.2984  -53.6823 C.3       18 UNK        -0.1800 
    102 C         -8.2153  -23.1817  -53.1243 C.2       18 UNK         0.5000 
    103 O         -7.4164  -22.3272  -52.7314 O.2       18 UNK        -0.5000 
    104 N         -9.2770  -22.9113  -53.8918 N.am      19 UNK        -0.5000 
    105 CA        -9.5968  -21.5854  -54.4163 C.3       19 UNK         0.1400 
    106 CB       -11.0520  -21.5772  -54.9093 C.3       19 UNK        -0.1800 
    107 C         -8.6382  -21.1927  -55.5542 C.2       19 UNK         0.5000 
    108 O         -8.2995  -22.0400  -56.3842 O.2       19 UNK        -0.5000 
    109 N         -8.2432  -19.9117  -55.5754 N.am      20 UNK        -0.5000 
    110 CA        -7.3718  -19.2700  -56.5700 C.3       20 UNK         0.1400 
    111 CB        -8.0726  -19.2021  -57.9434 C.3       20 UNK        -0.1800 
    112 C         -5.9528  -19.8771  -56.6560 C.2       20 UNK         0.5000 
    113 O         -5.3127  -19.7958  -57.7066 O.2       20 UNK        -0.5000 
    114 N         -5.4671  -20.4483  -55.5428 N.am      21 UNK        -0.5000 
    115 CA        -4.1652  -21.1171  -55.4270 C.3       21 UNK         0.1400 
    116 CB        -4.0535  -21.7542  -54.0343 C.3       21 UNK        -0.1800 
    117 C         -2.9526  -20.2043  -55.7043 C.2       21 UNK         0.5000 
    118 O         -1.9047  -20.6980  -56.1229 O.2       21 UNK        -0.5000 
    119 N         -3.1271  -18.8944  -55.4929 N.am      22 UNK        -0.5000 
    120 CA        -2.1615  -17.8419  -55.8458 C.3       22 UNK         0.1400 
    121 C         -2.0905  -17.5214  -57.3702 C.2       22 UNK         0.5000 
    122 N         -2.9649  -18.0527  -58.2181 N.am      22 UNK        -0.7600 
    123 O         -1.2126  -16.7763  -57.7969 O.2       22 UNK        -0.5000 
    124 C124       -2.4063  -16.5512  -55.0224 C.3       23 UNK        -0.0398 
    125 S125       -2.2443  -16.8302  -53.2253 S.3       23 UNK        -0.2404 
    126 C126       -0.7210  -15.9020  -52.8696 C.3       23 UNK        -0.0205 
    127 H127        2.6769  -10.6600  -43.0403 H         1 UNK         0.0600 
    128 H128        4.3197  -10.6846  -43.7034 H         1 UNK         0.0600 
    129 H129        3.3966   -9.1790  -43.6611 H         1 UNK         0.0600 
    130 H130        2.0225  -12.3428  -44.5849 H         1 UNK         0.3000 
    131 H131        1.1627  -11.2887  -47.1637 H         1 UNK         0.0600 
    132 H132        0.7607  -14.1919  -46.3551 H         1 UNK         0.0800 
    133 H133       -0.1403  -12.9555  -45.5283 H         1 UNK         0.0800 
    134 H134       -1.1852  -15.3314  -47.0264 H         1 UNK         0.0800 
    135 H135       -2.3871  -14.8634  -48.1959 H         1 UNK         0.0800 
    136 H136       -1.7455  -14.6997  -50.6529 H         1 UNK         0.1150 
    137 H137        1.2322  -17.5212  -51.8819 H         1 UNK         0.1150 
    138 H138        0.7921  -16.5360  -47.7312 H         1 UNK         0.1150 
    139 H139        2.4606  -18.7660  -50.3080 H         1 UNK         0.0800 
    140 H140        3.1903  -17.5530  -49.2893 H         1 UNK         0.0800 
    141 H141        0.2564  -20.0374  -49.4427 H         1 UNK         0.0800 
    142 H142       -0.4292  -19.1278  -48.1184 H         1 UNK         0.0800 
    143 H143        0.8125  -21.9140  -47.9419 H         1 UNK         0.0600 
    144 H144        0.1445  -20.1266  -45.7808 H         1 UNK         0.3000 
    145 H145        0.1717  -22.7774  -43.3055 H         1 UNK         0.0600 
    146 H146        1.9240  -21.2650  -42.3548 H         1 UNK         0.0600 
    147 H147        2.5410  -22.2662  -43.6609 H         1 UNK         0.0600 
    148 H148        2.1874  -20.5737  -43.9550 H         1 UNK         0.0600 
    149 H149       -0.1297  -20.0328  -42.8547 H         1 UNK         0.3000 
    150 H150       -3.7397  -20.0670  -42.8777 H         1 UNK         0.0600 
    151 H151       -2.8697  -21.0222  -40.7630 H         1 UNK         0.0600 
    152 H152       -3.1755  -19.3010  -40.5885 H         1 UNK         0.0600 
    153 H153       -1.5245  -19.8892  -40.7665 H         1 UNK         0.0600 
    154 H154       -1.4042  -18.2299  -42.6424 H         1 UNK         0.3000 
    155 H155       -2.3068  -16.5029  -45.5603 H         1 UNK         0.0600 
    156 H156       -2.3494  -14.4329  -44.1801 H         1 UNK         0.0600 
    157 H157       -2.6575  -15.3880  -42.7297 H         1 UNK         0.0600 
    158 H158       -3.8567  -15.3216  -44.0159 H         1 UNK         0.0600 
    159 H159       -0.3700  -15.9142  -43.5338 H         1 UNK         0.3000 
    160 H160        2.0204  -18.3999  -44.3465 H         1 UNK         0.0600 
    161 H161        2.1876  -15.4697  -45.1923 H         1 UNK         0.0600 
    162 H162        2.4914  -16.8552  -46.2311 H         1 UNK         0.0600 
    163 H163        3.5541  -16.5308  -44.8748 H         1 UNK         0.0600 
    164 H164        2.2690  -16.0560  -42.7862 H         1 UNK         0.3000 
    165 H165        0.3143  -16.7724  -40.0312 H         1 UNK         0.0600 
    166 H166        3.3245  -17.3697  -40.0200 H         1 UNK         0.0600 
    167 H167        2.3486  -16.9396  -38.6145 H         1 UNK         0.0600 
    168 H168        2.0685  -18.4603  -39.4460 H         1 UNK         0.0600 
    169 H169        2.5244  -15.0290  -40.2286 H         1 UNK         0.3000 
    170 H170        1.2640  -12.5358  -42.3563 H         1 UNK         0.0600 
    171 H171        0.0190  -11.9905  -40.2674 H         1 UNK         0.0600 
    172 H172        1.4116  -12.4502  -39.2948 H         1 UNK         0.0600 
    173 H173        1.5039  -11.0587  -40.3753 H         1 UNK         0.0600 
    174 H174        3.5087  -12.7499  -40.5421 H         1 UNK         0.3000 
    175 H175        5.6912  -12.7275  -41.7833 H         1 UNK         0.0600 
    176 H176        6.5984  -14.8878  -40.8204 H         1 UNK         0.0600 
    177 H177        5.0686  -14.4711  -40.0769 H         1 UNK         0.0600 
    178 H178        5.1292  -15.7249  -41.3116 H         1 UNK         0.0600 
    179 H179        5.3576  -14.4764  -44.0453 H         1 UNK         0.3000 
    180 H180        8.5085  -13.7211  -45.3479 H         1 UNK         0.0600 
    181 H181        7.7439  -16.5709  -44.5105 H         1 UNK         0.0600 
    182 H182        9.2633  -15.7682  -44.1335 H         1 UNK         0.0600 
    183 H183        8.8642  -16.1375  -45.8030 H         1 UNK         0.0600 
    184 H184        6.4295  -15.4662  -46.2746 H         1 UNK         0.3000 
    185 H185        5.1391  -13.1908  -48.4271 H         1 UNK         0.0600 
    186 H186        3.9725  -15.3798  -48.6579 H         1 UNK         0.0600 
    187 H187        5.6947  -15.6230  -48.4347 H         1 UNK         0.0600 
    188 H188        4.5822  -15.9102  -47.0968 H         1 UNK         0.0600 
    189 H189        3.7033  -13.3056  -45.8953 H         1 UNK         0.3000 
    190 H190       -2.2088  -20.8043  -46.4627 H         1 UNK         0.3000 
    191 H191       -3.9964  -21.8699  -48.4508 H         1 UNK         0.0600 
    192 H192       -4.7111  -20.1106  -46.8567 H         1 UNK         0.0600 
    193 H193       -5.7213  -21.5380  -46.6850 H         1 UNK         0.0600 
    194 H194       -4.4702  -21.2017  -45.4958 H         1 UNK         0.0600 
    195 H195       -2.6710  -23.1370  -45.3586 H         1 UNK         0.3000 
    196 H196       -3.9234  -25.6774  -45.4332 H         1 UNK         0.0600 
    197 H197       -2.1603  -26.3001  -43.7771 H         1 UNK         0.0600 
    198 H198       -2.8786  -24.7428  -43.3934 H         1 UNK         0.0600 
    199 H199       -1.2829  -24.8178  -44.1353 H         1 UNK         0.0600 
    200 H200       -0.7173  -24.6167  -46.6934 H         1 UNK         0.3000 
    201 H201        0.1129  -27.1085  -47.7404 H         1 UNK         0.0600 
    202 H202        1.6388  -25.1808  -47.3938 H         1 UNK         0.0600 
    203 H203        0.8162  -24.2714  -48.6602 H         1 UNK         0.0600 
    204 H204        1.7155  -25.7286  -49.0616 H         1 UNK         0.0600 
    205 H205       -1.8909  -24.5419  -49.1981 H         1 UNK         0.3000 
    206 H206       -2.1996  -25.8469  -51.7684 H         1 UNK         0.0600 
    207 H207       -2.3506  -23.3799  -51.4990 H         1 UNK         0.0600 
    208 H208       -3.8603  -24.0193  -52.1278 H         1 UNK         0.0600 
    209 H209       -3.7450  -23.5585  -50.4355 H         1 UNK         0.0600 
    210 H210       -3.4466  -26.6762  -48.7549 H         1 UNK         0.3000 
    211 H211       -5.0982  -27.8760  -47.9338 H         1 UNK         0.0600 
    212 H212       -5.5160  -28.9795  -50.7624 H         1 UNK         0.0600 
    213 H213       -6.0317  -29.7301  -49.2587 H         1 UNK         0.0600 
    214 H214       -4.3190  -29.5687  -49.6094 H         1 UNK         0.0600 
    215 H215       -5.6842  -25.2329  -48.5834 H         1 UNK         0.3000 
    216 H216       -7.2401  -23.7037  -48.6865 H         1 UNK         0.0600 
    217 H217       -8.2270  -25.0351  -46.8112 H         1 UNK         0.0600 
    218 H218       -9.2545  -25.8920  -47.9601 H         1 UNK         0.0600 
    219 H219       -9.4522  -24.1626  -47.7147 H         1 UNK         0.0600 
    220 H220       -6.6290  -25.1439  -51.2152 H         1 UNK         0.3000 
    221 H221       -8.9465  -25.1963  -52.8776 H         1 UNK         0.0600 
    222 H222       -5.9815  -24.8292  -53.5701 H         1 UNK         0.0600 
    223 H223       -6.8464  -26.3629  -53.4764 H         1 UNK         0.0600 
    224 H224       -7.2534  -25.1989  -54.7281 H         1 UNK         0.0600 
    225 H225       -9.8630  -23.6702  -54.2076 H         1 UNK         0.3000 
    226 H226       -9.5047  -20.8610  -53.6039 H         1 UNK         0.0600 
    227 H227      -11.7436  -21.8225  -54.1030 H         1 UNK         0.0600 
    228 H228      -11.3305  -20.5925  -55.2871 H         1 UNK         0.0600 
    229 H229      -11.2085  -22.2941  -55.7165 H         1 UNK         0.0600 
    230 H230       -8.5756  -19.3009  -54.8416 H         1 UNK         0.3000 
    231 H231       -7.2310  -18.2438  -56.2278 H         1 UNK         0.0600 
    232 H232       -7.5027  -18.5926  -58.6456 H         1 UNK         0.0600 
    233 H233       -9.0629  -18.7547  -57.8593 H         1 UNK         0.0600 
    234 H234       -8.1877  -20.1907  -58.3887 H         1 UNK         0.0600 
    235 H235       -6.0596  -20.4774  -54.7253 H         1 UNK         0.3000 
    236 H236       -4.1421  -21.9172  -56.1696 H         1 UNK         0.0600 
    237 H237       -3.1045  -22.2795  -53.9194 H         1 UNK         0.0600 
    238 H238       -4.1135  -21.0065  -53.2425 H         1 UNK         0.0600 
    239 H239       -4.8484  -22.4816  -53.8702 H         1 UNK         0.0600 
    240 H240       -4.0166  -18.5825  -55.1343 H         1 UNK         0.3000 
    241 H241       -1.1677  -18.2090  -55.5818 H         1 UNK         0.0600 
    242 H242       -2.8920  -17.8321  -59.1986 H         1 UNK         0.3800 
    243 H243       -3.6992  -18.6796  -57.9052 H         1 UNK         0.3800 
    244 H244       -1.7125  -15.7637  -55.3223 H         1 UNK         0.0800 
    245 H245       -3.4054  -16.1596  -55.2203 H         1 UNK         0.0800 
    246 H246        0.0711  -16.2321  -53.5438 H         1 UNK         0.0800 
    247 H247       -0.8831  -14.8427  -53.0753 H         1 UNK         0.0800 
@<TRIPOS>BOND
     1    1    2 1    
     2    1  127 1    
     3    1  128 1    
     4    1  129 1    
     5    2    3 2    
     6    2    4 am   BACKBONE|DICT|INTERRES
     7    4    5 1    
     8    4  130 1    
     9    5    6 1    
    10    5   65 1    
    11    5  131 1    
    12    6    7 1    
    13    6  132 1    
    14    6  133 1    
    15    7    8 1    
    16    8    9 1    
    17    8  134 1    
    18    8  135 1    
    19    9   10 ar   
    20    9   14 ar   
    21   10   11 ar   
    22   10  136 1    
    23   11   12 ar   
    24   11  126 1    
    25   12   13 ar   
    26   12  137 1    
    27   13   14 ar   
    28   13   15 1    
    29   14  138 1    
    30   15   16 1    
    31   15  139 1    
    32   15  140 1    
    33   16   17 1    
    34   17   18 1    
    35   17  141 1    
    36   17  142 1    
    37   18   19 1    
    38   18   67 1    
    39   18  143 1    
    40   19   20 am   BACKBONE|DICT|INTERRES
    41   19  144 1    
    42   20   21 2    
    43   20   22 1    
    44   22   23 1    
    45   22   24 1    
    46   22  145 1    
    47   23  146 1    
    48   23  147 1    
    49   23  148 1    
    50   24   25 am   BACKBONE|DICT|INTERRES
    51   24  149 1    
    52   25   26 2    
    53   25   27 1    
    54   27   28 1    
    55   27   29 1    
    56   27  150 1    
    57   28  151 1    
    58   28  152 1    
    59   28  153 1    
    60   29   30 am   BACKBONE|DICT|INTERRES
    61   29  154 1    
    62   30   31 2    
    63   30   32 1    
    64   32   33 1    
    65   32   34 1    
    66   32  155 1    
    67   33  156 1    
    68   33  157 1    
    69   33  158 1    
    70   34   35 am   BACKBONE|DICT|INTERRES
    71   34  159 1    
    72   35   36 2    
    73   35   37 1    
    74   37   38 1    
    75   37   39 1    
    76   37  160 1    
    77   38  161 1    
    78   38  162 1    
    79   38  163 1    
    80   39   40 am   BACKBONE|DICT|INTERRES
    81   39  164 1    
    82   40   41 2    
    83   40   42 1    
    84   42   43 1    
    85   42   44 1    
    86   42  165 1    
    87   43  166 1    
    88   43  167 1    
    89   43  168 1    
    90   44   45 am   BACKBONE|DICT|INTERRES
    91   44  169 1    
    92   45   46 2    
    93   45   47 1    
    94   47   48 1    
    95   47   49 1    
    96   47  170 1    
    97   48  171 1    
    98   48  172 1    
    99   48  173 1    
   100   49   50 am   BACKBONE|DICT|INTERRES
   101   49  174 1    
   102   50   51 2    
   103   50   52 1    
   104   52   53 1    
   105   52   54 1    
   106   52  175 1    
   107   53  176 1    
   108   53  177 1    
   109   53  178 1    
   110   54   55 am   BACKBONE|DICT|INTERRES
   111   54  179 1    
   112   55   56 2    
   113   55   57 1    
   114   57   58 1    
   115   57   59 1    
   116   57  180 1    
   117   58  181 1    
   118   58  182 1    
   119   58  183 1    
   120   59   60 am   BACKBONE|DICT|INTERRES
   121   59  184 1    
   122   60   61 2    
   123   60   62 1    
   124   62   63 1    
   125   62   64 1    
   126   62  185 1    
   127   63  186 1    
   128   63  187 1    
   129   63  188 1    
   130   64   65 am   BACKBONE|DICT|INTERRES
   131   64  189 1    
   132   65   66 2    
   133   67   68 2    
   134   67   69 am   BACKBONE|DICT|INTERRES
   135   69   70 1    
   136   69  190 1    
   137   70   71 1    
   138   70   72 1    
   139   70  191 1    
   140   71  192 1    
   141   71  193 1    
   142   71  194 1    
   143   72   73 2    
   144   72   74 am   BACKBONE|DICT|INTERRES
   145   74   75 1    
   146   74  195 1    
   147   75   76 1    
   148   75   77 1    
   149   75  196 1    
   150   76  197 1    
   151   76  198 1    
   152   76  199 1    
   153   77   78 2    
   154   77   79 am   BACKBONE|DICT|INTERRES
   155   79   80 1    
   156   79  200 1    
   157   80   81 1    
   158   80   82 1    
   159   80  201 1    
   160   81  202 1    
   161   81  203 1    
   162   81  204 1    
   163   82   83 2    
   164   82   84 am   BACKBONE|DICT|INTERRES
   165   84   85 1    
   166   84  205 1    
   167   85   86 1    
   168   85   87 1    
   169   85  206 1    
   170   86  207 1    
   171   86  208 1    
   172   86  209 1    
   173   87   88 2    
   174   87   89 am   BACKBONE|DICT|INTERRES
   175   89   90 1    
   176   89  210 1    
   177   90   91 1    
   178   90   92 1    
   179   90  211 1    
   180   91  212 1    
   181   91  213 1    
   182   91  214 1    
   183   92   93 2    
   184   92   94 am   BACKBONE|DICT|INTERRES
   185   94   95 1    
   186   94  215 1    
   187   95   96 1    
   188   95   97 1    
   189   95  216 1    
   190   96  217 1    
   191   96  218 1    
   192   96  219 1    
   193   97   98 2    
   194   97   99 am   BACKBONE|DICT|INTERRES
   195   99  100 1    
   196   99  220 1    
   197  100  101 1    
   198  100  102 1    
   199  100  221 1    
   200  101  222 1    
   201  101  223 1    
   202  101  224 1    
   203  102  103 2    
   204  102  104 am   BACKBONE|DICT|INTERRES
   205  104  105 1    
   206  104  225 1    
   207  105  106 1    
   208  105  107 1    
   209  105  226 1    
   210  106  227 1    
   211  106  228 1    
   212  106  229 1    
   213  107  108 2    
   214  107  109 am   BACKBONE|DICT|INTERRES
   215  109  110 1    
   216  109  230 1    
   217  110  111 1    
   218  110  112 1    
   219  110  231 1    
   220  111  232 1    
   221  111  233 1    
   222  111  234 1    
   223  112  113 2    
   224  112  114 am   BACKBONE|DICT|INTERRES
   225  114  115 1    
   226  114  235 1    
   227  115  116 1    
   228  115  117 1    
   229  115  236 1    
   230  116  237 1    
   231  116  238 1    
   232  116  239 1    
   233  117  118 2    
   234  117  119 am   BACKBONE|DICT|INTERRES
   235  119  120 1    
   236  119  240 1    
   237  120  121 1    
   238  120  124 1    
   239  120  241 1    
   240  121  122 am   BACKBONE|DICT|INTERRES
   241  121  123 2    
   242  122  242 1    
   243  122  243 1    
   244  124  125 1    
   245  124  244 1    
   246  124  245 1    
   247  125  126 1    
   248  126  246 1    
   249  126  247 1    
@<TRIPOS>SUBSTRUCTURE
     1 UNK         1 GROUP             0       ****    0 ROOT    
