@<TRIPOS>MOLECULE
3R540
247   249    1
SMALL
USER_CHARGES


@<TRIPOS>ATOM
      1 CA          4.8884  -18.2031  -46.1687 C.3       0 UNK        -0.1800 
      2 C           4.1740  -16.8596  -46.1780 C.2       0 UNK         0.5000 
      3 O           4.5529  -15.9552  -45.4336 O.2       0 UNK        -0.5000 
      4 N           3.1438  -16.7230  -47.0212 N.am      1 UNK        -0.5000 
      5 CA          2.2944  -15.5362  -47.1746 C.3       1 UNK         0.1400 
      6 C6          0.9347  -15.9372  -47.7972 C.3       23 UNK        -0.0398 
      7 S7         -0.3678  -14.6486  -47.7283 S.3       23 UNK        -0.2404 
      8 C8         -1.8038  -15.4516  -48.5347 C.3       23 UNK        -0.0205 
      9 C9         -1.4093  -16.3126  -49.7260 C.ar      23 UNK        -0.0193 
     10 C10        -1.2670  -15.7569  -51.0006 C.ar      23 UNK        -0.1150 
     11 C11        -0.7912  -16.5355  -52.0612 C.ar      23 UNK        -0.0193 
     12 C12        -0.4155  -17.8616  -51.8238 C.ar      23 UNK        -0.1150 
     13 C13        -0.6001  -18.4389  -50.5657 C.ar      23 UNK        -0.0193 
     14 C14        -1.1319  -17.6677  -49.5316 C.ar      23 UNK        -0.1150 
     15 C15        -0.2074  -19.8864  -50.3221 C.3       23 UNK        -0.0205 
     16 S16         1.3855  -20.0031  -49.4398 S.3       23 UNK        -0.2404 
     17 C17         0.8446  -20.1130  -47.6978 C.3       23 UNK        -0.0398 
     18 CA          0.8544  -21.5595  -47.1519 C.3       11 UNK         0.1400 
     19 N           0.7053  -21.5859  -45.6977 N.am      11 UNK        -0.5000 
     20 C           0.8140  -22.6828  -44.9352 C.2       10 UNK         0.5000 
     21 O           1.1284  -23.7930  -45.3654 O.2       10 UNK        -0.5000 
     22 CA          0.4474  -22.5155  -43.4513 C.3       10 UNK         0.1400 
     23 CB          1.6078  -21.8893  -42.6624 C.3       10 UNK        -0.1800 
     24 N          -0.7605  -21.7063  -43.2792 N.am      10 UNK        -0.5000 
     25 C          -1.9878  -22.0894  -43.6602 C.2       9 UNK         0.5000 
     26 O          -2.2373  -23.1839  -44.1643 O.2       9 UNK        -0.5000 
     27 CA         -3.1192  -21.0610  -43.4820 C.3       9 UNK         0.1400 
     28 CB         -3.6559  -21.0889  -42.0433 C.3       9 UNK        -0.1800 
     29 N          -2.7047  -19.6984  -43.8183 N.am      9 UNK        -0.5000 
     30 C          -2.3733  -19.2876  -45.0505 C.2       8 UNK         0.5000 
     31 O          -2.3810  -20.0129  -46.0429 O.2       8 UNK        -0.5000 
     32 CA         -1.8996  -17.8316  -45.1865 C.3       8 UNK         0.1400 
     33 CB         -3.1039  -16.8825  -45.2530 C.3       8 UNK        -0.1800 
     34 N          -1.0053  -17.4181  -44.1040 N.am      8 UNK        -0.5000 
     35 C           0.1678  -18.0009  -43.8114 C.2       7 UNK         0.5000 
     36 O           0.6197  -18.9577  -44.4429 O.2       7 UNK        -0.5000 
     37 CA          0.9648  -17.4514  -42.6130 C.3       7 UNK         0.1400 
     38 CB          2.3696  -17.0103  -43.0459 C.3       7 UNK        -0.1800 
     39 N           0.2968  -16.3227  -41.9641 N.am      7 UNK        -0.5000 
     40 C          -0.5129  -16.4170  -40.8998 C.2       6 UNK         0.5000 
     41 O          -0.7844  -17.4817  -40.3444 O.2       6 UNK        -0.5000 
     42 CA         -1.1361  -15.1085  -40.3689 C.3       6 UNK         0.1400 
     43 CB         -0.3193  -14.5704  -39.1843 C.3       6 UNK        -0.1800 
     44 N          -1.2428  -14.0593  -41.3851 N.am      6 UNK        -0.5000 
     45 C          -2.0573  -14.1061  -42.4485 C.2       5 UNK         0.5000 
     46 O          -2.8619  -15.0156  -42.6427 O.2       5 UNK        -0.5000 
     47 CA         -1.9160  -12.9797  -43.4935 C.3       5 UNK         0.1400 
     48 CB         -2.9656  -11.8853  -43.2507 C.3       5 UNK        -0.1800 
     49 N          -0.5831  -12.3667  -43.5364 N.am      5 UNK        -0.5000 
     50 C           0.5507  -13.0194  -43.8208 C.2       4 UNK         0.5000 
     51 O           0.5977  -14.2231  -44.0780 O.2       4 UNK        -0.5000 
     52 CA          1.8431  -12.1900  -43.8079 C.3       4 UNK         0.1400 
     53 CB          3.0423  -13.0147  -43.3078 C.3       4 UNK        -0.1800 
     54 N           2.1360  -11.7117  -45.1517 N.am      4 UNK        -0.5000 
     55 C           1.6130  -10.6267  -45.7368 C.2       3 UNK         0.5000 
     56 O           0.8109   -9.8796  -45.1745 O.2       3 UNK        -0.5000 
     57 CA          2.0346  -10.3355  -47.1973 C.3       3 UNK         0.1400 
     58 CB          2.5128   -8.8814  -47.3850 C.3       3 UNK        -0.1800 
     59 N           3.0044  -11.2998  -47.7400 N.am      3 UNK        -0.5000 
     60 C           4.2856  -11.4895  -47.3883 C.2       2 UNK         0.5000 
     61 O           4.9067  -10.7553  -46.6193 O.2       2 UNK        -0.5000 
     62 CA          4.9249  -12.7959  -47.9037 C.3       2 UNK         0.1400 
     63 CB          6.3911  -12.9599  -47.4657 C.3       2 UNK        -0.1800 
     64 N           4.1593  -13.9479  -47.4186 N.am      2 UNK        -0.5000 
     65 C           3.0254  -14.4148  -47.9549 C.2       1 UNK         0.5000 
     66 O           2.5613  -13.9681  -49.0052 O.2       1 UNK        -0.5000 
     67 C          -0.2039  -22.4467  -47.8406 C.2       11 UNK         0.5000 
     68 O           0.1575  -23.2652  -48.6832 O.2       11 UNK        -0.5000 
     69 N          -1.4784  -22.3001  -47.4505 N.am      12 UNK        -0.5000 
     70 CA         -2.5997  -23.0792  -47.9779 C.3       12 UNK         0.1400 
     71 CB         -3.9204  -22.5434  -47.4053 C.3       12 UNK        -0.1800 
     72 C          -2.4644  -24.5900  -47.7175 C.2       12 UNK         0.5000 
     73 O          -2.7419  -25.3886  -48.6127 O.2       12 UNK        -0.5000 
     74 N          -1.9962  -24.9558  -46.5159 N.am      13 UNK        -0.5000 
     75 CA         -1.6928  -26.3347  -46.1323 C.3       13 UNK         0.1400 
     76 CB         -1.3744  -26.3936  -44.6308 C.3       13 UNK        -0.1800 
     77 C          -0.5472  -26.9478  -46.9600 C.2       13 UNK         0.5000 
     78 O          -0.6399  -28.1132  -47.3466 O.2       13 UNK        -0.5000 
     79 N           0.4954  -26.1518  -47.2364 N.am      14 UNK        -0.5000 
     80 CA          1.6295  -26.5386  -48.0765 C.3       14 UNK         0.1400 
     81 CB          2.7813  -25.5419  -47.8733 C.3       14 UNK        -0.1800 
     82 C           1.2529  -26.6498  -49.5665 C.2       14 UNK         0.5000 
     83 O           1.6722  -27.5993  -50.2297 O.2       14 UNK        -0.5000 
     84 N           0.4655  -25.6856  -50.0619 N.am      15 UNK        -0.5000 
     85 CA         -0.0220  -25.6210  -51.4410 C.3       15 UNK         0.1400 
     86 CB         -0.5885  -24.2160  -51.7075 C.3       15 UNK        -0.1800 
     87 C          -1.0855  -26.6860  -51.7665 C.2       15 UNK         0.5000 
     88 O          -1.2050  -27.0780  -52.9279 O.2       15 UNK        -0.5000 
     89 N          -1.8436  -27.1094  -50.7441 N.am      16 UNK        -0.5000 
     90 CA         -3.0137  -27.9912  -50.8041 C.3       16 UNK         0.1400 
     91 CB         -2.6276  -29.4062  -51.2830 C.3       16 UNK        -0.1800 
     92 C          -4.1712  -27.3604  -51.6086 C.2       16 UNK         0.5000 
     93 O          -4.8668  -28.0524  -52.3547 O.2       16 UNK        -0.5000 
     94 N          -4.3480  -26.0462  -51.4390 N.am      17 UNK        -0.5000 
     95 CA         -5.3494  -25.2108  -52.0911 C.3       17 UNK         0.1400 
     96 CB         -4.8868  -24.8506  -53.5143 C.3       17 UNK        -0.1800 
     97 C          -5.5415  -23.9506  -51.2385 C.2       17 UNK         0.5000 
     98 O          -4.6395  -23.5917  -50.4804 O.2       17 UNK        -0.5000 
     99 N          -6.7040  -23.3009  -51.3701 N.am      18 UNK        -0.5000 
    100 CA        -7.0674  -22.0945  -50.6239 C.3       18 UNK         0.1400 
    101 CB        -8.5206  -21.7212  -50.9547 C.3       18 UNK        -0.1800 
    102 C         -6.1384  -20.9066  -50.9306 C.2       18 UNK         0.5000 
    103 O         -5.7905  -20.6901  -52.0942 O.2       18 UNK        -0.5000 
    104 N         -5.8019  -20.1250  -49.8956 N.am      19 UNK        -0.5000 
    105 CA        -4.9470  -18.9357  -49.9860 C.3       19 UNK         0.1400 
    106 CB        -4.6660  -18.4034  -48.5740 C.3       19 UNK        -0.1800 
    107 C         -5.5311  -17.8213  -50.8757 C.2       19 UNK         0.5000 
    108 O         -4.7705  -17.0830  -51.4979 O.2       19 UNK        -0.5000 
    109 N         -6.8671  -17.7603  -50.9748 N.am      20 UNK        -0.5000 
    110 CA        -7.6052  -16.8685  -51.8743 C.3       20 UNK         0.1400 
    111 CB        -9.1022  -16.9551  -51.5400 C.3       20 UNK        -0.1800 
    112 C         -7.3699  -17.1680  -53.3705 C.2       20 UNK         0.5000 
    113 O         -7.5023  -16.2637  -54.1956 O.2       20 UNK        -0.5000 
    114 N         -7.0111  -18.4193  -53.6865 N.am      21 UNK        -0.5000 
    115 CA        -6.6192  -18.8835  -55.0179 C.3       21 UNK         0.1400 
    116 CB        -7.3364  -20.2176  -55.2892 C.3       21 UNK        -0.1800 
    117 C         -5.0890  -19.0507  -55.1356 C.2       21 UNK         0.5000 
    118 O         -4.6131  -19.5206  -56.1701 O.2       21 UNK        -0.5000 
    119 N         -4.3514  -18.6879  -54.0770 N.am      22 UNK        -0.5000 
    120 CA        -2.9095  -18.9027  -53.8889 C.3       22 UNK         0.1400 
    121 C         -2.4831  -20.4029  -53.8436 C.2       22 UNK         0.5000 
    122 N         -3.3411  -21.3110  -53.3961 N.am      22 UNK        -0.7600 
    123 O         -1.3572  -20.7537  -54.1852 O.2       22 UNK        -0.5000 
    124 C124       -2.0296  -18.0279  -54.8286 C.3       23 UNK        -0.0398 
    125 S125       -2.1731  -16.2442  -54.4564 S.3       23 UNK        -0.2404 
    126 C126       -0.6726  -15.9443  -53.4592 C.3       23 UNK        -0.0205 
    127 H127        4.4341  -18.9095  -46.8641 H         1 UNK         0.0600 
    128 H128        4.8514  -18.6389  -45.1703 H         1 UNK         0.0600 
    129 H129        5.9342  -18.0737  -46.4475 H         1 UNK         0.0600 
    130 H130        2.9253  -17.4892  -47.6414 H         1 UNK         0.3000 
    131 H131        2.0903  -15.1443  -46.1760 H         1 UNK         0.0600 
    132 H132        0.5458  -16.8141  -47.2791 H         1 UNK         0.0800 
    133 H133        1.0947  -16.2365  -48.8340 H         1 UNK         0.0800 
    134 H134       -2.5119  -14.6835  -48.8487 H         1 UNK         0.0800 
    135 H135       -2.3259  -16.0591  -47.7985 H         1 UNK         0.0800 
    136 H136       -1.5116  -14.7167  -51.1625 H         1 UNK         0.1150 
    137 H137       -0.0065  -18.4570  -52.6275 H         1 UNK         0.1150 
    138 H138       -1.2753  -18.1011  -48.5547 H         1 UNK         0.1150 
    139 H139       -0.9980  -20.3973  -49.7714 H         1 UNK         0.0800 
    140 H140       -0.1167  -20.4160  -51.2721 H         1 UNK         0.0800 
    141 H141       -0.1370  -19.6621  -47.5662 H         1 UNK         0.0800 
    142 H142        1.5304  -19.5000  -47.1115 H         1 UNK         0.0800 
    143 H143        1.8328  -21.9925  -47.3719 H         1 UNK         0.0600 
    144 H144        0.4839  -20.7024  -45.2468 H         1 UNK         0.3000 
    145 H145        0.2528  -23.5086  -43.0407 H         1 UNK         0.0600 
    146 H146        1.3688  -21.8161  -41.6014 H         1 UNK         0.0600 
    147 H147        2.5092  -22.4970  -42.7508 H         1 UNK         0.0600 
    148 H148        1.8523  -20.8891  -43.0208 H         1 UNK         0.0600 
    149 H149       -0.6373  -20.7759  -42.9100 H         1 UNK         0.3000 
    150 H150       -3.9326  -21.3418  -44.1541 H         1 UNK         0.0600 
    151 H151       -3.9854  -22.0921  -41.7694 H         1 UNK         0.0600 
    152 H152       -4.5127  -20.4246  -41.9296 H         1 UNK         0.0600 
    153 H153       -2.8964  -20.7840  -41.3222 H         1 UNK         0.0600 
    154 H154       -2.6574  -19.0339  -43.0598 H         1 UNK         0.3000 
    155 H155       -1.3450  -17.7493  -46.1219 H         1 UNK         0.0600 
    156 H156       -3.7007  -16.9248  -44.3414 H         1 UNK         0.0600 
    157 H157       -3.7625  -17.1412  -46.0821 H         1 UNK         0.0600 
    158 H158       -2.7860  -15.8498  -45.3971 H         1 UNK         0.0600 
    159 H159       -1.3095  -16.6373  -43.5389 H         1 UNK         0.3000 
    160 H160        1.0796  -18.2724  -41.9025 H         1 UNK         0.0600 
    161 H161        2.3271  -16.2245  -43.7995 H         1 UNK         0.0600 
    162 H162        2.9288  -17.8443  -43.4713 H         1 UNK         0.0600 
    163 H163        2.9450  -16.6323  -42.2010 H         1 UNK         0.0600 
    164 H164        0.4256  -15.4227  -42.4134 H         1 UNK         0.3000 
    165 H165       -2.1419  -15.3429  -40.0140 H         1 UNK         0.0600 
    166 H166       -0.7873  -13.6863  -38.7509 H         1 UNK         0.0600 
    167 H167       -0.2416  -15.3163  -38.3921 H         1 UNK         0.0600 
    168 H168        0.6950  -14.3024  -39.4833 H         1 UNK         0.0600 
    169 H169       -0.6177  -13.2721  -41.2947 H         1 UNK         0.3000 
    170 H170       -2.1045  -13.4233  -44.4736 H         1 UNK         0.0600 
    171 H171       -3.9727  -12.3046  -43.2416 H         1 UNK         0.0600 
    172 H172       -2.8097  -11.3835  -42.2949 H         1 UNK         0.0600 
    173 H173       -2.9370  -11.1300  -44.0363 H         1 UNK         0.0600 
    174 H174       -0.5400  -11.3692  -43.3793 H         1 UNK         0.3000 
    175 H175        1.7132  -11.3397  -43.1350 H         1 UNK         0.0600 
    176 H176        3.2647  -13.8537  -43.9686 H         1 UNK         0.0600 
    177 H177        3.9400  -12.4001  -43.2395 H         1 UNK         0.0600 
    178 H178        2.8503  -13.4222  -42.3144 H         1 UNK         0.0600 
    179 H179        2.7745  -12.2719  -45.6937 H         1 UNK         0.3000 
    180 H180        1.1314  -10.4610  -47.7959 H         1 UNK         0.0600 
    181 H181        3.3594   -8.6426  -46.7412 H         1 UNK         0.0600 
    182 H182        1.7163   -8.1765  -47.1438 H         1 UNK         0.0600 
    183 H183        2.8097   -8.6929  -48.4167 H         1 UNK         0.0600 
    184 H184        2.6067  -11.9974  -48.3618 H         1 UNK         0.3000 
    185 H185        4.9004  -12.7714  -48.9952 H         1 UNK         0.0600 
    186 H186        6.8233  -13.8730  -47.8754 H         1 UNK         0.0600 
    187 H187        7.0003  -12.1263  -47.8174 H         1 UNK         0.0600 
    188 H188        6.4857  -13.0040  -46.3799 H         1 UNK         0.0600 
    189 H189        4.4951  -14.4005  -46.5722 H         1 UNK         0.3000 
    190 H190       -1.7144  -21.5719  -46.7803 H         1 UNK         0.3000 
    191 H191       -2.6090  -22.9303  -49.0585 H         1 UNK         0.0600 
    192 H192       -3.9391  -22.5972  -46.3170 H         1 UNK         0.0600 
    193 H193       -4.7699  -23.1169  -47.7777 H         1 UNK         0.0600 
    194 H194       -4.0794  -21.5057  -47.6945 H         1 UNK         0.0600 
    195 H195       -1.8434  -24.2415  -45.8106 H         1 UNK         0.3000 
    196 H196       -2.5878  -26.9338  -46.3122 H         1 UNK         0.0600 
    197 H197       -1.1582  -27.4153  -44.3165 H         1 UNK         0.0600 
    198 H198       -2.2173  -26.0417  -44.0359 H         1 UNK         0.0600 
    199 H199       -0.5087  -25.7810  -44.3777 H         1 UNK         0.0600 
    200 H200        0.5107  -25.2135  -46.8524 H         1 UNK         0.3000 
    201 H201        1.9753  -27.5208  -47.7473 H         1 UNK         0.0600 
    202 H202        3.0952  -25.5112  -46.8298 H         1 UNK         0.0600 
    203 H203        2.4983  -24.5302  -48.1651 H         1 UNK         0.0600 
    204 H204        3.6511  -25.8241  -48.4676 H         1 UNK         0.0600 
    205 H205        0.2250  -24.8981  -49.4618 H         1 UNK         0.3000 
    206 H206        0.8259  -25.7815  -52.1100 H         1 UNK         0.0600 
    207 H207        0.1665  -23.4468  -51.5436 H         1 UNK         0.0600 
    208 H208       -0.9317  -24.1196  -52.7384 H         1 UNK         0.0600 
    209 H209       -1.4365  -23.9953  -51.0576 H         1 UNK         0.0600 
    210 H210       -1.7063  -26.6534  -49.8484 H         1 UNK         0.3000 
    211 H211       -3.3730  -28.0807  -49.7779 H         1 UNK         0.0600 
    212 H212       -2.3260  -29.4149  -52.3306 H         1 UNK         0.0600 
    213 H213       -3.4679  -30.0938  -51.1810 H         1 UNK         0.0600 
    214 H214       -1.8048  -29.8099  -50.6928 H         1 UNK         0.0600 
    215 H215       -3.7817  -25.5526  -50.7557 H         1 UNK         0.3000 
    216 H216       -6.2980  -25.7496  -52.1340 H         1 UNK         0.0600 
    217 H217       -5.5928  -24.1761  -54.0004 H         1 UNK         0.0600 
    218 H218       -4.8040  -25.7394  -54.1399 H         1 UNK         0.0600 
    219 H219       -3.9135  -24.3592  -53.5050 H         1 UNK         0.0600 
    220 H220       -7.3810  -23.6349  -52.0400 H         1 UNK         0.3000 
    221 H221       -6.9998  -22.3284  -49.5593 H         1 UNK         0.0600 
    222 H222       -8.6466  -21.4958  -52.0148 H         1 UNK         0.0600 
    223 H223       -9.2044  -22.5311  -50.7001 H         1 UNK         0.0600 
    224 H224       -8.8383  -20.8419  -50.3928 H         1 UNK         0.0600 
    225 H225       -6.1389  -20.3625  -48.9741 H         1 UNK         0.3000 
    226 H226       -3.9967  -19.2401  -50.4308 H         1 UNK         0.0600 
    227 H227       -4.1054  -19.1267  -47.9831 H         1 UNK         0.0600 
    228 H228       -4.0710  -17.4915  -48.6151 H         1 UNK         0.0600 
    229 H229       -5.5867  -18.1689  -48.0387 H         1 UNK         0.0600 
    230 H230       -7.4164  -18.4037  -50.4248 H         1 UNK         0.3000 
    231 H231       -7.2685  -15.8467  -51.6867 H         1 UNK         0.0600 
    232 H232       -9.2931  -16.6700  -50.5052 H         1 UNK         0.0600 
    233 H233       -9.4898  -17.9639  -51.6887 H         1 UNK         0.0600 
    234 H234       -9.6835  -16.2834  -52.1730 H         1 UNK         0.0600 
    235 H235       -6.8886  -19.0963  -52.9427 H         1 UNK         0.3000 
    236 H236       -6.9285  -18.1661  -55.7803 H         1 UNK         0.0600 
    237 H237       -7.1197  -20.5841  -56.2933 H         1 UNK         0.0600 
    238 H238       -7.0281  -20.9906  -54.5838 H         1 UNK         0.0600 
    239 H239       -8.4180  -20.1061  -55.2123 H         1 UNK         0.0600 
    240 H240       -4.8217  -18.2629  -53.2891 H         1 UNK         0.3000 
    241 H241       -2.7311  -18.5642  -52.8705 H         1 UNK         0.0600 
    242 H242       -4.2608  -21.0412  -53.0540 H         1 UNK         0.3800 
    243 H243       -3.0548  -22.2736  -53.3570 H         1 UNK         0.3800 
    244 H244       -2.3045  -18.1908  -55.8709 H         1 UNK         0.0800 
    245 H245       -0.9770  -18.3033  -54.7619 H         1 UNK         0.0800 
    246 H246       -0.5100  -14.8677  -53.3900 H         1 UNK         0.0800 
    247 H247        0.2025  -16.3477  -53.9708 H         1 UNK         0.0800 
@<TRIPOS>BOND
     1    1    2 1    
     2    1  127 1    
     3    1  128 1    
     4    1  129 1    
     5    2    3 2    
     6    2    4 am   BACKBONE|DICT|INTERRES
     7    4    5 1    
     8    4  130 1    
     9    5    6 1    
    10    5   65 1    
    11    5  131 1    
    12    6    7 1    
    13    6  132 1    
    14    6  133 1    
    15    7    8 1    
    16    8    9 1    
    17    8  134 1    
    18    8  135 1    
    19    9   10 ar   
    20    9   14 ar   
    21   10   11 ar   
    22   10  136 1    
    23   11   12 ar   
    24   11  126 1    
    25   12   13 ar   
    26   12  137 1    
    27   13   14 ar   
    28   13   15 1    
    29   14  138 1    
    30   15   16 1    
    31   15  139 1    
    32   15  140 1    
    33   16   17 1    
    34   17   18 1    
    35   17  141 1    
    36   17  142 1    
    37   18   19 1    
    38   18   67 1    
    39   18  143 1    
    40   19   20 am   BACKBONE|DICT|INTERRES
    41   19  144 1    
    42   20   21 2    
    43   20   22 1    
    44   22   23 1    
    45   22   24 1    
    46   22  145 1    
    47   23  146 1    
    48   23  147 1    
    49   23  148 1    
    50   24   25 am   BACKBONE|DICT|INTERRES
    51   24  149 1    
    52   25   26 2    
    53   25   27 1    
    54   27   28 1    
    55   27   29 1    
    56   27  150 1    
    57   28  151 1    
    58   28  152 1    
    59   28  153 1    
    60   29   30 am   BACKBONE|DICT|INTERRES
    61   29  154 1    
    62   30   31 2    
    63   30   32 1    
    64   32   33 1    
    65   32   34 1    
    66   32  155 1    
    67   33  156 1    
    68   33  157 1    
    69   33  158 1    
    70   34   35 am   BACKBONE|DICT|INTERRES
    71   34  159 1    
    72   35   36 2    
    73   35   37 1    
    74   37   38 1    
    75   37   39 1    
    76   37  160 1    
    77   38  161 1    
    78   38  162 1    
    79   38  163 1    
    80   39   40 am   BACKBONE|DICT|INTERRES
    81   39  164 1    
    82   40   41 2    
    83   40   42 1    
    84   42   43 1    
    85   42   44 1    
    86   42  165 1    
    87   43  166 1    
    88   43  167 1    
    89   43  168 1    
    90   44   45 am   BACKBONE|DICT|INTERRES
    91   44  169 1    
    92   45   46 2    
    93   45   47 1    
    94   47   48 1    
    95   47   49 1    
    96   47  170 1    
    97   48  171 1    
    98   48  172 1    
    99   48  173 1    
   100   49   50 am   BACKBONE|DICT|INTERRES
   101   49  174 1    
   102   50   51 2    
   103   50   52 1    
   104   52   53 1    
   105   52   54 1    
   106   52  175 1    
   107   53  176 1    
   108   53  177 1    
   109   53  178 1    
   110   54   55 am   BACKBONE|DICT|INTERRES
   111   54  179 1    
   112   55   56 2    
   113   55   57 1    
   114   57   58 1    
   115   57   59 1    
   116   57  180 1    
   117   58  181 1    
   118   58  182 1    
   119   58  183 1    
   120   59   60 am   BACKBONE|DICT|INTERRES
   121   59  184 1    
   122   60   61 2    
   123   60   62 1    
   124   62   63 1    
   125   62   64 1    
   126   62  185 1    
   127   63  186 1    
   128   63  187 1    
   129   63  188 1    
   130   64   65 am   BACKBONE|DICT|INTERRES
   131   64  189 1    
   132   65   66 2    
   133   67   68 2    
   134   67   69 am   BACKBONE|DICT|INTERRES
   135   69   70 1    
   136   69  190 1    
   137   70   71 1    
   138   70   72 1    
   139   70  191 1    
   140   71  192 1    
   141   71  193 1    
   142   71  194 1    
   143   72   73 2    
   144   72   74 am   BACKBONE|DICT|INTERRES
   145   74   75 1    
   146   74  195 1    
   147   75   76 1    
   148   75   77 1    
   149   75  196 1    
   150   76  197 1    
   151   76  198 1    
   152   76  199 1    
   153   77   78 2    
   154   77   79 am   BACKBONE|DICT|INTERRES
   155   79   80 1    
   156   79  200 1    
   157   80   81 1    
   158   80   82 1    
   159   80  201 1    
   160   81  202 1    
   161   81  203 1    
   162   81  204 1    
   163   82   83 2    
   164   82   84 am   BACKBONE|DICT|INTERRES
   165   84   85 1    
   166   84  205 1    
   167   85   86 1    
   168   85   87 1    
   169   85  206 1    
   170   86  207 1    
   171   86  208 1    
   172   86  209 1    
   173   87   88 2    
   174   87   89 am   BACKBONE|DICT|INTERRES
   175   89   90 1    
   176   89  210 1    
   177   90   91 1    
   178   90   92 1    
   179   90  211 1    
   180   91  212 1    
   181   91  213 1    
   182   91  214 1    
   183   92   93 2    
   184   92   94 am   BACKBONE|DICT|INTERRES
   185   94   95 1    
   186   94  215 1    
   187   95   96 1    
   188   95   97 1    
   189   95  216 1    
   190   96  217 1    
   191   96  218 1    
   192   96  219 1    
   193   97   98 2    
   194   97   99 am   BACKBONE|DICT|INTERRES
   195   99  100 1    
   196   99  220 1    
   197  100  101 1    
   198  100  102 1    
   199  100  221 1    
   200  101  222 1    
   201  101  223 1    
   202  101  224 1    
   203  102  103 2    
   204  102  104 am   BACKBONE|DICT|INTERRES
   205  104  105 1    
   206  104  225 1    
   207  105  106 1    
   208  105  107 1    
   209  105  226 1    
   210  106  227 1    
   211  106  228 1    
   212  106  229 1    
   213  107  108 2    
   214  107  109 am   BACKBONE|DICT|INTERRES
   215  109  110 1    
   216  109  230 1    
   217  110  111 1    
   218  110  112 1    
   219  110  231 1    
   220  111  232 1    
   221  111  233 1    
   222  111  234 1    
   223  112  113 2    
   224  112  114 am   BACKBONE|DICT|INTERRES
   225  114  115 1    
   226  114  235 1    
   227  115  116 1    
   228  115  117 1    
   229  115  236 1    
   230  116  237 1    
   231  116  238 1    
   232  116  239 1    
   233  117  118 2    
   234  117  119 am   BACKBONE|DICT|INTERRES
   235  119  120 1    
   236  119  240 1    
   237  120  121 1    
   238  120  124 1    
   239  120  241 1    
   240  121  122 am   BACKBONE|DICT|INTERRES
   241  121  123 2    
   242  122  242 1    
   243  122  243 1    
   244  124  125 1    
   245  124  244 1    
   246  124  245 1    
   247  125  126 1    
   248  126  246 1    
   249  126  247 1    
@<TRIPOS>SUBSTRUCTURE
     1 UNK         1 GROUP             0       ****    0 ROOT    
