@<TRIPOS>MOLECULE
3R540
247   249    1
SMALL
USER_CHARGES


@<TRIPOS>ATOM
      1 CA          2.8557  -18.1276  -43.8390 C.3       0 UNK        -0.1800 
      2 C           2.7716  -16.6748  -44.2782 C.2       0 UNK         0.5000 
      3 O           3.5113  -15.8323  -43.7726 O.2       0 UNK        -0.5000 
      4 N           1.8884  -16.3731  -45.2375 N.am      1 UNK        -0.5000 
      5 CA          1.6393  -15.0281  -45.7758 C.3       1 UNK         0.1400 
      6 C6          0.3877  -14.9849  -46.6917 C.3       23 UNK        -0.0398 
      7 S7          0.3223  -16.3321  -47.9237 S.3       23 UNK        -0.2404 
      8 C8          0.9120  -15.4674  -49.4140 C.3       23 UNK        -0.0205 
      9 C9          1.3771  -16.4516  -50.4742 C.ar      23 UNK        -0.0193 
     10 C10         0.7647  -16.5008  -51.7286 C.ar      23 UNK        -0.1150 
     11 C11         1.2096  -17.4020  -52.7023 C.ar      23 UNK        -0.0193 
     12 C12         2.2611  -18.2762  -52.4010 C.ar      23 UNK        -0.1150 
     13 C13         2.8894  -18.2263  -51.1517 C.ar      23 UNK        -0.0193 
     14 C14         2.4517  -17.2995  -50.2040 C.ar      23 UNK        -0.1150 
     15 C15         4.0706  -19.1340  -50.8343 C.3       23 UNK        -0.0205 
     16 S16         3.5627  -20.7644  -50.1991 S.3       23 UNK        -0.2404 
     17 C17         2.9006  -20.3653  -48.5394 C.3       23 UNK        -0.0398 
     18 CA          1.7876  -21.3323  -48.0698 C.3       11 UNK         0.1400 
     19 N           1.3826  -21.0720  -46.6846 N.am      11 UNK        -0.5000 
     20 C           0.6502  -21.9188  -45.9471 C.2       10 UNK         0.5000 
     21 O           0.2709  -23.0189  -46.3466 O.2       10 UNK        -0.5000 
     22 CA          0.2527  -21.4590  -44.5319 C.3       10 UNK         0.1400 
     23 CB          1.3691  -21.7839  -43.5278 C.3       10 UNK        -0.1800 
     24 N          -0.1130  -20.0448  -44.3991 N.am      10 UNK        -0.5000 
     25 C          -1.0451  -19.3966  -45.1139 C.2       9 UNK         0.5000 
     26 O          -1.5697  -19.8547  -46.1284 O.2       9 UNK        -0.5000 
     27 CA         -1.4658  -18.0075  -44.5839 C.3       9 UNK         0.1400 
     28 CB         -2.8080  -17.5295  -45.1717 C.3       9 UNK        -0.1800 
     29 N          -1.4814  -17.9214  -43.1168 N.am      9 UNK        -0.5000 
     30 C          -2.1760  -18.6951  -42.2642 C.2       8 UNK         0.5000 
     31 O          -2.9278  -19.6079  -42.6063 O.2       8 UNK        -0.5000 
     32 CA         -1.9958  -18.3885  -40.7700 C.3       8 UNK         0.1400 
     33 CB         -0.5883  -18.7855  -40.2919 C.3       8 UNK        -0.1800 
     34 N          -2.2210  -16.9685  -40.5131 N.am      8 UNK        -0.5000 
     35 C          -3.4056  -16.4347  -40.1813 C.2       7 UNK         0.5000 
     36 O          -4.4196  -17.0985  -39.9622 O.2       7 UNK        -0.5000 
     37 CA         -3.4772  -14.8967  -40.0836 C.3       7 UNK         0.1400 
     38 CB         -3.2146  -14.4359  -38.6417 C.3       7 UNK        -0.1800 
     39 N          -2.5297  -14.2301  -40.9773 N.am      7 UNK        -0.5000 
     40 C          -2.6202  -14.2230  -42.3146 C.2       6 UNK         0.5000 
     41 O          -3.5900  -14.6599  -42.9331 O.2       6 UNK        -0.5000 
     42 CA         -1.4148  -13.6645  -43.0969 C.3       6 UNK         0.1400 
     43 CB         -1.7182  -12.2630  -43.6458 C.3       6 UNK        -0.1800 
     44 N          -0.1702  -13.6122  -42.3241 N.am      6 UNK        -0.5000 
     45 C           0.5070  -14.6710  -41.8619 C.2       5 UNK         0.5000 
     46 O           0.1360  -15.8353  -42.0267 O.2       5 UNK        -0.5000 
     47 CA          1.8132  -14.3561  -41.1094 C.3       5 UNK         0.1400 
     48 CB          2.4914  -15.6107  -40.5307 C.3       5 UNK        -0.1800 
     49 N           2.7432  -13.6555  -41.9960 N.am      5 UNK        -0.5000 
     50 C           2.7589  -12.3299  -42.1966 C.2       4 UNK         0.5000 
     51 O           1.9983  -11.5611  -41.6056 O.2       4 UNK        -0.5000 
     52 CA          3.7126  -11.7626  -43.2694 C.3       4 UNK         0.1400 
     53 CB          4.4007  -10.4582  -42.8158 C.3       4 UNK        -0.1800 
     54 N           4.6821  -12.7273  -43.7987 N.am      4 UNK        -0.5000 
     55 C           5.7438  -13.2705  -43.1816 C.2       3 UNK         0.5000 
     56 O           6.0715  -13.0042  -42.0249 O.2       3 UNK        -0.5000 
     57 CA          6.5701  -14.2966  -43.9881 C.3       3 UNK         0.1400 
     58 CB          6.9244  -15.5285  -43.1362 C.3       3 UNK        -0.1800 
     59 N           5.8469  -14.7480  -45.1784 N.am      3 UNK        -0.5000 
     60 C           6.0661  -14.3382  -46.4351 C.2       2 UNK         0.5000 
     61 O           6.9764  -13.5737  -46.7551 O.2       2 UNK        -0.5000 
     62 CA          5.0871  -14.8439  -47.5172 C.3       2 UNK         0.1400 
     63 CB          5.6978  -16.0268  -48.2846 C.3       2 UNK        -0.1800 
     64 N           3.7800  -15.2410  -46.9832 N.am      2 UNK        -0.5000 
     65 C           2.8798  -14.4003  -46.4510 C.2       1 UNK         0.5000 
     66 O           3.0307  -13.1793  -46.4170 O.2       1 UNK        -0.5000 
     67 C           0.5658  -21.3364  -49.0119 C.2       11 UNK         0.5000 
     68 O           0.3773  -22.3034  -49.7495 O.2       11 UNK        -0.5000 
     69 N          -0.2706  -20.2913  -48.9327 N.am      12 UNK        -0.5000 
     70 CA         -1.4908  -20.1636  -49.7305 C.3       12 UNK         0.1400 
     71 CB         -2.0730  -18.7516  -49.5765 C.3       12 UNK        -0.1800 
     72 C          -2.5367  -21.2392  -49.3935 C.2       12 UNK         0.5000 
     73 O          -3.1774  -21.7659  -50.2999 O.2       12 UNK        -0.5000 
     74 N          -2.6548  -21.5797  -48.1039 N.am      13 UNK        -0.5000 
     75 CA         -3.5161  -22.6481  -47.5999 C.3       13 UNK         0.1400 
     76 CB         -3.5524  -22.5847  -46.0662 C.3       13 UNK        -0.1800 
     77 C          -3.1014  -24.0545  -48.0761 C.2       13 UNK         0.5000 
     78 O          -3.9598  -24.9322  -48.1612 O.2       13 UNK        -0.5000 
     79 N          -1.8104  -24.2490  -48.3751 N.am      14 UNK        -0.5000 
     80 CA         -1.2715  -25.4865  -48.9311 C.3       14 UNK         0.1400 
     81 CB          0.1882  -25.6597  -48.4831 C.3       14 UNK        -0.1800 
     82 C          -1.3814  -25.5133  -50.4648 C.2       14 UNK         0.5000 
     83 O          -1.8507  -26.5103  -51.0149 O.2       14 UNK        -0.5000 
     84 N          -0.9392  -24.4306  -51.1216 N.am      15 UNK        -0.5000 
     85 CA         -0.8419  -24.2634  -52.5741 C.3       15 UNK         0.1400 
     86 CB         -0.2052  -22.8978  -52.8740 C.3       15 UNK        -0.1800 
     87 C          -2.1927  -24.4264  -53.2976 C.2       15 UNK         0.5000 
     88 O          -2.9797  -23.4798  -53.3573 O.2       15 UNK        -0.5000 
     89 N          -2.4292  -25.6449  -53.8078 N.am      16 UNK        -0.5000 
     90 CA         -3.6641  -26.1250  -54.4413 C.3       16 UNK         0.1400 
     91 CB         -3.9061  -25.4052  -55.7851 C.3       16 UNK        -0.1800 
     92 C          -4.8897  -26.1069  -53.4974 C.2       16 UNK         0.5000 
     93 O          -6.0263  -26.0684  -53.9705 O.2       16 UNK        -0.5000 
     94 N          -4.6217  -26.1642  -52.1833 N.am      17 UNK        -0.5000 
     95 CA         -5.5377  -26.0132  -51.0499 C.3       17 UNK         0.1400 
     96 CB         -6.6788  -27.0503  -51.1011 C.3       17 UNK        -0.1800 
     97 C          -6.0886  -24.5799  -50.8942 C.2       17 UNK         0.5000 
     98 O          -6.0556  -23.7707  -51.8242 O.2       17 UNK        -0.5000 
     99 N          -6.6419  -24.2994  -49.7071 N.am      18 UNK        -0.5000 
    100 CA        -7.2339  -23.0118  -49.3266 C.3       18 UNK         0.1400 
    101 CB        -7.5959  -23.0559  -47.8340 C.3       18 UNK        -0.1800 
    102 C         -8.4581  -22.5969  -50.1701 C.2       18 UNK         0.5000 
    103 O         -8.8099  -21.4178  -50.1815 O.2       18 UNK        -0.5000 
    104 N         -9.0697  -23.5596  -50.8746 N.am      19 UNK        -0.5000 
    105 CA       -10.1197  -23.3326  -51.8667 C.3       19 UNK         0.1400 
    106 CB       -10.7420  -24.6823  -52.2554 C.3       19 UNK        -0.1800 
    107 C         -9.6079  -22.5914  -53.1188 C.2       19 UNK         0.5000 
    108 O        -10.3531  -21.7952  -53.6913 O.2       19 UNK        -0.5000 
    109 N         -8.3531  -22.8531  -53.5129 N.am      20 UNK        -0.5000 
    110 CA        -7.6698  -22.1549  -54.6016 C.3       20 UNK         0.1400 
    111 CB        -6.7227  -23.1246  -55.3180 C.3       20 UNK        -0.1800 
    112 C         -6.8790  -20.9477  -54.0763 C.2       20 UNK         0.5000 
    113 O         -6.8136  -19.9289  -54.7649 O.2       20 UNK        -0.5000 
    114 N         -6.2883  -21.0876  -52.8786 N.am      21 UNK        -0.5000 
    115 CA        -5.5066  -20.0801  -52.1545 C.3       21 UNK         0.1400 
    116 CB        -6.4263  -18.9528  -51.6409 C.3       21 UNK        -0.1800 
    117 C         -4.3138  -19.5567  -52.9839 C.2       21 UNK         0.5000 
    118 O         -4.1770  -18.3469  -53.1604 O.2       21 UNK        -0.5000 
    119 N         -3.5278  -20.4939  -53.5305 N.am      22 UNK        -0.5000 
    120 CA        -2.4481  -20.3056  -54.5166 C.3       22 UNK         0.1400 
    121 C         -2.8913  -19.8634  -55.9460 C.2       22 UNK         0.5000 
    122 N         -4.1746  -19.6776  -56.2338 N.am      22 UNK        -0.7600 
    123 O         -2.0536  -19.7359  -56.8350 O.2       22 UNK        -0.5000 
    124 C124       -1.1930  -19.5594  -53.9632 C.3       23 UNK        -0.0398 
    125 S125       -1.1842  -17.7372  -54.1007 S.3       23 UNK        -0.2404 
    126 C126        0.5999  -17.3749  -54.0984 C.3       23 UNK        -0.0205 
    127 H127        3.8888  -18.3944  -43.6163 H         1 UNK         0.0600 
    128 H128        2.4948  -18.8000  -44.6158 H         1 UNK         0.0600 
    129 H129        2.2611  -18.2806  -42.9384 H         1 UNK         0.0600 
    130 H130        1.3435  -17.1050  -45.6661 H         1 UNK         0.3000 
    131 H131        1.4225  -14.3894  -44.9165 H         1 UNK         0.0600 
    132 H132        0.2877  -14.0160  -47.1851 H         1 UNK         0.0800 
    133 H133       -0.5063  -15.0819  -46.0761 H         1 UNK         0.0800 
    134 H134        0.1134  -14.8288  -49.7948 H         1 UNK         0.0800 
    135 H135        1.7454  -14.8102  -49.1643 H         1 UNK         0.0800 
    136 H136       -0.0492  -15.8271  -51.9575 H         1 UNK         0.1150 
    137 H137        2.6125  -18.9752  -53.1470 H         1 UNK         0.1150 
    138 H138        2.9411  -17.2382  -49.2435 H         1 UNK         0.1150 
    139 H139        4.6646  -19.2824  -51.7373 H         1 UNK         0.0800 
    140 H140        4.7364  -18.6579  -50.1128 H         1 UNK         0.0800 
    141 H141        2.5294  -19.3437  -48.5137 H         1 UNK         0.0800 
    142 H142        3.7358  -20.3983  -47.8386 H         1 UNK         0.0800 
    143 H143        2.2088  -22.3402  -48.0941 H         1 UNK         0.0600 
    144 H144        1.6462  -20.1868  -46.2827 H         1 UNK         0.3000 
    145 H145       -0.6290  -22.0362  -44.2470 H         1 UNK         0.0600 
    146 H146        1.0545  -21.5748  -42.5051 H         1 UNK         0.0600 
    147 H147        1.6396  -22.8398  -43.5723 H         1 UNK         0.0600 
    148 H148        2.2723  -21.2061  -43.7265 H         1 UNK         0.0600 
    149 H149        0.2375  -19.5802  -43.5754 H         1 UNK         0.3000 
    150 H150       -0.7004  -17.3099  -44.9188 H         1 UNK         0.0600 
    151 H151       -2.7606  -17.4686  -46.2595 H         1 UNK         0.0600 
    152 H152       -3.0666  -16.5365  -44.8065 H         1 UNK         0.0600 
    153 H153       -3.6246  -18.2051  -44.9155 H         1 UNK         0.0600 
    154 H154       -0.8865  -17.1975  -42.7183 H         1 UNK         0.3000 
    155 H155       -2.7176  -18.9877  -40.2105 H         1 UNK         0.0600 
    156 H156        0.1951  -18.2220  -40.7993 H         1 UNK         0.0600 
    157 H157       -0.4001  -19.8443  -40.4736 H         1 UNK         0.0600 
    158 H158       -0.4774  -18.6158  -39.2209 H         1 UNK         0.0600 
    159 H159       -1.4505  -16.3492  -40.7290 H         1 UNK         0.3000 
    160 H160       -4.4878  -14.5912  -40.3633 H         1 UNK         0.0600 
    161 H161       -2.2105  -14.7025  -38.3095 H         1 UNK         0.0600 
    162 H162       -3.9220  -14.8961  -37.9505 H         1 UNK         0.0600 
    163 H163       -3.3252  -13.3556  -38.5463 H         1 UNK         0.0600 
    164 H164       -1.7121  -13.8204  -40.5512 H         1 UNK         0.3000 
    165 H165       -1.2512  -14.3345  -43.9423 H         1 UNK         0.0600 
    166 H166       -0.9055  -11.9022  -44.2767 H         1 UNK         0.0600 
    167 H167       -2.6231  -12.2679  -44.2551 H         1 UNK         0.0600 
    168 H168       -1.8666  -11.5407  -42.8422 H         1 UNK         0.0600 
    169 H169        0.2143  -12.6926  -42.1409 H         1 UNK         0.3000 
    170 H170        1.5555  -13.7121  -40.2661 H         1 UNK         0.0600 
    171 H171        1.8320  -16.1186  -39.8259 H         1 UNK         0.0600 
    172 H172        2.7558  -16.3308  -41.3032 H         1 UNK         0.0600 
    173 H173        3.4032  -15.3506  -39.9931 H         1 UNK         0.0600 
    174 H174        3.3285  -14.2485  -42.5761 H         1 UNK         0.3000 
    175 H175        3.0730  -11.5071  -44.1153 H         1 UNK         0.0600 
    176 H176        4.9904  -10.6015  -41.9103 H         1 UNK         0.0600 
    177 H177        5.0616  -10.0700  -43.5908 H         1 UNK         0.0600 
    178 H178        3.6647   -9.6824  -42.6020 H         1 UNK         0.0600 
    179 H179        4.4968  -13.0261  -44.7477 H         1 UNK         0.3000 
    180 H180        7.5011  -13.8043  -44.2750 H         1 UNK         0.0600 
    181 H181        6.0316  -16.0290  -42.7598 H         1 UNK         0.0600 
    182 H182        7.5324  -15.2500  -42.2747 H         1 UNK         0.0600 
    183 H183        7.4972  -16.2545  -43.7134 H         1 UNK         0.0600 
    184 H184        5.0460  -15.3402  -44.9875 H         1 UNK         0.3000 
    185 H185        4.9316  -14.0245  -48.2222 H         1 UNK         0.0600 
    186 H186        6.6936  -15.7809  -48.6560 H         1 UNK         0.0600 
    187 H187        5.7921  -16.9124  -47.6551 H         1 UNK         0.0600 
    188 H188        5.0920  -16.2880  -49.1512 H         1 UNK         0.0600 
    189 H189        3.5855  -16.2302  -46.9494 H         1 UNK         0.3000 
    190 H190       -0.0979  -19.5649  -48.2539 H         1 UNK         0.3000 
    191 H191       -1.2138  -20.3010  -50.7746 H         1 UNK         0.0600 
    192 H192       -1.3709  -17.9983  -49.9342 H         1 UNK         0.0600 
    193 H193       -2.9887  -18.6402  -50.1585 H         1 UNK         0.0600 
    194 H194       -2.3116  -18.5245  -48.5371 H         1 UNK         0.0600 
    195 H195       -2.1264  -21.0518  -47.4118 H         1 UNK         0.3000 
    196 H196       -4.5237  -22.4608  -47.9732 H         1 UNK         0.0600 
    197 H197       -4.2273  -23.3388  -45.6593 H         1 UNK         0.0600 
    198 H198       -3.9019  -21.6123  -45.7182 H         1 UNK         0.0600 
    199 H199       -2.5659  -22.7589  -45.6362 H         1 UNK         0.0600 
    200 H200       -1.1606  -23.4832  -48.2530 H         1 UNK         0.3000 
    201 H201       -1.8375  -26.3350  -48.5404 H         1 UNK         0.0600 
    202 H202        0.2597  -25.7176  -47.3968 H         1 UNK         0.0600 
    203 H203        0.8172  -24.8321  -48.8124 H         1 UNK         0.0600 
    204 H204        0.6148  -26.5786  -48.8869 H         1 UNK         0.0600 
    205 H205       -0.5711  -23.6564  -50.5733 H         1 UNK         0.3000 
    206 H206       -0.1603  -25.0303  -52.9470 H         1 UNK         0.0600 
    207 H207        0.8061  -22.8356  -52.4714 H         1 UNK         0.0600 
    208 H208       -0.1398  -22.7187  -53.9476 H         1 UNK         0.0600 
    209 H209       -0.7884  -22.0900  -52.4333 H         1 UNK         0.0600 
    210 H210       -1.7276  -26.3565  -53.6543 H         1 UNK         0.3000 
    211 H211       -3.4948  -27.1784  -54.6684 H         1 UNK         0.0600 
    212 H212       -4.0322  -24.3310  -55.6572 H         1 UNK         0.0600 
    213 H213       -4.7983  -25.7841  -56.2847 H         1 UNK         0.0600 
    214 H214       -3.0681  -25.5588  -56.4647 H         1 UNK         0.0600 
    215 H215       -3.6415  -26.2074  -51.9238 H         1 UNK         0.3000 
    216 H216       -4.9352  -26.2285  -50.1679 H         1 UNK         0.0600 
    217 H217       -7.2329  -27.0695  -50.1622 H         1 UNK         0.0600 
    218 H218       -6.2912  -28.0558  -51.2657 H         1 UNK         0.0600 
    219 H219       -7.3961  -26.8331  -51.8930 H         1 UNK         0.0600 
    220 H220       -6.6137  -25.0051  -48.9847 H         1 UNK         0.3000 
    221 H221       -6.4717  -22.2438  -49.4737 H         1 UNK         0.0600 
    222 H222       -8.3573  -23.8094  -47.6287 H         1 UNK         0.0600 
    223 H223       -6.7251  -23.2839  -47.2193 H         1 UNK         0.0600 
    224 H224       -7.9863  -22.0945  -47.4977 H         1 UNK         0.0600 
    225 H225       -8.7230  -24.5029  -50.7876 H         1 UNK         0.3000 
    226 H226      -10.8955  -22.7163  -51.4073 H         1 UNK         0.0600 
    227 H227      -11.1705  -25.1841  -51.3876 H         1 UNK         0.0600 
    228 H228      -11.5453  -24.5469  -52.9809 H         1 UNK         0.0600 
    229 H229      -10.0056  -25.3520  -52.7020 H         1 UNK         0.0600 
    230 H230       -7.7840  -23.4887  -52.9657 H         1 UNK         0.3000 
    231 H231       -8.3989  -21.7958  -55.3310 H         1 UNK         0.0600 
    232 H232       -6.2421  -22.6456  -56.1719 H         1 UNK         0.0600 
    233 H233       -5.9343  -23.4654  -54.6473 H         1 UNK         0.0600 
    234 H234       -7.2536  -24.0019  -55.6877 H         1 UNK         0.0600 
    235 H235       -6.3133  -22.0084  -52.4467 H         1 UNK         0.3000 
    236 H236       -5.0995  -20.5802  -51.2795 H         1 UNK         0.0600 
    237 H237       -5.8705  -18.2494  -51.0200 H         1 UNK         0.0600 
    238 H238       -6.8720  -18.3870  -52.4596 H         1 UNK         0.0600 
    239 H239       -7.2362  -19.3519  -51.0312 H         1 UNK         0.0600 
    240 H240       -3.7194  -21.4668  -53.3111 H         1 UNK         0.3000 
    241 H241       -2.1155  -21.3292  -54.6868 H         1 UNK         0.0600 
    242 H242       -4.4308  -19.4089  -57.1703 H         1 UNK         0.3800 
    243 H243       -4.8939  -19.7512  -55.5246 H         1 UNK         0.3800 
    244 H244       -1.0290  -19.8144  -52.9194 H         1 UNK         0.0800 
    245 H245       -0.3145  -19.9332  -54.4907 H         1 UNK         0.0800 
    246 H246        1.1175  -18.0610  -54.7703 H         1 UNK         0.0800 
    247 H247        0.7473  -16.3782  -54.5161 H         1 UNK         0.0800 
@<TRIPOS>BOND
     1    1    2 1    
     2    1  127 1    
     3    1  128 1    
     4    1  129 1    
     5    2    3 2    
     6    2    4 am   BACKBONE|DICT|INTERRES
     7    4    5 1    
     8    4  130 1    
     9    5    6 1    
    10    5   65 1    
    11    5  131 1    
    12    6    7 1    
    13    6  132 1    
    14    6  133 1    
    15    7    8 1    
    16    8    9 1    
    17    8  134 1    
    18    8  135 1    
    19    9   10 ar   
    20    9   14 ar   
    21   10   11 ar   
    22   10  136 1    
    23   11   12 ar   
    24   11  126 1    
    25   12   13 ar   
    26   12  137 1    
    27   13   14 ar   
    28   13   15 1    
    29   14  138 1    
    30   15   16 1    
    31   15  139 1    
    32   15  140 1    
    33   16   17 1    
    34   17   18 1    
    35   17  141 1    
    36   17  142 1    
    37   18   19 1    
    38   18   67 1    
    39   18  143 1    
    40   19   20 am   BACKBONE|DICT|INTERRES
    41   19  144 1    
    42   20   21 2    
    43   20   22 1    
    44   22   23 1    
    45   22   24 1    
    46   22  145 1    
    47   23  146 1    
    48   23  147 1    
    49   23  148 1    
    50   24   25 am   BACKBONE|DICT|INTERRES
    51   24  149 1    
    52   25   26 2    
    53   25   27 1    
    54   27   28 1    
    55   27   29 1    
    56   27  150 1    
    57   28  151 1    
    58   28  152 1    
    59   28  153 1    
    60   29   30 am   BACKBONE|DICT|INTERRES
    61   29  154 1    
    62   30   31 2    
    63   30   32 1    
    64   32   33 1    
    65   32   34 1    
    66   32  155 1    
    67   33  156 1    
    68   33  157 1    
    69   33  158 1    
    70   34   35 am   BACKBONE|DICT|INTERRES
    71   34  159 1    
    72   35   36 2    
    73   35   37 1    
    74   37   38 1    
    75   37   39 1    
    76   37  160 1    
    77   38  161 1    
    78   38  162 1    
    79   38  163 1    
    80   39   40 am   BACKBONE|DICT|INTERRES
    81   39  164 1    
    82   40   41 2    
    83   40   42 1    
    84   42   43 1    
    85   42   44 1    
    86   42  165 1    
    87   43  166 1    
    88   43  167 1    
    89   43  168 1    
    90   44   45 am   BACKBONE|DICT|INTERRES
    91   44  169 1    
    92   45   46 2    
    93   45   47 1    
    94   47   48 1    
    95   47   49 1    
    96   47  170 1    
    97   48  171 1    
    98   48  172 1    
    99   48  173 1    
   100   49   50 am   BACKBONE|DICT|INTERRES
   101   49  174 1    
   102   50   51 2    
   103   50   52 1    
   104   52   53 1    
   105   52   54 1    
   106   52  175 1    
   107   53  176 1    
   108   53  177 1    
   109   53  178 1    
   110   54   55 am   BACKBONE|DICT|INTERRES
   111   54  179 1    
   112   55   56 2    
   113   55   57 1    
   114   57   58 1    
   115   57   59 1    
   116   57  180 1    
   117   58  181 1    
   118   58  182 1    
   119   58  183 1    
   120   59   60 am   BACKBONE|DICT|INTERRES
   121   59  184 1    
   122   60   61 2    
   123   60   62 1    
   124   62   63 1    
   125   62   64 1    
   126   62  185 1    
   127   63  186 1    
   128   63  187 1    
   129   63  188 1    
   130   64   65 am   BACKBONE|DICT|INTERRES
   131   64  189 1    
   132   65   66 2    
   133   67   68 2    
   134   67   69 am   BACKBONE|DICT|INTERRES
   135   69   70 1    
   136   69  190 1    
   137   70   71 1    
   138   70   72 1    
   139   70  191 1    
   140   71  192 1    
   141   71  193 1    
   142   71  194 1    
   143   72   73 2    
   144   72   74 am   BACKBONE|DICT|INTERRES
   145   74   75 1    
   146   74  195 1    
   147   75   76 1    
   148   75   77 1    
   149   75  196 1    
   150   76  197 1    
   151   76  198 1    
   152   76  199 1    
   153   77   78 2    
   154   77   79 am   BACKBONE|DICT|INTERRES
   155   79   80 1    
   156   79  200 1    
   157   80   81 1    
   158   80   82 1    
   159   80  201 1    
   160   81  202 1    
   161   81  203 1    
   162   81  204 1    
   163   82   83 2    
   164   82   84 am   BACKBONE|DICT|INTERRES
   165   84   85 1    
   166   84  205 1    
   167   85   86 1    
   168   85   87 1    
   169   85  206 1    
   170   86  207 1    
   171   86  208 1    
   172   86  209 1    
   173   87   88 2    
   174   87   89 am   BACKBONE|DICT|INTERRES
   175   89   90 1    
   176   89  210 1    
   177   90   91 1    
   178   90   92 1    
   179   90  211 1    
   180   91  212 1    
   181   91  213 1    
   182   91  214 1    
   183   92   93 2    
   184   92   94 am   BACKBONE|DICT|INTERRES
   185   94   95 1    
   186   94  215 1    
   187   95   96 1    
   188   95   97 1    
   189   95  216 1    
   190   96  217 1    
   191   96  218 1    
   192   96  219 1    
   193   97   98 2    
   194   97   99 am   BACKBONE|DICT|INTERRES
   195   99  100 1    
   196   99  220 1    
   197  100  101 1    
   198  100  102 1    
   199  100  221 1    
   200  101  222 1    
   201  101  223 1    
   202  101  224 1    
   203  102  103 2    
   204  102  104 am   BACKBONE|DICT|INTERRES
   205  104  105 1    
   206  104  225 1    
   207  105  106 1    
   208  105  107 1    
   209  105  226 1    
   210  106  227 1    
   211  106  228 1    
   212  106  229 1    
   213  107  108 2    
   214  107  109 am   BACKBONE|DICT|INTERRES
   215  109  110 1    
   216  109  230 1    
   217  110  111 1    
   218  110  112 1    
   219  110  231 1    
   220  111  232 1    
   221  111  233 1    
   222  111  234 1    
   223  112  113 2    
   224  112  114 am   BACKBONE|DICT|INTERRES
   225  114  115 1    
   226  114  235 1    
   227  115  116 1    
   228  115  117 1    
   229  115  236 1    
   230  116  237 1    
   231  116  238 1    
   232  116  239 1    
   233  117  118 2    
   234  117  119 am   BACKBONE|DICT|INTERRES
   235  119  120 1    
   236  119  240 1    
   237  120  121 1    
   238  120  124 1    
   239  120  241 1    
   240  121  122 am   BACKBONE|DICT|INTERRES
   241  121  123 2    
   242  122  242 1    
   243  122  243 1    
   244  124  125 1    
   245  124  244 1    
   246  124  245 1    
   247  125  126 1    
   248  126  246 1    
   249  126  247 1    
@<TRIPOS>SUBSTRUCTURE
     1 UNK         1 GROUP             0       ****    0 ROOT    
