@<TRIPOS>MOLECULE
3R540
247   249    1
SMALL
USER_CHARGES


@<TRIPOS>ATOM
      1 CA         -3.0436   -7.7211  -45.4194 C.3       0 UNK        -0.1800 
      2 C          -1.9506   -8.1236  -46.3997 C.2       0 UNK         0.5000 
      3 O          -1.2790   -7.2557  -46.9584 O.2       0 UNK        -0.5000 
      4 N          -1.7766   -9.4331  -46.6164 N.am      1 UNK        -0.5000 
      5 CA         -0.7319  -10.0109  -47.4657 C.3       1 UNK         0.1400 
      6 C6         -1.0429  -11.4925  -47.7906 C.3       23 UNK        -0.0398 
      7 S7         -0.0095  -12.1604  -49.1401 S.3       23 UNK        -0.2404 
      8 C8          0.8913  -13.4945  -48.2882 C.3       23 UNK        -0.0205 
      9 C9          0.0656  -14.7695  -48.2250 C.ar      23 UNK        -0.0193 
     10 C10         0.0871  -15.6676  -49.2965 C.ar      23 UNK        -0.1150 
     11 C11        -0.6712  -16.8411  -49.2555 C.ar      23 UNK        -0.0193 
     12 C12        -1.4509  -17.1170  -48.1299 C.ar      23 UNK        -0.1150 
     13 C13        -1.4786  -16.2275  -47.0526 C.ar      23 UNK        -0.0193 
     14 C14        -0.7168  -15.0569  -47.1026 C.ar      23 UNK        -0.1150 
     15 C15        -2.3167  -16.5476  -45.8286 C.3       23 UNK        -0.0205 
     16 S16        -1.3287  -17.5045  -44.6476 S.3       23 UNK        -0.2404 
     17 C17        -2.5351  -18.7148  -44.0157 C.3       23 UNK        -0.0398 
     18 CA         -2.8424  -19.8865  -44.9875 C.3       11 UNK         0.1400 
     19 N          -1.6549  -20.4751  -45.6164 N.am      11 UNK        -0.5000 
     20 C          -1.6880  -21.3702  -46.6152 C.2       10 UNK         0.5000 
     21 O          -2.7224  -21.7462  -47.1656 O.2       10 UNK        -0.5000 
     22 CA         -0.3497  -21.9863  -47.0495 C.3       10 UNK         0.1400 
     23 CB          0.2976  -21.1491  -48.1637 C.3       10 UNK        -0.1800 
     24 N           0.5698  -22.1281  -45.9210 N.am      10 UNK        -0.5000 
     25 C           0.4412  -23.0509  -44.9566 C.2       9 UNK         0.5000 
     26 O          -0.4428  -23.9071  -44.9488 O.2       9 UNK        -0.5000 
     27 CA          1.4342  -22.9782  -43.7803 C.3       9 UNK         0.1400 
     28 CB          2.7441  -23.6983  -44.1324 C.3       9 UNK        -0.1800 
     29 N           1.7320  -21.6060  -43.3673 N.am      9 UNK        -0.5000 
     30 C           0.8306  -20.7569  -42.8558 C.2       8 UNK         0.5000 
     31 O          -0.3386  -21.0649  -42.6237 O.2       8 UNK        -0.5000 
     32 CA          1.2928  -19.3099  -42.6000 C.3       8 UNK         0.1400 
     33 CB          1.8373  -19.1685  -41.1717 C.3       8 UNK        -0.1800 
     34 N           2.2827  -18.7792  -43.5446 N.am      8 UNK        -0.5000 
     35 C           2.2272  -18.8081  -44.8851 C.2       7 UNK         0.5000 
     36 O           1.3678  -19.4230  -45.5138 O.2       7 UNK        -0.5000 
     37 CA          3.3016  -18.0276  -45.6719 C.3       7 UNK         0.1400 
     38 CB          2.6437  -17.0283  -46.6379 C.3       7 UNK        -0.1800 
     39 N           4.2534  -17.3075  -44.8229 N.am      7 UNK        -0.5000 
     40 C           5.2738  -17.8622  -44.1544 C.2       6 UNK         0.5000 
     41 O           5.5448  -19.0623  -44.1923 O.2       6 UNK        -0.5000 
     42 CA          6.0969  -16.9210  -43.2592 C.3       6 UNK         0.1400 
     43 CB          7.1843  -16.2051  -44.0750 C.3       6 UNK        -0.1800 
     44 N           5.2374  -15.9293  -42.6096 N.am      6 UNK        -0.5000 
     45 C           4.5705  -16.1414  -41.4659 C.2       5 UNK         0.5000 
     46 O           4.6655  -17.1762  -40.8064 O.2       5 UNK        -0.5000 
     47 CA          3.6308  -15.0204  -40.9769 C.3       5 UNK         0.1400 
     48 CB          4.3783  -14.0678  -40.0318 C.3       5 UNK        -0.1800 
     49 N           3.0447  -14.2450  -42.0713 N.am      5 UNK        -0.5000 
     50 C           2.1129  -14.7067  -42.9175 C.2       4 UNK         0.5000 
     51 O           1.5878  -15.8126  -42.8094 O.2       4 UNK        -0.5000 
     52 CA          1.7270  -13.7966  -44.1027 C.3       4 UNK         0.1400 
     53 CB          0.4402  -13.0207  -43.7881 C.3       4 UNK        -0.1800 
     54 N           2.7799  -12.8562  -44.5083 N.am      4 UNK        -0.5000 
     55 C           4.0031  -13.2091  -44.9344 C.2       3 UNK         0.5000 
     56 O           4.3691  -14.3826  -45.0206 O.2       3 UNK        -0.5000 
     57 CA          4.9929  -12.0676  -45.2565 C.3       3 UNK         0.1400 
     58 CB          6.1428  -12.5160  -46.1833 C.3       3 UNK        -0.1800 
     59 N           4.3462  -10.8512  -45.7640 N.am      3 UNK        -0.5000 
     60 C           3.6563  -10.7289  -46.9058 C.2       2 UNK         0.5000 
     61 O           3.4926  -11.6396  -47.7193 O.2       2 UNK        -0.5000 
     62 CA          3.0511   -9.3429  -47.1899 C.3       2 UNK         0.1400 
     63 CB          3.8491   -8.6134  -48.2814 C.3       2 UNK        -0.1800 
     64 N           1.6563   -9.4583  -47.6095 N.am      2 UNK        -0.5000 
     65 C           0.6552   -9.8405  -46.8071 C.2       1 UNK         0.5000 
     66 O           0.7943  -10.0666  -45.6019 O.2       1 UNK        -0.5000 
     67 C          -3.6743  -20.9692  -44.2712 C.2       11 UNK         0.5000 
     68 O          -4.8811  -21.0605  -44.4964 O.2       11 UNK        -0.5000 
     69 N          -2.9992  -21.7979  -43.4601 N.am      12 UNK        -0.5000 
     70 CA         -3.5806  -22.9217  -42.7229 C.3       12 UNK         0.1400 
     71 CB         -2.5241  -23.5022  -41.7708 C.3       12 UNK        -0.1800 
     72 C          -4.1457  -24.0212  -43.6408 C.2       12 UNK         0.5000 
     73 O          -5.2048  -24.5752  -43.3448 O.2       12 UNK        -0.5000 
     74 N          -3.4483  -24.2934  -44.7519 N.am      13 UNK        -0.5000 
     75 CA         -3.8696  -25.2356  -45.7904 C.3       13 UNK         0.1400 
     76 CB         -2.6355  -25.6568  -46.6039 C.3       13 UNK        -0.1800 
     77 C          -4.9605  -24.6789  -46.7283 C.2       13 UNK         0.5000 
     78 O          -5.4629  -25.4317  -47.5636 O.2       13 UNK        -0.5000 
     79 N          -5.2766  -23.3791  -46.6174 N.am      14 UNK        -0.5000 
     80 CA         -6.2043  -22.6144  -47.4577 C.3       14 UNK         0.1400 
     81 CB         -7.6585  -23.0633  -47.2053 C.3       14 UNK        -0.1800 
     82 C          -5.8072  -22.6629  -48.9474 C.2       14 UNK         0.5000 
     83 O          -6.6400  -22.9663  -49.8030 O.2       14 UNK        -0.5000 
     84 N          -4.5145  -22.4233  -49.2153 N.am      15 UNK        -0.5000 
     85 CA         -3.8484  -22.5349  -50.5178 C.3       15 UNK         0.1400 
     86 CB         -4.3483  -21.4396  -51.4814 C.3       15 UNK        -0.1800 
     87 C          -3.9535  -23.9585  -51.1057 C.2       15 UNK         0.5000 
     88 O          -4.2325  -24.1221  -52.2944 O.2       15 UNK        -0.5000 
     89 N          -3.7640  -24.9627  -50.2356 N.am      16 UNK        -0.5000 
     90 CA         -3.9242  -26.3988  -50.4926 C.3       16 UNK         0.1400 
     91 CB         -2.8370  -26.9006  -51.4668 C.3       16 UNK        -0.1800 
     92 C          -5.3573  -26.7405  -50.9501 C.2       16 UNK         0.5000 
     93 O          -5.5393  -27.4129  -51.9641 O.2       16 UNK        -0.5000 
     94 N          -6.3489  -26.2149  -50.2155 N.am      17 UNK        -0.5000 
     95 CA         -7.7829  -26.2274  -50.5316 C.3       17 UNK         0.1400 
     96 CB         -8.3605  -27.6505  -50.3884 C.3       17 UNK        -0.1800 
     97 C          -8.0841  -25.5809  -51.9034 C.2       17 UNK         0.5000 
     98 O          -8.8352  -26.1360  -52.7075 O.2       17 UNK        -0.5000 
     99 N          -7.4539  -24.4220  -52.1403 N.am      18 UNK        -0.5000 
    100 CA        -7.4793  -23.6033  -53.3562 C.3       18 UNK         0.1400 
    101 CB        -8.8893  -23.0221  -53.5888 C.3       18 UNK        -0.1800 
    102 C         -6.9008  -24.2889  -54.6156 C.2       18 UNK         0.5000 
    103 O         -7.2042  -23.8564  -55.7293 O.2       18 UNK        -0.5000 
    104 N         -6.0734  -25.3291  -54.4395 N.am      19 UNK        -0.5000 
    105 CA        -5.3835  -26.0177  -55.5320 C.3       19 UNK         0.1400 
    106 CB        -5.0472  -27.4551  -55.1102 C.3       19 UNK        -0.1800 
    107 C         -4.1073  -25.2827  -55.9801 C.2       19 UNK         0.5000 
    108 O         -3.7276  -25.3998  -57.1467 O.2       19 UNK        -0.5000 
    109 N         -3.4599  -24.5524  -55.0613 N.am      20 UNK        -0.5000 
    110 CA        -2.2747  -23.7438  -55.3421 C.3       20 UNK         0.1400 
    111 CB        -1.5206  -23.4821  -54.0279 C.3       20 UNK        -0.1800 
    112 C         -2.6516  -22.4149  -56.0209 C.2       20 UNK         0.5000 
    113 O         -3.7928  -21.9586  -55.9086 O.2       20 UNK        -0.5000 
    114 N         -1.6605  -21.7824  -56.6646 N.am      21 UNK        -0.5000 
    115 CA        -1.7824  -20.5019  -57.3758 C.3       21 UNK         0.1400 
    116 CB        -0.4484  -20.1925  -58.0728 C.3       21 UNK        -0.1800 
    117 C         -2.2174  -19.3129  -56.4917 C.2       21 UNK         0.5000 
    118 O         -2.7396  -18.3279  -57.0152 O.2       21 UNK        -0.5000 
    119 N         -2.0165  -19.4373  -55.1737 N.am      22 UNK        -0.5000 
    120 CA        -2.5504  -18.5334  -54.1449 C.3       22 UNK         0.1400 
    121 C         -4.1018  -18.6092  -53.9692 C.2       22 UNK         0.5000 
    122 N         -4.7886  -19.6294  -54.4731 N.am      22 UNK        -0.7600 
    123 O         -4.7034  -17.7113  -53.3876 O.2       22 UNK        -0.5000 
    124 C124       -1.7945  -18.7427  -52.8055 C.3       23 UNK        -0.0398 
    125 S125       -1.8553  -17.2988  -51.6962 S.3       23 UNK        -0.2404 
    126 C126       -0.6565  -17.8066  -50.4281 C.3       23 UNK        -0.0205 
    127 H127       -2.6145   -7.1596  -44.5895 H         1 UNK         0.0600 
    128 H128       -3.5619   -8.5888  -45.0106 H         1 UNK         0.0600 
    129 H129       -3.7793   -7.0887  -45.9162 H         1 UNK         0.0600 
    130 H130       -2.3405  -10.0943  -46.1022 H         1 UNK         0.3000 
    131 H131       -0.7386   -9.4534  -48.4053 H         1 UNK         0.0600 
    132 H132       -2.0802  -11.5875  -48.1148 H         1 UNK         0.0800 
    133 H133       -0.9554  -12.1094  -46.8962 H         1 UNK         0.0800 
    134 H134        1.1881  -13.1726  -47.2886 H         1 UNK         0.0800 
    135 H135        1.8204  -13.6884  -48.8262 H         1 UNK         0.0800 
    136 H136        0.6860  -15.4474  -50.1691 H         1 UNK         0.1150 
    137 H137       -2.0347  -18.0261  -48.0894 H         1 UNK         0.1150 
    138 H138       -0.7317  -14.3759  -46.2645 H         1 UNK         0.1150 
    139 H139       -2.6669  -15.6316  -45.3507 H         1 UNK         0.0800 
    140 H140       -3.2074  -17.1021  -46.1260 H         1 UNK         0.0800 
    141 H141       -3.4549  -18.1881  -43.7558 H         1 UNK         0.0800 
    142 H142       -2.1326  -19.0905  -43.0738 H         1 UNK         0.0800 
    143 H143       -3.4595  -19.4894  -45.7961 H         1 UNK         0.0600 
    144 H144       -0.7546  -20.1773  -45.2609 H         1 UNK         0.3000 
    145 H145       -0.5524  -22.9803  -47.4530 H         1 UNK         0.0600 
    146 H146        0.4575  -20.1146  -47.8585 H         1 UNK         0.0600 
    147 H147        1.2600  -21.5643  -48.4625 H         1 UNK         0.0600 
    148 H148       -0.3379  -21.1305  -49.0498 H         1 UNK         0.0600 
    149 H149        1.2384  -21.3754  -45.7962 H         1 UNK         0.3000 
    150 H150        0.9791  -23.4929  -42.9314 H         1 UNK         0.0600 
    151 H151        2.5540  -24.7310  -44.4279 H         1 UNK         0.0600 
    152 H152        3.4213  -23.7250  -43.2786 H         1 UNK         0.0600 
    153 H153        3.2632  -23.2102  -44.9583 H         1 UNK         0.0600 
    154 H154        2.6665  -21.2656  -43.5403 H         1 UNK         0.3000 
    155 H155        0.4107  -18.6749  -42.6776 H         1 UNK         0.0600 
    156 H156        1.1332  -19.5672  -40.4401 H         1 UNK         0.0600 
    157 H157        2.0043  -18.1213  -40.9191 H         1 UNK         0.0600 
    158 H158        2.7816  -19.6997  -41.0461 H         1 UNK         0.0600 
    159 H159        3.0174  -18.2222  -43.1355 H         1 UNK         0.3000 
    160 H160        3.8555  -18.7559  -46.2674 H         1 UNK         0.0600 
    161 H161        3.3880  -16.4519  -47.1875 H         1 UNK         0.0600 
    162 H162        1.9992  -16.3286  -46.1084 H         1 UNK         0.0600 
    163 H163        2.0226  -17.5426  -47.3728 H         1 UNK         0.0600 
    164 H164        4.1390  -16.2993  -44.7750 H         1 UNK         0.3000 
    165 H165        6.5934  -17.5254  -42.4969 H         1 UNK         0.0600 
    166 H166        6.7607  -15.6178  -44.8896 H         1 UNK         0.0600 
    167 H167        7.7720  -15.5349  -43.4476 H         1 UNK         0.0600 
    168 H168        7.8739  -16.9252  -44.5173 H         1 UNK         0.0600 
    169 H169        5.0586  -15.0817  -43.1324 H         1 UNK         0.3000 
    170 H170        2.8194  -15.4898  -40.4165 H         1 UNK         0.0600 
    171 H171        5.1948  -13.5533  -40.5402 H         1 UNK         0.0600 
    172 H172        3.7078  -13.3123  -39.6217 H         1 UNK         0.0600 
    173 H173        4.8073  -14.6116  -39.1890 H         1 UNK         0.0600 
    174 H174        3.4088  -13.3157  -42.2192 H         1 UNK         0.3000 
    175 H175        1.5234  -14.4458  -44.9543 H         1 UNK         0.0600 
    176 H176        0.5900  -12.3015  -42.9822 H         1 UNK         0.0600 
    177 H177        0.0847  -12.4772  -44.6624 H         1 UNK         0.0600 
    178 H178       -0.3599  -13.6970  -43.4836 H         1 UNK         0.0600 
    179 H179        2.5438  -11.8740  -44.4773 H         1 UNK         0.3000 
    180 H180        5.4407  -11.7901  -44.3014 H         1 UNK         0.0600 
    181 H181        5.7721  -12.9108  -47.1296 H         1 UNK         0.0600 
    182 H182        6.7385  -13.3001  -45.7155 H         1 UNK         0.0600 
    183 H183        6.8172  -11.6890  -46.4050 H         1 UNK         0.0600 
    184 H184        4.4216  -10.0412  -45.1639 H         1 UNK         0.3000 
    185 H185        3.0854   -8.7409  -46.2792 H         1 UNK         0.0600 
    186 H186        3.4483   -7.6161  -48.4641 H         1 UNK         0.0600 
    187 H187        4.8929   -8.4952  -47.9876 H         1 UNK         0.0600 
    188 H188        3.8340   -9.1602  -49.2252 H         1 UNK         0.0600 
    189 H189        1.4752   -9.3358  -48.5950 H         1 UNK         0.3000 
    190 H190       -2.0081  -21.6266  -43.3056 H         1 UNK         0.3000 
    191 H191       -4.4061  -22.5342  -42.1225 H         1 UNK         0.0600 
    192 H192       -1.6547  -23.8743  -42.3141 H         1 UNK         0.0600 
    193 H193       -2.1771  -22.7501  -41.0620 H         1 UNK         0.0600 
    194 H194       -2.9316  -24.3320  -41.1919 H         1 UNK         0.0600 
    195 H195       -2.5499  -23.8431  -44.8878 H         1 UNK         0.3000 
    196 H196       -4.2787  -26.1263  -45.3093 H         1 UNK         0.0600 
    197 H197       -1.8667  -26.0838  -45.9596 H         1 UNK         0.0600 
    198 H198       -2.1962  -24.8115  -47.1343 H         1 UNK         0.0600 
    199 H199       -2.8903  -26.4166  -47.3427 H         1 UNK         0.0600 
    200 H200       -4.7896  -22.8360  -45.9159 H         1 UNK         0.3000 
    201 H201       -6.1175  -21.5721  -47.1476 H         1 UNK         0.0600 
    202 H202       -8.3615  -22.4319  -47.7498 H         1 UNK         0.0600 
    203 H203       -7.9123  -22.9944  -46.1475 H         1 UNK         0.0600 
    204 H204       -7.8287  -24.0920  -47.5244 H         1 UNK         0.0600 
    205 H205       -3.9049  -22.1884  -48.4316 H         1 UNK         0.3000 
    206 H206       -2.7868  -22.3574  -50.3399 H         1 UNK         0.0600 
    207 H207       -4.1931  -20.4461  -51.0609 H         1 UNK         0.0600 
    208 H208       -5.4100  -21.5419  -51.7018 H         1 UNK         0.0600 
    209 H209       -3.8168  -21.4778  -52.4319 H         1 UNK         0.0600 
    210 H210       -3.5954  -24.7132  -49.2726 H         1 UNK         0.3000 
    211 H211       -3.7777  -26.9098  -49.5406 H         1 UNK         0.0600 
    212 H212       -1.8391  -26.6682  -51.0954 H         1 UNK         0.0600 
    213 H213       -2.8935  -27.9827  -51.5903 H         1 UNK         0.0600 
    214 H214       -2.9367  -26.4542  -52.4565 H         1 UNK         0.0600 
    215 H215       -6.0909  -25.7105  -49.3709 H         1 UNK         0.3000 
    216 H216       -8.2660  -25.5970  -49.7836 H         1 UNK         0.0600 
    217 H217       -9.4444  -27.6452  -50.5090 H         1 UNK         0.0600 
    218 H218       -7.9519  -28.3320  -51.1350 H         1 UNK         0.0600 
    219 H219       -8.1460  -28.0645  -49.4032 H         1 UNK         0.0600 
    220 H220       -6.9034  -24.0327  -51.3788 H         1 UNK         0.3000 
    221 H221       -6.8131  -22.7642  -53.1560 H         1 UNK         0.0600 
    222 H222       -9.6056  -23.7964  -53.8643 H         1 UNK         0.0600 
    223 H223       -9.2613  -22.5222  -52.6944 H         1 UNK         0.0600 
    224 H224       -8.8827  -22.2830  -54.3907 H         1 UNK         0.0600 
    225 H225       -5.8535  -25.6253  -53.4967 H         1 UNK         0.3000 
    226 H226       -6.0545  -26.0751  -56.3917 H         1 UNK         0.0600 
    227 H227       -5.9355  -27.9860  -54.7672 H         1 UNK         0.0600 
    228 H228       -4.6329  -28.0185  -55.9470 H         1 UNK         0.0600 
    229 H229       -4.3099  -27.4768  -54.3075 H         1 UNK         0.0600 
    230 H230       -3.8571  -24.4612  -54.1294 H         1 UNK         0.3000 
    231 H231       -1.6180  -24.3042  -56.0109 H         1 UNK         0.0600 
    232 H232       -0.5615  -22.9984  -54.2152 H         1 UNK         0.0600 
    233 H233       -1.3158  -24.4122  -53.4971 H         1 UNK         0.0600 
    234 H234       -2.0865  -22.8338  -53.3598 H         1 UNK         0.0600 
    235 H235       -0.7489  -22.2165  -56.6939 H         1 UNK         0.3000 
    236 H236       -2.5486  -20.6260  -58.1438 H         1 UNK         0.0600 
    237 H237       -0.1773  -20.9804  -58.7757 H         1 UNK         0.0600 
    238 H238       -0.5089  -19.2620  -58.6392 H         1 UNK         0.0600 
    239 H239        0.3653  -20.0867  -57.3542 H         1 UNK         0.0600 
    240 H240       -1.5790  -20.2839  -54.8445 H         1 UNK         0.3000 
    241 H241       -2.3363  -17.5195  -54.4890 H         1 UNK         0.0600 
    242 H242       -4.3366  -20.3844  -54.9815 H         1 UNK         0.3800 
    243 H243       -5.7889  -19.6421  -54.3613 H         1 UNK         0.3800 
    244 H244       -2.1645  -19.6219  -52.2774 H         1 UNK         0.0800 
    245 H245       -0.7396  -18.9368  -53.0066 H         1 UNK         0.0800 
    246 H246        0.3427  -17.8512  -50.8641 H         1 UNK         0.0800 
    247 H247       -0.8924  -18.8154  -50.0857 H         1 UNK         0.0800 
@<TRIPOS>BOND
     1    1    2 1    
     2    1  127 1    
     3    1  128 1    
     4    1  129 1    
     5    2    3 2    
     6    2    4 am   BACKBONE|DICT|INTERRES
     7    4    5 1    
     8    4  130 1    
     9    5    6 1    
    10    5   65 1    
    11    5  131 1    
    12    6    7 1    
    13    6  132 1    
    14    6  133 1    
    15    7    8 1    
    16    8    9 1    
    17    8  134 1    
    18    8  135 1    
    19    9   10 ar   
    20    9   14 ar   
    21   10   11 ar   
    22   10  136 1    
    23   11   12 ar   
    24   11  126 1    
    25   12   13 ar   
    26   12  137 1    
    27   13   14 ar   
    28   13   15 1    
    29   14  138 1    
    30   15   16 1    
    31   15  139 1    
    32   15  140 1    
    33   16   17 1    
    34   17   18 1    
    35   17  141 1    
    36   17  142 1    
    37   18   19 1    
    38   18   67 1    
    39   18  143 1    
    40   19   20 am   BACKBONE|DICT|INTERRES
    41   19  144 1    
    42   20   21 2    
    43   20   22 1    
    44   22   23 1    
    45   22   24 1    
    46   22  145 1    
    47   23  146 1    
    48   23  147 1    
    49   23  148 1    
    50   24   25 am   BACKBONE|DICT|INTERRES
    51   24  149 1    
    52   25   26 2    
    53   25   27 1    
    54   27   28 1    
    55   27   29 1    
    56   27  150 1    
    57   28  151 1    
    58   28  152 1    
    59   28  153 1    
    60   29   30 am   BACKBONE|DICT|INTERRES
    61   29  154 1    
    62   30   31 2    
    63   30   32 1    
    64   32   33 1    
    65   32   34 1    
    66   32  155 1    
    67   33  156 1    
    68   33  157 1    
    69   33  158 1    
    70   34   35 am   BACKBONE|DICT|INTERRES
    71   34  159 1    
    72   35   36 2    
    73   35   37 1    
    74   37   38 1    
    75   37   39 1    
    76   37  160 1    
    77   38  161 1    
    78   38  162 1    
    79   38  163 1    
    80   39   40 am   BACKBONE|DICT|INTERRES
    81   39  164 1    
    82   40   41 2    
    83   40   42 1    
    84   42   43 1    
    85   42   44 1    
    86   42  165 1    
    87   43  166 1    
    88   43  167 1    
    89   43  168 1    
    90   44   45 am   BACKBONE|DICT|INTERRES
    91   44  169 1    
    92   45   46 2    
    93   45   47 1    
    94   47   48 1    
    95   47   49 1    
    96   47  170 1    
    97   48  171 1    
    98   48  172 1    
    99   48  173 1    
   100   49   50 am   BACKBONE|DICT|INTERRES
   101   49  174 1    
   102   50   51 2    
   103   50   52 1    
   104   52   53 1    
   105   52   54 1    
   106   52  175 1    
   107   53  176 1    
   108   53  177 1    
   109   53  178 1    
   110   54   55 am   BACKBONE|DICT|INTERRES
   111   54  179 1    
   112   55   56 2    
   113   55   57 1    
   114   57   58 1    
   115   57   59 1    
   116   57  180 1    
   117   58  181 1    
   118   58  182 1    
   119   58  183 1    
   120   59   60 am   BACKBONE|DICT|INTERRES
   121   59  184 1    
   122   60   61 2    
   123   60   62 1    
   124   62   63 1    
   125   62   64 1    
   126   62  185 1    
   127   63  186 1    
   128   63  187 1    
   129   63  188 1    
   130   64   65 am   BACKBONE|DICT|INTERRES
   131   64  189 1    
   132   65   66 2    
   133   67   68 2    
   134   67   69 am   BACKBONE|DICT|INTERRES
   135   69   70 1    
   136   69  190 1    
   137   70   71 1    
   138   70   72 1    
   139   70  191 1    
   140   71  192 1    
   141   71  193 1    
   142   71  194 1    
   143   72   73 2    
   144   72   74 am   BACKBONE|DICT|INTERRES
   145   74   75 1    
   146   74  195 1    
   147   75   76 1    
   148   75   77 1    
   149   75  196 1    
   150   76  197 1    
   151   76  198 1    
   152   76  199 1    
   153   77   78 2    
   154   77   79 am   BACKBONE|DICT|INTERRES
   155   79   80 1    
   156   79  200 1    
   157   80   81 1    
   158   80   82 1    
   159   80  201 1    
   160   81  202 1    
   161   81  203 1    
   162   81  204 1    
   163   82   83 2    
   164   82   84 am   BACKBONE|DICT|INTERRES
   165   84   85 1    
   166   84  205 1    
   167   85   86 1    
   168   85   87 1    
   169   85  206 1    
   170   86  207 1    
   171   86  208 1    
   172   86  209 1    
   173   87   88 2    
   174   87   89 am   BACKBONE|DICT|INTERRES
   175   89   90 1    
   176   89  210 1    
   177   90   91 1    
   178   90   92 1    
   179   90  211 1    
   180   91  212 1    
   181   91  213 1    
   182   91  214 1    
   183   92   93 2    
   184   92   94 am   BACKBONE|DICT|INTERRES
   185   94   95 1    
   186   94  215 1    
   187   95   96 1    
   188   95   97 1    
   189   95  216 1    
   190   96  217 1    
   191   96  218 1    
   192   96  219 1    
   193   97   98 2    
   194   97   99 am   BACKBONE|DICT|INTERRES
   195   99  100 1    
   196   99  220 1    
   197  100  101 1    
   198  100  102 1    
   199  100  221 1    
   200  101  222 1    
   201  101  223 1    
   202  101  224 1    
   203  102  103 2    
   204  102  104 am   BACKBONE|DICT|INTERRES
   205  104  105 1    
   206  104  225 1    
   207  105  106 1    
   208  105  107 1    
   209  105  226 1    
   210  106  227 1    
   211  106  228 1    
   212  106  229 1    
   213  107  108 2    
   214  107  109 am   BACKBONE|DICT|INTERRES
   215  109  110 1    
   216  109  230 1    
   217  110  111 1    
   218  110  112 1    
   219  110  231 1    
   220  111  232 1    
   221  111  233 1    
   222  111  234 1    
   223  112  113 2    
   224  112  114 am   BACKBONE|DICT|INTERRES
   225  114  115 1    
   226  114  235 1    
   227  115  116 1    
   228  115  117 1    
   229  115  236 1    
   230  116  237 1    
   231  116  238 1    
   232  116  239 1    
   233  117  118 2    
   234  117  119 am   BACKBONE|DICT|INTERRES
   235  119  120 1    
   236  119  240 1    
   237  120  121 1    
   238  120  124 1    
   239  120  241 1    
   240  121  122 am   BACKBONE|DICT|INTERRES
   241  121  123 2    
   242  122  242 1    
   243  122  243 1    
   244  124  125 1    
   245  124  244 1    
   246  124  245 1    
   247  125  126 1    
   248  126  246 1    
   249  126  247 1    
@<TRIPOS>SUBSTRUCTURE
     1 UNK         1 GROUP             0       ****    0 ROOT    
