@<TRIPOS>MOLECULE
3R540
247   249    1
SMALL
USER_CHARGES


@<TRIPOS>ATOM
      1 CA         -2.8229  -14.6368  -46.4829 C.3       0 UNK        -0.1800 
      2 C          -1.8555  -14.1982  -47.5734 C.2       0 UNK         0.5000 
      3 O          -2.2406  -13.4515  -48.4722 O.2       0 UNK        -0.5000 
      4 N          -0.5989  -14.6497  -47.4799 N.am      1 UNK        -0.5000 
      5 CA          0.5181  -14.2158  -48.3252 C.3       1 UNK         0.1400 
      6 C6          1.6688  -15.2608  -48.3301 C.3       23 UNK        -0.0398 
      7 S7          2.4347  -15.4515  -49.9725 S.3       23 UNK        -0.2404 
      8 C8          1.6261  -16.9702  -50.5776 C.3       23 UNK        -0.0205 
      9 C9          0.1293  -16.7755  -50.7703 C.ar      23 UNK        -0.0193 
     10 C10        -0.3441  -16.0629  -51.8749 C.ar      23 UNK        -0.1150 
     11 C11        -1.7136  -15.8512  -52.0511 C.ar      23 UNK        -0.0193 
     12 C12        -2.6126  -16.3556  -51.1079 C.ar      23 UNK        -0.1150 
     13 C13        -2.1544  -17.0988  -50.0182 C.ar      23 UNK        -0.0193 
     14 C14        -0.7820  -17.3044  -49.8510 C.ar      23 UNK        -0.1150 
     15 C15        -3.1481  -17.6983  -49.0400 C.3       23 UNK        -0.0205 
     16 S16        -3.8874  -19.2013  -49.7465 S.3       23 UNK        -0.2404 
     17 C17        -4.4419  -20.0872  -48.2563 C.3       23 UNK        -0.0398 
     18 CA         -3.4919  -21.2562  -47.9033 C.3       11 UNK         0.1400 
     19 N          -2.1271  -20.7929  -47.6336 N.am      11 UNK        -0.5000 
     20 C          -1.0727  -21.5531  -47.3113 C.2       10 UNK         0.5000 
     21 O          -1.1082  -22.7808  -47.2550 O.2       10 UNK        -0.5000 
     22 CA          0.2233  -20.8181  -46.9242 C.3       10 UNK         0.1400 
     23 CB          1.1633  -20.7387  -48.1366 C.3       10 UNK        -0.1800 
     24 N           0.0367  -19.4673  -46.3796 N.am      10 UNK        -0.5000 
     25 C          -0.7629  -19.1106  -45.3618 C.2       9 UNK         0.5000 
     26 O          -1.5343  -19.8765  -44.7821 O.2       9 UNK        -0.5000 
     27 CA         -0.6485  -17.6434  -44.9338 C.3       9 UNK         0.1400 
     28 CB         -1.5931  -17.2539  -43.7824 C.3       9 UNK        -0.1800 
     29 N           0.7417  -17.3893  -44.5750 N.am      9 UNK        -0.5000 
     30 C           1.3784  -16.2202  -44.6915 C.2       8 UNK         0.5000 
     31 O           0.8341  -15.1885  -45.0956 O.2       8 UNK        -0.5000 
     32 CA          2.8708  -16.2092  -44.3187 C.3       8 UNK         0.1400 
     33 CB          3.3668  -14.8167  -43.9081 C.3       8 UNK        -0.1800 
     34 N           3.1358  -17.1579  -43.2415 N.am      8 UNK        -0.5000 
     35 C           4.1128  -18.0743  -43.2420 C.2       7 UNK         0.5000 
     36 O           4.9512  -18.1781  -44.1381 O.2       7 UNK        -0.5000 
     37 CA          4.1608  -19.0604  -42.0556 C.3       7 UNK         0.1400 
     38 CB          5.2219  -18.6167  -41.0369 C.3       7 UNK        -0.1800 
     39 N           2.8832  -19.2214  -41.3589 N.am      7 UNK        -0.5000 
     40 C           1.7461  -19.6838  -41.8979 C.2       6 UNK         0.5000 
     41 O           1.6513  -20.0846  -43.0581 O.2       6 UNK        -0.5000 
     42 CA          0.4895  -19.6230  -41.0066 C.3       6 UNK         0.1400 
     43 CB          0.2678  -20.9677  -40.2989 C.3       6 UNK        -0.1800 
     44 N           0.5184  -18.5474  -40.0046 N.am      6 UNK        -0.5000 
     45 C           0.6414  -17.2379  -40.2716 C.2       5 UNK         0.5000 
     46 O           0.7483  -16.7925  -41.4163 O.2       5 UNK        -0.5000 
     47 CA          0.6398  -16.2809  -39.0590 C.3       5 UNK         0.1400 
     48 CB          1.5833  -16.7519  -37.9302 C.3       5 UNK        -0.1800 
     49 N           0.9250  -14.8915  -39.4377 N.am      5 UNK        -0.5000 
     50 C           2.0617  -14.3883  -39.9412 C.2       4 UNK         0.5000 
     51 O           3.1056  -15.0299  -40.0757 O.2       4 UNK        -0.5000 
     52 CA          1.9835  -12.9220  -40.4171 C.3       4 UNK         0.1400 
     53 CB          3.3631  -12.3257  -40.7516 C.3       4 UNK        -0.1800 
     54 N           1.1232  -12.8105  -41.5957 N.am      4 UNK        -0.5000 
     55 C          -0.2158  -12.8096  -41.5892 C.2       3 UNK         0.5000 
     56 O          -0.8814  -12.8250  -40.5517 O.2       3 UNK        -0.5000 
     57 CA         -0.9319  -12.8574  -42.9554 C.3       3 UNK         0.1400 
     58 CB         -2.1980  -11.9774  -42.9981 C.3       3 UNK        -0.1800 
     59 N          -0.0636  -12.6088  -44.1141 N.am      3 UNK        -0.5000 
     60 C           0.5103  -11.4508  -44.4875 C.2       2 UNK         0.5000 
     61 O           0.4164  -10.4061  -43.8435 O.2       2 UNK        -0.5000 
     62 CA          1.3245  -11.4455  -45.7987 C.3       2 UNK         0.1400 
     63 CB          2.8134  -11.1605  -45.5373 C.3       2 UNK        -0.1800 
     64 N           1.1729  -12.7039  -46.5309 N.am      2 UNK        -0.5000 
     65 C           0.9947  -12.8261  -47.8530 C.2       1 UNK         0.5000 
     66 O           1.1219  -11.9032  -48.6586 O.2       1 UNK        -0.5000 
     67 C          -4.0935  -22.0981  -46.7599 C.2       11 UNK         0.5000 
     68 O          -4.8990  -22.9831  -47.0454 O.2       11 UNK        -0.5000 
     69 N          -3.6764  -21.8453  -45.5099 N.am      12 UNK        -0.5000 
     70 CA         -4.0835  -22.6163  -44.3341 C.3       12 UNK         0.1400 
     71 CB         -3.6583  -21.8604  -43.0655 C.3       12 UNK        -0.1800 
     72 C          -3.5133  -24.0488  -44.3215 C.2       12 UNK         0.5000 
     73 O          -4.1658  -24.9524  -43.7983 O.2       12 UNK        -0.5000 
     74 N          -2.3170  -24.2308  -44.8965 N.am      13 UNK        -0.5000 
     75 CA         -1.6355  -25.5202  -45.0084 C.3       13 UNK         0.1400 
     76 CB         -0.1203  -25.3006  -44.8730 C.3       13 UNK        -0.1800 
     77 C          -1.9653  -26.2117  -46.3414 C.2       13 UNK         0.5000 
     78 O          -2.1959  -27.4209  -46.3626 O.2       13 UNK        -0.5000 
     79 N          -1.9888  -25.4283  -47.4276 N.am      14 UNK        -0.5000 
     80 CA         -2.2461  -25.8811  -48.7951 C.3       14 UNK         0.1400 
     81 CB         -1.7199  -24.8093  -49.7632 C.3       14 UNK        -0.1800 
     82 C          -3.7310  -26.1794  -49.0820 C.2       14 UNK         0.5000 
     83 O          -4.0263  -26.8037  -50.1010 O.2       14 UNK        -0.5000 
     84 N          -4.6291  -25.7105  -48.2021 N.am      15 UNK        -0.5000 
     85 CA         -6.0917  -25.7828  -48.2920 C.3       15 UNK         0.1400 
     86 CB         -6.5809  -27.2448  -48.2199 C.3       15 UNK        -0.1800 
     87 C          -6.6388  -25.0091  -49.5105 C.2       15 UNK         0.5000 
     88 O          -7.5365  -25.4962  -50.1998 O.2       15 UNK        -0.5000 
     89 N          -6.0676  -23.8147  -49.7404 N.am      16 UNK        -0.5000 
     90 CA         -6.3420  -22.8830  -50.8424 C.3       16 UNK         0.1400 
     91 CB         -7.7184  -22.2157  -50.6472 C.3       16 UNK        -0.1800 
     92 C          -6.1832  -23.5519  -52.2253 C.2       16 UNK         0.5000 
     93 O          -7.1541  -23.6859  -52.9724 O.2       16 UNK        -0.5000 
     94 N          -4.9535  -24.0036  -52.5075 N.am      17 UNK        -0.5000 
     95 CA         -4.5918  -24.8287  -53.6645 C.3       17 UNK         0.1400 
     96 CB         -3.1258  -25.2663  -53.5177 C.3       17 UNK        -0.1800 
     97 C          -4.8110  -24.1838  -55.0478 C.2       17 UNK         0.5000 
     98 O          -4.9456  -24.9203  -56.0260 O.2       17 UNK        -0.5000 
     99 N          -4.8179  -22.8440  -55.1099 N.am      18 UNK        -0.5000 
    100 CA        -4.8641  -22.0203  -56.3243 C.3       18 UNK         0.1400 
    101 CB        -6.1862  -22.2148  -57.0962 C.3       18 UNK        -0.1800 
    102 C         -3.6022  -22.2182  -57.1881 C.2       18 UNK         0.5000 
    103 O         -3.6899  -22.4111  -58.4025 O.2       18 UNK        -0.5000 
    104 N         -2.4484  -22.1796  -56.5157 N.am      19 UNK        -0.5000 
    105 CA        -1.1140  -22.3238  -57.0830 C.3       19 UNK         0.1400 
    106 CB        -0.5892  -23.7410  -56.7729 C.3       19 UNK        -0.1800 
    107 C         -0.2549  -21.1816  -56.5166 C.2       19 UNK         0.5000 
    108 O         -0.6160  -20.0180  -56.7026 O.2       19 UNK        -0.5000 
    109 N          0.8370  -21.5112  -55.8103 N.am      20 UNK        -0.5000 
    110 CA         1.6476  -20.5539  -55.0486 C.3       20 UNK         0.1400 
    111 CB         2.9318  -21.2430  -54.5629 C.3       20 UNK        -0.1800 
    112 C          0.8666  -19.9523  -53.8632 C.2       20 UNK         0.5000 
    113 O          1.0099  -18.7651  -53.5760 O.2       20 UNK        -0.5000 
    114 N          0.0227  -20.7835  -53.2389 N.am      21 UNK        -0.5000 
    115 CA        -1.0399  -20.3754  -52.3303 C.3       21 UNK         0.1400 
    116 CB        -1.2425  -21.4859  -51.2871 C.3       21 UNK        -0.1800 
    117 C         -2.3031  -20.1723  -53.1803 C.2       21 UNK         0.5000 
    118 O         -2.7494  -21.1286  -53.8206 O.2       21 UNK        -0.5000 
    119 N         -2.8250  -18.9417  -53.2163 N.am      22 UNK        -0.5000 
    120 CA        -3.9305  -18.5366  -54.1039 C.3       22 UNK         0.1400 
    121 C         -5.3221  -19.1428  -53.7590 C.2       22 UNK         0.5000 
    122 N         -5.5402  -19.6813  -52.5672 N.am      22 UNK        -0.7600 
    123 O         -6.2215  -19.1238  -54.5937 O.2       22 UNK        -0.5000 
    124 C124       -4.0510  -16.9968  -54.2474 C.3       23 UNK        -0.0398 
    125 S125       -2.4876  -16.1649  -54.6970 S.3       23 UNK        -0.2404 
    126 C126       -2.2149  -15.0773  -53.2601 C.3       23 UNK        -0.0205 
    127 H127       -2.2954  -14.9593  -45.5856 H         1 UNK         0.0600 
    128 H128       -3.4441  -15.4595  -46.8354 H         1 UNK         0.0600 
    129 H129       -3.4759  -13.8098  -46.2038 H         1 UNK         0.0600 
    130 H130       -0.3309  -15.1868  -46.6647 H         1 UNK         0.3000 
    131 H131        0.1330  -14.1084  -49.3421 H         1 UNK         0.0600 
    132 H132        2.4519  -15.0152  -47.6102 H         1 UNK         0.0800 
    133 H133        1.3008  -16.2383  -48.0177 H         1 UNK         0.0800 
    134 H134        2.0771  -17.2534  -51.5297 H         1 UNK         0.0800 
    135 H135        1.8272  -17.7936  -49.8907 H         1 UNK         0.0800 
    136 H136        0.3581  -15.6699  -52.5968 H         1 UNK         0.1150 
    137 H137       -3.6736  -16.1905  -51.2272 H         1 UNK         0.1150 
    138 H138       -0.4231  -17.8730  -49.0062 H         1 UNK         0.1150 
    139 H139       -2.6560  -17.9212  -48.0931 H         1 UNK         0.0800 
    140 H140       -3.9368  -16.9779  -48.8182 H         1 UNK         0.0800 
    141 H141       -4.5375  -19.3907  -47.4212 H         1 UNK         0.0800 
    142 H142       -5.4486  -20.4587  -48.4582 H         1 UNK         0.0800 
    143 H143       -3.4341  -21.9170  -48.7696 H         1 UNK         0.0600 
    144 H144       -1.9913  -19.7956  -47.6493 H         1 UNK         0.3000 
    145 H145        0.7091  -21.4135  -46.1487 H         1 UNK         0.0600 
    146 H146        2.1310  -20.3192  -47.8607 H         1 UNK         0.0600 
    147 H147        1.3492  -21.7298  -48.5531 H         1 UNK         0.0600 
    148 H148        0.7440  -20.1228  -48.9330 H         1 UNK         0.0600 
    149 H149        0.6537  -18.7631  -46.7548 H         1 UNK         0.3000 
    150 H150       -0.9123  -17.0464  -45.8077 H         1 UNK         0.0600 
    151 H151       -2.6358  -17.4018  -44.0656 H         1 UNK         0.0600 
    152 H152       -1.4738  -16.2065  -43.5101 H         1 UNK         0.0600 
    153 H153       -1.4082  -17.8477  -42.8891 H         1 UNK         0.0600 
    154 H154        1.2538  -18.1931  -44.2287 H         1 UNK         0.3000 
    155 H155        3.4050  -16.5054  -45.2234 H         1 UNK         0.0600 
    156 H156        4.4196  -14.8376  -43.6265 H         1 UNK         0.0600 
    157 H157        2.8007  -14.4326  -43.0620 H         1 UNK         0.0600 
    158 H158        3.2660  -14.1151  -44.7344 H         1 UNK         0.0600 
    159 H159        2.4723  -17.1366  -42.4719 H         1 UNK         0.3000 
    160 H160        4.4482  -20.0360  -42.4528 H         1 UNK         0.0600 
    161 H161        4.9691  -17.6542  -40.5891 H         1 UNK         0.0600 
    162 H162        6.1994  -18.5122  -41.5097 H         1 UNK         0.0600 
    163 H163        5.3280  -19.3451  -40.2328 H         1 UNK         0.0600 
    164 H164        2.8525  -18.8976  -40.4036 H         1 UNK         0.3000 
    165 H165       -0.3639  -19.4461  -41.6620 H         1 UNK         0.0600 
    166 H166        1.0758  -21.1946  -39.6023 H         1 UNK         0.0600 
    167 H167       -0.6691  -20.9709  -39.7414 H         1 UNK         0.0600 
    168 H168        0.2162  -21.7845  -41.0204 H         1 UNK         0.0600 
    169 H169        0.4279  -18.8370  -39.0416 H         1 UNK         0.3000 
    170 H170       -0.3785  -16.2803  -38.6679 H         1 UNK         0.0600 
    171 H171        1.2369  -17.6848  -37.4850 H         1 UNK         0.0600 
    172 H172        2.5990  -16.9196  -38.2899 H         1 UNK         0.0600 
    173 H173        1.6319  -16.0169  -37.1267 H         1 UNK         0.0600 
    174 H174        0.1172  -14.2784  -39.4625 H         1 UNK         0.3000 
    175 H175        1.5562  -12.3311  -39.6042 H         1 UNK         0.0600 
    176 H176        3.2785  -11.2783  -41.0416 H         1 UNK         0.0600 
    177 H177        4.0254  -12.3699  -39.8861 H         1 UNK         0.0600 
    178 H178        3.8536  -12.8590  -41.5662 H         1 UNK         0.0600 
    179 H179        1.5859  -12.8177  -42.4912 H         1 UNK         0.3000 
    180 H180       -1.2621  -13.8905  -43.0647 H         1 UNK         0.0600 
    181 H181       -2.6951  -12.0491  -43.9656 H         1 UNK         0.0600 
    182 H182       -2.9182  -12.2915  -42.2418 H         1 UNK         0.0600 
    183 H183       -1.9710  -10.9276  -42.8123 H         1 UNK         0.0600 
    184 H184        0.1201  -13.4394  -44.6633 H         1 UNK         0.3000 
    185 H185        0.9209  -10.6308  -46.4037 H         1 UNK         0.0600 
    186 H186        2.9467  -10.1651  -45.1122 H         1 UNK         0.0600 
    187 H187        3.2489  -11.8700  -44.8357 H         1 UNK         0.0600 
    188 H188        3.3923  -11.1982  -46.4602 H         1 UNK         0.0600 
    189 H189        1.0808  -13.5431  -45.9694 H         1 UNK         0.3000 
    190 H190       -2.9896  -21.1132  -45.3514 H         1 UNK         0.3000 
    191 H191       -5.1730  -22.6922  -44.3377 H         1 UNK         0.0600 
    192 H192       -3.9911  -22.3837  -42.1683 H         1 UNK         0.0600 
    193 H193       -4.0903  -20.8599  -43.0384 H         1 UNK         0.0600 
    194 H194       -2.5740  -21.7576  -43.0026 H         1 UNK         0.0600 
    195 H195       -1.8727  -23.4450  -45.3534 H         1 UNK         0.3000 
    196 H196       -1.9522  -26.1800  -44.1977 H         1 UNK         0.0600 
    197 H197        0.4185  -26.2464  -44.9420 H         1 UNK         0.0600 
    198 H198        0.1272  -24.8550  -43.9094 H         1 UNK         0.0600 
    199 H199        0.2668  -24.6444  -45.6536 H         1 UNK         0.0600 
    200 H200       -1.7335  -24.4478  -47.3250 H         1 UNK         0.3000 
    201 H201       -1.6853  -26.8025  -48.9649 H         1 UNK         0.0600 
    202 H202       -0.6707  -24.5833  -49.5713 H         1 UNK         0.0600 
    203 H203       -2.2817  -23.8795  -49.6759 H         1 UNK         0.0600 
    204 H204       -1.7911  -25.1438  -50.7972 H         1 UNK         0.0600 
    205 H205       -4.2770  -25.1669  -47.4253 H         1 UNK         0.3000 
    206 H206       -6.4764  -25.2685  -47.4101 H         1 UNK         0.0600 
    207 H207       -6.1748  -27.7529  -47.3452 H         1 UNK         0.0600 
    208 H208       -7.6680  -27.2881  -48.1442 H         1 UNK         0.0600 
    209 H209       -6.2933  -27.8154  -49.1032 H         1 UNK         0.0600 
    210 H210       -5.3839  -23.5120  -49.0582 H         1 UNK         0.3000 
    211 H211       -5.5860  -22.0984  -50.7855 H         1 UNK         0.0600 
    212 H212       -8.5295  -22.9442  -50.6673 H         1 UNK         0.0600 
    213 H213       -7.9165  -21.4869  -51.4336 H         1 UNK         0.0600 
    214 H214       -7.7671  -21.6878  -49.6948 H         1 UNK         0.0600 
    215 H215       -4.2240  -23.8598  -51.8267 H         1 UNK         0.3000 
    216 H216       -5.2164  -25.7238  -53.6312 H         1 UNK         0.0600 
    217 H217       -2.4566  -24.4096  -53.4265 H         1 UNK         0.0600 
    218 H218       -2.7980  -25.8470  -54.3813 H         1 UNK         0.0600 
    219 H219       -2.9943  -25.9000  -52.6413 H         1 UNK         0.0600 
    220 H220       -4.6285  -22.3377  -54.2543 H         1 UNK         0.3000 
    221 H221       -4.8349  -20.9837  -55.9931 H         1 UNK         0.0600 
    222 H222       -6.2674  -23.2118  -57.5293 H         1 UNK         0.0600 
    223 H223       -7.0461  -22.0596  -56.4445 H         1 UNK         0.0600 
    224 H224       -6.2654  -21.4980  -57.9141 H         1 UNK         0.0600 
    225 H225       -2.4869  -21.9371  -55.5281 H         1 UNK         0.3000 
    226 H226       -1.1413  -22.1899  -58.1662 H         1 UNK         0.0600 
    227 H227       -1.2380  -24.4968  -57.2163 H         1 UNK         0.0600 
    228 H228        0.4079  -23.8956  -57.1869 H         1 UNK         0.0600 
    229 H229       -0.5486  -23.9369  -55.7005 H         1 UNK         0.0600 
    230 H230        1.0823  -22.4866  -55.7221 H         1 UNK         0.3000 
    231 H231        1.9279  -19.7354  -55.7150 H         1 UNK         0.0600 
    232 H232        3.5608  -20.5460  -54.0075 H         1 UNK         0.0600 
    233 H233        3.5215  -21.6142  -55.4013 H         1 UNK         0.0600 
    234 H234        2.7150  -22.0852  -53.9047 H         1 UNK         0.0600 
    235 H235       -0.0414  -21.7297  -53.5825 H         1 UNK         0.3000 
    236 H236       -0.7773  -19.4481  -51.8182 H         1 UNK         0.0600 
    237 H237       -2.0342  -21.2262  -50.5885 H         1 UNK         0.0600 
    238 H238       -1.5145  -22.4347  -51.7509 H         1 UNK         0.0600 
    239 H239       -0.3365  -21.6493  -50.7041 H         1 UNK         0.0600 
    240 H240       -2.3934  -18.2007  -52.6810 H         1 UNK         0.3000 
    241 H241       -3.6802  -18.9232  -55.0939 H         1 UNK         0.0600 
    242 H242       -4.8329  -19.6389  -51.8481 H         1 UNK         0.3800 
    243 H243       -6.4601  -20.0301  -52.3585 H         1 UNK         0.3800 
    244 H244       -4.7743  -16.7539  -55.0280 H         1 UNK         0.0800 
    245 H245       -4.4542  -16.5599  -53.3342 H         1 UNK         0.0800 
    246 H246       -3.1329  -14.5391  -53.0188 H         1 UNK         0.0800 
    247 H247       -1.4837  -14.3152  -53.5335 H         1 UNK         0.0800 
@<TRIPOS>BOND
     1    1    2 1    
     2    1  127 1    
     3    1  128 1    
     4    1  129 1    
     5    2    3 2    
     6    2    4 am   BACKBONE|DICT|INTERRES
     7    4    5 1    
     8    4  130 1    
     9    5    6 1    
    10    5   65 1    
    11    5  131 1    
    12    6    7 1    
    13    6  132 1    
    14    6  133 1    
    15    7    8 1    
    16    8    9 1    
    17    8  134 1    
    18    8  135 1    
    19    9   10 ar   
    20    9   14 ar   
    21   10   11 ar   
    22   10  136 1    
    23   11   12 ar   
    24   11  126 1    
    25   12   13 ar   
    26   12  137 1    
    27   13   14 ar   
    28   13   15 1    
    29   14  138 1    
    30   15   16 1    
    31   15  139 1    
    32   15  140 1    
    33   16   17 1    
    34   17   18 1    
    35   17  141 1    
    36   17  142 1    
    37   18   19 1    
    38   18   67 1    
    39   18  143 1    
    40   19   20 am   BACKBONE|DICT|INTERRES
    41   19  144 1    
    42   20   21 2    
    43   20   22 1    
    44   22   23 1    
    45   22   24 1    
    46   22  145 1    
    47   23  146 1    
    48   23  147 1    
    49   23  148 1    
    50   24   25 am   BACKBONE|DICT|INTERRES
    51   24  149 1    
    52   25   26 2    
    53   25   27 1    
    54   27   28 1    
    55   27   29 1    
    56   27  150 1    
    57   28  151 1    
    58   28  152 1    
    59   28  153 1    
    60   29   30 am   BACKBONE|DICT|INTERRES
    61   29  154 1    
    62   30   31 2    
    63   30   32 1    
    64   32   33 1    
    65   32   34 1    
    66   32  155 1    
    67   33  156 1    
    68   33  157 1    
    69   33  158 1    
    70   34   35 am   BACKBONE|DICT|INTERRES
    71   34  159 1    
    72   35   36 2    
    73   35   37 1    
    74   37   38 1    
    75   37   39 1    
    76   37  160 1    
    77   38  161 1    
    78   38  162 1    
    79   38  163 1    
    80   39   40 am   BACKBONE|DICT|INTERRES
    81   39  164 1    
    82   40   41 2    
    83   40   42 1    
    84   42   43 1    
    85   42   44 1    
    86   42  165 1    
    87   43  166 1    
    88   43  167 1    
    89   43  168 1    
    90   44   45 am   BACKBONE|DICT|INTERRES
    91   44  169 1    
    92   45   46 2    
    93   45   47 1    
    94   47   48 1    
    95   47   49 1    
    96   47  170 1    
    97   48  171 1    
    98   48  172 1    
    99   48  173 1    
   100   49   50 am   BACKBONE|DICT|INTERRES
   101   49  174 1    
   102   50   51 2    
   103   50   52 1    
   104   52   53 1    
   105   52   54 1    
   106   52  175 1    
   107   53  176 1    
   108   53  177 1    
   109   53  178 1    
   110   54   55 am   BACKBONE|DICT|INTERRES
   111   54  179 1    
   112   55   56 2    
   113   55   57 1    
   114   57   58 1    
   115   57   59 1    
   116   57  180 1    
   117   58  181 1    
   118   58  182 1    
   119   58  183 1    
   120   59   60 am   BACKBONE|DICT|INTERRES
   121   59  184 1    
   122   60   61 2    
   123   60   62 1    
   124   62   63 1    
   125   62   64 1    
   126   62  185 1    
   127   63  186 1    
   128   63  187 1    
   129   63  188 1    
   130   64   65 am   BACKBONE|DICT|INTERRES
   131   64  189 1    
   132   65   66 2    
   133   67   68 2    
   134   67   69 am   BACKBONE|DICT|INTERRES
   135   69   70 1    
   136   69  190 1    
   137   70   71 1    
   138   70   72 1    
   139   70  191 1    
   140   71  192 1    
   141   71  193 1    
   142   71  194 1    
   143   72   73 2    
   144   72   74 am   BACKBONE|DICT|INTERRES
   145   74   75 1    
   146   74  195 1    
   147   75   76 1    
   148   75   77 1    
   149   75  196 1    
   150   76  197 1    
   151   76  198 1    
   152   76  199 1    
   153   77   78 2    
   154   77   79 am   BACKBONE|DICT|INTERRES
   155   79   80 1    
   156   79  200 1    
   157   80   81 1    
   158   80   82 1    
   159   80  201 1    
   160   81  202 1    
   161   81  203 1    
   162   81  204 1    
   163   82   83 2    
   164   82   84 am   BACKBONE|DICT|INTERRES
   165   84   85 1    
   166   84  205 1    
   167   85   86 1    
   168   85   87 1    
   169   85  206 1    
   170   86  207 1    
   171   86  208 1    
   172   86  209 1    
   173   87   88 2    
   174   87   89 am   BACKBONE|DICT|INTERRES
   175   89   90 1    
   176   89  210 1    
   177   90   91 1    
   178   90   92 1    
   179   90  211 1    
   180   91  212 1    
   181   91  213 1    
   182   91  214 1    
   183   92   93 2    
   184   92   94 am   BACKBONE|DICT|INTERRES
   185   94   95 1    
   186   94  215 1    
   187   95   96 1    
   188   95   97 1    
   189   95  216 1    
   190   96  217 1    
   191   96  218 1    
   192   96  219 1    
   193   97   98 2    
   194   97   99 am   BACKBONE|DICT|INTERRES
   195   99  100 1    
   196   99  220 1    
   197  100  101 1    
   198  100  102 1    
   199  100  221 1    
   200  101  222 1    
   201  101  223 1    
   202  101  224 1    
   203  102  103 2    
   204  102  104 am   BACKBONE|DICT|INTERRES
   205  104  105 1    
   206  104  225 1    
   207  105  106 1    
   208  105  107 1    
   209  105  226 1    
   210  106  227 1    
   211  106  228 1    
   212  106  229 1    
   213  107  108 2    
   214  107  109 am   BACKBONE|DICT|INTERRES
   215  109  110 1    
   216  109  230 1    
   217  110  111 1    
   218  110  112 1    
   219  110  231 1    
   220  111  232 1    
   221  111  233 1    
   222  111  234 1    
   223  112  113 2    
   224  112  114 am   BACKBONE|DICT|INTERRES
   225  114  115 1    
   226  114  235 1    
   227  115  116 1    
   228  115  117 1    
   229  115  236 1    
   230  116  237 1    
   231  116  238 1    
   232  116  239 1    
   233  117  118 2    
   234  117  119 am   BACKBONE|DICT|INTERRES
   235  119  120 1    
   236  119  240 1    
   237  120  121 1    
   238  120  124 1    
   239  120  241 1    
   240  121  122 am   BACKBONE|DICT|INTERRES
   241  121  123 2    
   242  122  242 1    
   243  122  243 1    
   244  124  125 1    
   245  124  244 1    
   246  124  245 1    
   247  125  126 1    
   248  126  246 1    
   249  126  247 1    
@<TRIPOS>SUBSTRUCTURE
     1 UNK         1 GROUP             0       ****    0 ROOT    
