@<TRIPOS>MOLECULE
3R540
247   249    1
SMALL
USER_CHARGES


@<TRIPOS>ATOM
      1 CA          2.6700  -14.3293  -47.9807 C.3       0 UNK        -0.1800 
      2 C           1.5296  -15.3272  -48.1161 C.2       0 UNK         0.5000 
      3 O           1.5866  -16.4000  -47.5203 O.2       0 UNK        -0.5000 
      4 N           0.4936  -14.9730  -48.8860 N.am      1 UNK        -0.5000 
      5 CA         -0.7010  -15.7934  -49.1329 C.3       1 UNK         0.1400 
      6 C6         -1.1257  -15.7881  -50.6265 C.3       23 UNK        -0.0398 
      7 S7          0.1959  -16.3818  -51.7352 S.3       23 UNK        -0.2404 
      8 C8         -0.0683  -18.1821  -51.6520 C.3       23 UNK        -0.0205 
      9 C9          1.2453  -18.9481  -51.6037 C.ar      23 UNK        -0.0193 
     10 C10         1.5564  -19.8960  -52.5839 C.ar      23 UNK        -0.1150 
     11 C11         2.7433  -20.6341  -52.5082 C.ar      23 UNK        -0.0193 
     12 C12         3.6263  -20.4040  -51.4487 C.ar      23 UNK        -0.1150 
     13 C13         3.3351  -19.4474  -50.4733 C.ar      23 UNK        -0.0193 
     14 C14         2.1413  -18.7274  -50.5542 C.ar      23 UNK        -0.1150 
     15 C15         4.3238  -19.1778  -49.3495 C.3       23 UNK        -0.0205 
     16 S16         4.1504  -20.3670  -47.9832 S.3       23 UNK        -0.2404 
     17 C17         2.6030  -19.8034  -47.2034 C.3       23 UNK        -0.0398 
     18 CA          1.5418  -20.9330  -47.1000 C.3       11 UNK         0.1400 
     19 N           1.3326  -21.3432  -45.7070 N.am      11 UNK        -0.5000 
     20 C           0.5876  -22.3807  -45.3026 C.2       10 UNK         0.5000 
     21 O           0.0331  -23.1678  -46.0698 O.2       10 UNK        -0.5000 
     22 CA          0.3849  -22.5266  -43.7816 C.3       10 UNK         0.1400 
     23 CB          1.5912  -23.2118  -43.1226 C.3       10 UNK        -0.1800 
     24 N           0.1309  -21.2388  -43.1311 N.am      10 UNK        -0.5000 
     25 C          -0.9630  -20.4945  -43.3486 C.2       9 UNK         0.5000 
     26 O          -1.9004  -20.8551  -44.0586 O.2       9 UNK        -0.5000 
     27 CA         -0.9998  -19.0947  -42.7107 C.3       9 UNK         0.1400 
     28 CB         -1.4666  -19.1769  -41.2496 C.3       9 UNK        -0.1800 
     29 N           0.2901  -18.4073  -42.7800 N.am      9 UNK        -0.5000 
     30 C           0.9157  -18.0571  -43.9129 C.2       8 UNK         0.5000 
     31 O           0.4438  -18.2457  -45.0297 O.2       8 UNK        -0.5000 
     32 CA          2.3351  -17.4743  -43.7815 C.3       8 UNK         0.1400 
     33 CB          2.3092  -15.9630  -43.5166 C.3       8 UNK        -0.1800 
     34 N           3.1009  -18.1442  -42.7310 N.am      8 UNK        -0.5000 
     35 C           3.5217  -19.4152  -42.7957 C.2       7 UNK         0.5000 
     36 O           3.3277  -20.1519  -43.7624 O.2       7 UNK        -0.5000 
     37 CA          4.2407  -19.9628  -41.5500 C.3       7 UNK         0.1400 
     38 CB          5.7234  -19.5622  -41.5583 C.3       7 UNK        -0.1800 
     39 N           3.6185  -19.5037  -40.3066 N.am      7 UNK        -0.5000 
     40 C           2.4044  -19.8877  -39.8882 C.2       6 UNK         0.5000 
     41 O           1.7037  -20.7048  -40.4869 O.2       6 UNK        -0.5000 
     42 CA          1.8665  -19.2032  -38.6151 C.3       6 UNK         0.1400 
     43 CB          2.3917  -19.9109  -37.3572 C.3       6 UNK        -0.1800 
     44 N           2.1842  -17.7708  -38.5395 N.am      6 UNK        -0.5000 
     45 C           1.7653  -16.8617  -39.4287 C.2       5 UNK         0.5000 
     46 O           1.0875  -17.1486  -40.4191 O.2       5 UNK        -0.5000 
     47 CA          2.1919  -15.4020  -39.2097 C.3       5 UNK         0.1400 
     48 CB          3.7005  -15.2210  -39.4598 C.3       5 UNK        -0.1800 
     49 N           1.4322  -14.5945  -40.1546 N.am      5 UNK        -0.5000 
     50 C           1.2056  -13.2788  -40.1286 C.2       4 UNK         0.5000 
     51 O           1.6524  -12.5227  -39.2653 O.2       4 UNK        -0.5000 
     52 CA          0.3292  -12.7132  -41.2676 C.3       4 UNK         0.1400 
     53 CB          1.2079  -12.0486  -42.3387 C.3       4 UNK        -0.1800 
     54 N          -0.5016  -13.7327  -41.9169 N.am      4 UNK        -0.5000 
     55 C          -1.5921  -14.2981  -41.3866 C.2       3 UNK         0.5000 
     56 O          -2.0730  -13.9549  -40.3055 O.2       3 UNK        -0.5000 
     57 CA         -2.2358  -15.4419  -42.2022 C.3       3 UNK         0.1400 
     58 CB         -3.4498  -16.0695  -41.4939 C.3       3 UNK        -0.1800 
     59 N          -2.6387  -15.0472  -43.5550 N.am      3 UNK        -0.5000 
     60 C          -1.8135  -14.8514  -44.5896 C.2       2 UNK         0.5000 
     61 O          -0.5851  -14.9057  -44.5024 O.2       2 UNK        -0.5000 
     62 CA         -2.4650  -14.5232  -45.9391 C.3       2 UNK         0.1400 
     63 CB         -2.7984  -13.0263  -46.0444 C.3       2 UNK        -0.1800 
     64 N          -1.5335  -14.8915  -46.9987 N.am      2 UNK        -0.5000 
     65 C          -1.8619  -15.3785  -48.2001 C.2       1 UNK         0.5000 
     66 O          -3.0271  -15.5144  -48.5741 O.2       1 UNK        -0.5000 
     67 C           0.2154  -20.5399  -47.7883 C.2       11 UNK         0.5000 
     68 O          -0.0408  -20.9691  -48.9126 O.2       11 UNK        -0.5000 
     69 N          -0.6235  -19.7695  -47.0815 N.am      12 UNK        -0.5000 
     70 CA         -1.9727  -19.3958  -47.4945 C.3       12 UNK         0.1400 
     71 CB         -2.5785  -18.4078  -46.4856 C.3       12 UNK        -0.1800 
     72 C          -2.8804  -20.6218  -47.6669 C.2       12 UNK         0.5000 
     73 O          -3.5008  -20.7604  -48.7192 O.2       12 UNK        -0.5000 
     74 N          -2.9140  -21.5080  -46.6617 N.am      13 UNK        -0.5000 
     75 CA         -3.7020  -22.7440  -46.6578 C.3       13 UNK         0.1400 
     76 CB         -3.5483  -23.4491  -45.3023 C.3       13 UNK        -0.1800 
     77 C          -3.3528  -23.7026  -47.8116 C.2       13 UNK         0.5000 
     78 O          -4.2534  -24.3311  -48.3678 O.2       13 UNK        -0.5000 
     79 N          -2.0689  -23.7482  -48.1924 N.am      14 UNK        -0.5000 
     80 CA         -1.5497  -24.5177  -49.3259 C.3       14 UNK         0.1400 
     81 CB         -0.0145  -24.5417  -49.2514 C.3       14 UNK        -0.1800 
     82 C          -2.0160  -24.0171  -50.7111 C.2       14 UNK         0.5000 
     83 O          -1.8251  -24.7368  -51.6937 O.2       14 UNK        -0.5000 
     84 N          -2.6023  -22.8133  -50.7786 N.am      15 UNK        -0.5000 
     85 CA         -3.0928  -22.1884  -52.0076 C.3       15 UNK         0.1400 
     86 CB         -2.1790  -20.9953  -52.3282 C.3       15 UNK        -0.1800 
     87 C          -4.5645  -21.7399  -51.9147 C.2       15 UNK         0.5000 
     88 O          -5.0606  -21.1135  -52.8553 O.2       15 UNK        -0.5000 
     89 N          -5.2184  -22.0083  -50.7737 N.am      16 UNK        -0.5000 
     90 CA         -6.5371  -21.5100  -50.3600 C.3       16 UNK         0.1400 
     91 CB         -7.6557  -22.1712  -51.1875 C.3       16 UNK        -0.1800 
     92 C          -6.6099  -19.9671  -50.3830 C.2       16 UNK         0.5000 
     93 O          -7.5293  -19.3950  -50.9668 O.2       16 UNK        -0.5000 
     94 N          -5.5857  -19.3225  -49.8063 N.am      17 UNK        -0.5000 
     95 CA         -5.3324  -17.8751  -49.8043 C.3       17 UNK         0.1400 
     96 CB         -6.3892  -17.1305  -48.9642 C.3       17 UNK        -0.1800 
     97 C          -5.1682  -17.3010  -51.2294 C.2       17 UNK         0.5000 
     98 O          -5.5996  -16.1821  -51.5086 O.2       17 UNK        -0.5000 
     99 N          -4.5631  -18.1167  -52.1054 N.am      18 UNK        -0.5000 
    100 CA        -4.3363  -17.9156  -53.5396 C.3       18 UNK         0.1400 
    101 CB        -3.5018  -16.6472  -53.8122 C.3       18 UNK        -0.1800 
    102 C         -5.6103  -17.9911  -54.4085 C.2       18 UNK         0.5000 
    103 O         -5.5276  -17.7077  -55.6042 O.2       18 UNK        -0.5000 
    104 N         -6.7529  -18.4022  -53.8361 N.am      19 UNK        -0.5000 
    105 CA        -8.0104  -18.5706  -54.5689 C.3       19 UNK         0.1400 
    106 CB        -9.1935  -18.5593  -53.5898 C.3       19 UNK        -0.1800 
    107 C         -8.0306  -19.8536  -55.4193 C.2       19 UNK         0.5000 
    108 O         -8.6153  -19.8463  -56.5032 O.2       19 UNK        -0.5000 
    109 N         -7.3939  -20.9240  -54.9231 N.am      20 UNK        -0.5000 
    110 CA        -7.2848  -22.2106  -55.6184 C.3       20 UNK         0.1400 
    111 CB        -7.4017  -23.3480  -54.5914 C.3       20 UNK        -0.1800 
    112 C         -5.9657  -22.3414  -56.4003 C.2       20 UNK         0.5000 
    113 O         -5.8742  -23.2053  -57.2735 O.2       20 UNK        -0.5000 
    114 N         -4.9833  -21.4940  -56.0576 N.am      21 UNK        -0.5000 
    115 CA        -3.5696  -21.5201  -56.4466 C.3       21 UNK         0.1400 
    116 CB        -3.3786  -21.5699  -57.9760 C.3       21 UNK        -0.1800 
    117 C         -2.7959  -22.6429  -55.7266 C.2       21 UNK         0.5000 
    118 O         -3.3925  -23.6046  -55.2388 O.2       21 UNK        -0.5000 
    119 N         -1.4749  -22.4536  -55.6282 N.am      22 UNK        -0.5000 
    120 CA        -0.5274  -23.2823  -54.8646 C.3       22 UNK         0.1400 
    121 C         -0.5745  -24.7954  -55.2239 C.2       22 UNK         0.5000 
    122 N         -0.8788  -25.6617  -54.2667 N.am      22 UNK        -0.7600 
    123 O         -0.3094  -25.1848  -56.3591 O.2       22 UNK        -0.5000 
    124 C124        0.9071  -22.7099  -55.0002 C.3       23 UNK        -0.0398 
    125 S125        1.9696  -23.0943  -53.5677 S.3       23 UNK        -0.2404 
    126 C126        3.0966  -21.6614  -53.5760 C.3       23 UNK        -0.0205 
    127 H127        3.5993  -14.7735  -48.3373 H         1 UNK         0.0600 
    128 H128        2.8021  -14.0526  -46.9346 H         1 UNK         0.0600 
    129 H129        2.4847  -13.4203  -48.5535 H         1 UNK         0.0600 
    130 H130        0.5008  -14.0700  -49.3390 H         1 UNK         0.3000 
    131 H131       -0.4808  -16.8304  -48.8718 H         1 UNK         0.0600 
    132 H132       -1.4030  -14.7801  -50.9390 H         1 UNK         0.0800 
    133 H133       -2.0106  -16.4069  -50.7863 H         1 UNK         0.0800 
    134 H134       -0.6677  -18.4838  -52.5118 H         1 UNK         0.0800 
    135 H135       -0.6431  -18.4452  -50.7633 H         1 UNK         0.0800 
    136 H136        0.8686  -20.0672  -53.3982 H         1 UNK         0.1150 
    137 H137        4.5493  -20.9632  -51.3844 H         1 UNK         0.1150 
    138 H138        1.9053  -17.9866  -49.8037 H         1 UNK         0.1150 
    139 H139        5.3408  -19.2393  -49.7397 H         1 UNK         0.0800 
    140 H140        4.2080  -18.1611  -48.9698 H         1 UNK         0.0800 
    141 H141        2.2252  -18.9326  -47.7375 H         1 UNK         0.0800 
    142 H142        2.8631  -19.4164  -46.2201 H         1 UNK         0.0800 
    143 H143        1.9026  -21.8173  -47.6299 H         1 UNK         0.0600 
    144 H144        1.7871  -20.7767  -44.9993 H         1 UNK         0.3000 
    145 H145       -0.4898  -23.1606  -43.6226 H         1 UNK         0.0600 
    146 H146        1.4252  -23.3592  -42.0552 H         1 UNK         0.0600 
    147 H147        2.5045  -22.6288  -43.2400 H         1 UNK         0.0600 
    148 H148        1.7698  -24.1931  -43.5638 H         1 UNK         0.0600 
    149 H149        0.8405  -20.8927  -42.4961 H         1 UNK         0.3000 
    150 H150       -1.7224  -18.4945  -43.2670 H         1 UNK         0.0600 
    151 H151       -2.4745  -19.5887  -41.1869 H         1 UNK         0.0600 
    152 H152       -1.4856  -18.1946  -40.7793 H         1 UNK         0.0600 
    153 H153       -0.8153  -19.8145  -40.6525 H         1 UNK         0.0600 
    154 H154        0.7221  -18.1632  -41.8921 H         1 UNK         0.3000 
    155 H155        2.8555  -17.6320  -44.7278 H         1 UNK         0.0600 
    156 H156        1.9513  -15.4300  -44.3977 H         1 UNK         0.0600 
    157 H157        3.3035  -15.5770  -43.2922 H         1 UNK         0.0600 
    158 H158        1.6513  -15.7082  -42.6880 H         1 UNK         0.0600 
    159 H159        3.2603  -17.6249  -41.8819 H         1 UNK         0.3000 
    160 H160        4.1810  -21.0530  -41.5825 H         1 UNK         0.0600 
    161 H161        5.8511  -18.4803  -41.5034 H         1 UNK         0.0600 
    162 H162        6.2143  -19.9051  -42.4701 H         1 UNK         0.0600 
    163 H163        6.2560  -20.0063  -40.7171 H         1 UNK         0.0600 
    164 H164        4.1309  -18.8315  -39.7551 H         1 UNK         0.3000 
    165 H165        0.7788  -19.3002  -38.6288 H         1 UNK         0.0600 
    166 H166        1.9403  -19.4977  -36.4550 H         1 UNK         0.0600 
    167 H167        2.1532  -20.9752  -37.3798 H         1 UNK         0.0600 
    168 H168        3.4744  -19.8188  -37.2642 H         1 UNK         0.0600 
    169 H169        2.7408  -17.4715  -37.7517 H         1 UNK         0.3000 
    170 H170        1.9365  -15.1083  -38.1898 H         1 UNK         0.0600 
    171 H171        3.9774  -15.5126  -40.4737 H         1 UNK         0.0600 
    172 H172        4.0030  -14.1833  -39.3187 H         1 UNK         0.0600 
    173 H173        4.2917  -15.8233  -38.7693 H         1 UNK         0.0600 
    174 H174        0.9721  -15.1517  -40.8631 H         1 UNK         0.3000 
    175 H175       -0.3253  -11.9527  -40.8368 H         1 UNK         0.0600 
    176 H176        1.8762  -12.7686  -42.8131 H         1 UNK         0.0600 
    177 H177        0.5998  -11.5911  -43.1193 H         1 UNK         0.0600 
    178 H178        1.8262  -11.2615  -41.9052 H         1 UNK         0.0600 
    179 H179       -0.2121  -14.0510  -42.8382 H         1 UNK         0.3000 
    180 H180       -1.4719  -16.2155  -42.2894 H         1 UNK         0.0600 
    181 H181       -4.2718  -15.3591  -41.3989 H         1 UNK         0.0600 
    182 H182       -3.1899  -16.4066  -40.4897 H         1 UNK         0.0600 
    183 H183       -3.8176  -16.9390  -42.0392 H         1 UNK         0.0600 
    184 H184       -3.6315  -14.9335  -43.7000 H         1 UNK         0.3000 
    185 H185       -3.3807  -15.1117  -46.0289 H         1 UNK         0.0600 
    186 H186       -1.9040  -12.4089  -45.9511 H         1 UNK         0.0600 
    187 H187       -3.2669  -12.7942  -47.0010 H         1 UNK         0.0600 
    188 H188       -3.4927  -12.7217  -45.2605 H         1 UNK         0.0600 
    189 H189       -0.5604  -14.8844  -46.7179 H         1 UNK         0.3000 
    190 H190       -0.2958  -19.3806  -46.1984 H         1 UNK         0.3000 
    191 H191       -1.8929  -18.8943  -48.4607 H         1 UNK         0.0600 
    192 H192       -1.8934  -17.5882  -46.2761 H         1 UNK         0.0600 
    193 H193       -2.8138  -18.8833  -45.5343 H         1 UNK         0.0600 
    194 H194       -3.5029  -17.9757  -46.8703 H         1 UNK         0.0600 
    195 H195       -2.3947  -21.3027  -45.8109 H         1 UNK         0.3000 
    196 H196       -4.7499  -22.4609  -46.7753 H         1 UNK         0.0600 
    197 H197       -3.8841  -22.8103  -44.4854 H         1 UNK         0.0600 
    198 H198       -2.5113  -23.7236  -45.1078 H         1 UNK         0.0600 
    199 H199       -4.1431  -24.3626  -45.2660 H         1 UNK         0.0600 
    200 H200       -1.3875  -23.2252  -47.6526 H         1 UNK         0.3000 
    201 H201       -1.9082  -25.5436  -49.2214 H         1 UNK         0.0600 
    202 H202        0.3292  -24.9542  -48.3027 H         1 UNK         0.0600 
    203 H203        0.4092  -23.5429  -49.3556 H         1 UNK         0.0600 
    204 H204        0.4075  -25.1589  -50.0455 H         1 UNK         0.0600 
    205 H205       -2.6831  -22.2605  -49.9323 H         1 UNK         0.3000 
    206 H206       -3.0467  -22.9001  -52.8286 H         1 UNK         0.0600 
    207 H207       -1.1303  -21.2925  -52.3359 H         1 UNK         0.0600 
    208 H208       -2.2899  -20.2020  -51.5886 H         1 UNK         0.0600 
    209 H209       -2.4020  -20.5786  -53.3095 H         1 UNK         0.0600 
    210 H210       -4.7186  -22.5328  -50.0690 H         1 UNK         0.3000 
    211 H211       -6.6681  -21.8125  -49.3201 H         1 UNK         0.0600 
    212 H212       -7.6560  -21.8146  -52.2158 H         1 UNK         0.0600 
    213 H213       -8.6356  -21.9428  -50.7671 H         1 UNK         0.0600 
    214 H214       -7.5514  -23.2559  -51.2041 H         1 UNK         0.0600 
    215 H215       -4.8537  -19.8944  -49.3845 H         1 UNK         0.3000 
    216 H216       -4.3683  -17.7400  -49.3134 H         1 UNK         0.0600 
    217 H217       -6.1209  -16.0800  -48.8460 H         1 UNK         0.0600 
    218 H218       -6.4692  -17.5578  -47.9648 H         1 UNK         0.0600 
    219 H219       -7.3757  -17.1675  -49.4270 H         1 UNK         0.0600 
    220 H220       -4.3259  -19.0391  -51.7708 H         1 UNK         0.3000 
    221 H221       -3.7309  -18.7630  -53.8589 H         1 UNK         0.0600 
    222 H222       -4.0570  -15.7363  -53.5889 H         1 UNK         0.0600 
    223 H223       -2.5888  -16.6403  -53.2183 H         1 UNK         0.0600 
    224 H224       -3.2017  -16.5936  -54.8593 H         1 UNK         0.0600 
    225 H225       -6.7659  -18.6325  -52.8494 H         1 UNK         0.3000 
    226 H226       -8.1317  -17.7197  -55.2428 H         1 UNK         0.0600 
    227 H227       -9.1650  -17.6837  -52.9410 H         1 UNK         0.0600 
    228 H228      -10.1411  -18.5356  -54.1292 H         1 UNK         0.0600 
    229 H229       -9.2043  -19.4477  -52.9578 H         1 UNK         0.0600 
    230 H230       -6.9089  -20.8438  -54.0370 H         1 UNK         0.3000 
    231 H231       -8.1032  -22.3220  -56.3327 H         1 UNK         0.0600 
    232 H232       -7.3610  -24.3214  -55.0817 H         1 UNK         0.0600 
    233 H233       -8.3474  -23.2982  -54.0519 H         1 UNK         0.0600 
    234 H234       -6.5907  -23.3177  -53.8628 H         1 UNK         0.0600 
    235 H235       -5.1948  -20.8719  -55.2909 H         1 UNK         0.3000 
    236 H236       -3.1621  -20.5714  -56.0936 H         1 UNK         0.0600 
    237 H237       -3.6361  -22.5447  -58.3904 H         1 UNK         0.0600 
    238 H238       -3.9893  -20.8180  -58.4759 H         1 UNK         0.0600 
    239 H239       -2.3400  -21.3740  -58.2440 H         1 UNK         0.0600 
    240 H240       -1.0728  -21.6549  -56.0956 H         1 UNK         0.3000 
    241 H241       -0.8282  -23.1789  -53.8214 H         1 UNK         0.0600 
    242 H242       -0.9062  -26.6454  -54.4813 H         1 UNK         0.3800 
    243 H243       -1.1509  -25.3448  -53.3379 H         1 UNK         0.3800 
    244 H244        0.8606  -21.6250  -55.0930 H         1 UNK         0.0800 
    245 H245        1.3938  -23.0585  -55.9131 H         1 UNK         0.0800 
    246 H246        3.1068  -21.1817  -54.5555 H         1 UNK         0.0800 
    247 H247        4.1106  -22.0331  -53.4205 H         1 UNK         0.0800 
@<TRIPOS>BOND
     1    1    2 1    
     2    1  127 1    
     3    1  128 1    
     4    1  129 1    
     5    2    3 2    
     6    2    4 am   BACKBONE|DICT|INTERRES
     7    4    5 1    
     8    4  130 1    
     9    5    6 1    
    10    5   65 1    
    11    5  131 1    
    12    6    7 1    
    13    6  132 1    
    14    6  133 1    
    15    7    8 1    
    16    8    9 1    
    17    8  134 1    
    18    8  135 1    
    19    9   10 ar   
    20    9   14 ar   
    21   10   11 ar   
    22   10  136 1    
    23   11   12 ar   
    24   11  126 1    
    25   12   13 ar   
    26   12  137 1    
    27   13   14 ar   
    28   13   15 1    
    29   14  138 1    
    30   15   16 1    
    31   15  139 1    
    32   15  140 1    
    33   16   17 1    
    34   17   18 1    
    35   17  141 1    
    36   17  142 1    
    37   18   19 1    
    38   18   67 1    
    39   18  143 1    
    40   19   20 am   BACKBONE|DICT|INTERRES
    41   19  144 1    
    42   20   21 2    
    43   20   22 1    
    44   22   23 1    
    45   22   24 1    
    46   22  145 1    
    47   23  146 1    
    48   23  147 1    
    49   23  148 1    
    50   24   25 am   BACKBONE|DICT|INTERRES
    51   24  149 1    
    52   25   26 2    
    53   25   27 1    
    54   27   28 1    
    55   27   29 1    
    56   27  150 1    
    57   28  151 1    
    58   28  152 1    
    59   28  153 1    
    60   29   30 am   BACKBONE|DICT|INTERRES
    61   29  154 1    
    62   30   31 2    
    63   30   32 1    
    64   32   33 1    
    65   32   34 1    
    66   32  155 1    
    67   33  156 1    
    68   33  157 1    
    69   33  158 1    
    70   34   35 am   BACKBONE|DICT|INTERRES
    71   34  159 1    
    72   35   36 2    
    73   35   37 1    
    74   37   38 1    
    75   37   39 1    
    76   37  160 1    
    77   38  161 1    
    78   38  162 1    
    79   38  163 1    
    80   39   40 am   BACKBONE|DICT|INTERRES
    81   39  164 1    
    82   40   41 2    
    83   40   42 1    
    84   42   43 1    
    85   42   44 1    
    86   42  165 1    
    87   43  166 1    
    88   43  167 1    
    89   43  168 1    
    90   44   45 am   BACKBONE|DICT|INTERRES
    91   44  169 1    
    92   45   46 2    
    93   45   47 1    
    94   47   48 1    
    95   47   49 1    
    96   47  170 1    
    97   48  171 1    
    98   48  172 1    
    99   48  173 1    
   100   49   50 am   BACKBONE|DICT|INTERRES
   101   49  174 1    
   102   50   51 2    
   103   50   52 1    
   104   52   53 1    
   105   52   54 1    
   106   52  175 1    
   107   53  176 1    
   108   53  177 1    
   109   53  178 1    
   110   54   55 am   BACKBONE|DICT|INTERRES
   111   54  179 1    
   112   55   56 2    
   113   55   57 1    
   114   57   58 1    
   115   57   59 1    
   116   57  180 1    
   117   58  181 1    
   118   58  182 1    
   119   58  183 1    
   120   59   60 am   BACKBONE|DICT|INTERRES
   121   59  184 1    
   122   60   61 2    
   123   60   62 1    
   124   62   63 1    
   125   62   64 1    
   126   62  185 1    
   127   63  186 1    
   128   63  187 1    
   129   63  188 1    
   130   64   65 am   BACKBONE|DICT|INTERRES
   131   64  189 1    
   132   65   66 2    
   133   67   68 2    
   134   67   69 am   BACKBONE|DICT|INTERRES
   135   69   70 1    
   136   69  190 1    
   137   70   71 1    
   138   70   72 1    
   139   70  191 1    
   140   71  192 1    
   141   71  193 1    
   142   71  194 1    
   143   72   73 2    
   144   72   74 am   BACKBONE|DICT|INTERRES
   145   74   75 1    
   146   74  195 1    
   147   75   76 1    
   148   75   77 1    
   149   75  196 1    
   150   76  197 1    
   151   76  198 1    
   152   76  199 1    
   153   77   78 2    
   154   77   79 am   BACKBONE|DICT|INTERRES
   155   79   80 1    
   156   79  200 1    
   157   80   81 1    
   158   80   82 1    
   159   80  201 1    
   160   81  202 1    
   161   81  203 1    
   162   81  204 1    
   163   82   83 2    
   164   82   84 am   BACKBONE|DICT|INTERRES
   165   84   85 1    
   166   84  205 1    
   167   85   86 1    
   168   85   87 1    
   169   85  206 1    
   170   86  207 1    
   171   86  208 1    
   172   86  209 1    
   173   87   88 2    
   174   87   89 am   BACKBONE|DICT|INTERRES
   175   89   90 1    
   176   89  210 1    
   177   90   91 1    
   178   90   92 1    
   179   90  211 1    
   180   91  212 1    
   181   91  213 1    
   182   91  214 1    
   183   92   93 2    
   184   92   94 am   BACKBONE|DICT|INTERRES
   185   94   95 1    
   186   94  215 1    
   187   95   96 1    
   188   95   97 1    
   189   95  216 1    
   190   96  217 1    
   191   96  218 1    
   192   96  219 1    
   193   97   98 2    
   194   97   99 am   BACKBONE|DICT|INTERRES
   195   99  100 1    
   196   99  220 1    
   197  100  101 1    
   198  100  102 1    
   199  100  221 1    
   200  101  222 1    
   201  101  223 1    
   202  101  224 1    
   203  102  103 2    
   204  102  104 am   BACKBONE|DICT|INTERRES
   205  104  105 1    
   206  104  225 1    
   207  105  106 1    
   208  105  107 1    
   209  105  226 1    
   210  106  227 1    
   211  106  228 1    
   212  106  229 1    
   213  107  108 2    
   214  107  109 am   BACKBONE|DICT|INTERRES
   215  109  110 1    
   216  109  230 1    
   217  110  111 1    
   218  110  112 1    
   219  110  231 1    
   220  111  232 1    
   221  111  233 1    
   222  111  234 1    
   223  112  113 2    
   224  112  114 am   BACKBONE|DICT|INTERRES
   225  114  115 1    
   226  114  235 1    
   227  115  116 1    
   228  115  117 1    
   229  115  236 1    
   230  116  237 1    
   231  116  238 1    
   232  116  239 1    
   233  117  118 2    
   234  117  119 am   BACKBONE|DICT|INTERRES
   235  119  120 1    
   236  119  240 1    
   237  120  121 1    
   238  120  124 1    
   239  120  241 1    
   240  121  122 am   BACKBONE|DICT|INTERRES
   241  121  123 2    
   242  122  242 1    
   243  122  243 1    
   244  124  125 1    
   245  124  244 1    
   246  124  245 1    
   247  125  126 1    
   248  126  246 1    
   249  126  247 1    
@<TRIPOS>SUBSTRUCTURE
     1 UNK         1 GROUP             0       ****    0 ROOT    
