@<TRIPOS>MOLECULE
3R540
247   249    1
SMALL
USER_CHARGES


@<TRIPOS>ATOM
      1 CA         -5.4995  -16.9790  -48.5012 C.3       0 UNK        -0.1800 
      2 C          -4.4852  -15.9032  -48.1446 C.2       0 UNK         0.5000 
      3 O          -4.8467  -14.8922  -47.5430 O.2       0 UNK        -0.5000 
      4 N          -3.2093  -16.1289  -48.4797 N.am      1 UNK        -0.5000 
      5 CA         -2.0669  -15.2356  -48.2331 C.3       1 UNK         0.1400 
      6 C6         -0.8941  -15.5473  -49.1984 C.3       23 UNK        -0.0398 
      7 S7         -1.3323  -15.3022  -50.9509 S.3       23 UNK        -0.2404 
      8 C8          0.3203  -15.2902  -51.7115 C.3       23 UNK        -0.0205 
      9 C9          0.8875  -16.6939  -51.8664 C.ar      23 UNK        -0.0193 
     10 C10         0.6543  -17.4089  -53.0444 C.ar      23 UNK        -0.1150 
     11 C11         1.1974  -18.6836  -53.2202 C.ar      23 UNK        -0.0193 
     12 C12         1.9872  -19.2382  -52.2103 C.ar      23 UNK        -0.1150 
     13 C13         2.2289  -18.5373  -51.0245 C.ar      23 UNK        -0.0193 
     14 C14         1.6721  -17.2645  -50.8572 C.ar      23 UNK        -0.1150 
     15 C15         3.1456  -19.1321  -49.9618 C.3       23 UNK        -0.0205 
     16 S16         2.5673  -20.7543  -49.3622 S.3       23 UNK        -0.2404 
     17 C17         2.0689  -20.3709  -47.6514 C.3       23 UNK        -0.0398 
     18 CA          1.1348  -21.4559  -47.0592 C.3       11 UNK         0.1400 
     19 N           1.1996  -21.5094  -45.5953 N.am      11 UNK        -0.5000 
     20 C           0.6159  -22.4480  -44.8344 C.2       10 UNK         0.5000 
     21 O           0.0035  -23.4133  -45.2887 O.2       10 UNK        -0.5000 
     22 CA          0.6681  -22.2438  -43.3088 C.3       10 UNK         0.1400 
     23 CB          2.0196  -22.6926  -42.7356 C.3       10 UNK        -0.1800 
     24 N           0.3923  -20.8581  -42.9259 N.am      10 UNK        -0.5000 
     25 C          -0.7761  -20.2402  -43.1502 C.2       9 UNK         0.5000 
     26 O          -1.7597  -20.8011  -43.6324 O.2       9 UNK        -0.5000 
     27 CA         -0.8518  -18.7369  -42.8301 C.3       9 UNK         0.1400 
     28 CB         -1.2437  -18.5102  -41.3638 C.3       9 UNK        -0.1800 
     29 N           0.3885  -18.0186  -43.1336 N.am      9 UNK        -0.5000 
     30 C           0.9067  -17.8860  -44.3636 C.2       8 UNK         0.5000 
     31 O           0.3630  -18.3169  -45.3811 O.2       8 UNK        -0.5000 
     32 CA          2.2966  -17.2273  -44.4603 C.3       8 UNK         0.1400 
     33 CB          2.2422  -15.7177  -44.1853 C.3       8 UNK        -0.1800 
     34 N           3.2608  -17.8413  -43.5476 N.am      8 UNK        -0.5000 
     35 C           3.6981  -19.1040  -43.6426 C.2       7 UNK         0.5000 
     36 O           3.3549  -19.8786  -44.5339 O.2       7 UNK        -0.5000 
     37 CA          4.6550  -19.5981  -42.5408 C.3       7 UNK         0.1400 
     38 CB          6.1129  -19.3170  -42.9332 C.3       7 UNK        -0.1800 
     39 N           4.3947  -19.0287  -41.2152 N.am      7 UNK        -0.5000 
     40 C           3.2438  -19.1304  -40.5359 C.2       6 UNK         0.5000 
     41 O           2.2352  -19.6759  -40.9883 O.2       6 UNK        -0.5000 
     42 CA          3.1917  -18.5078  -39.1306 C.3       6 UNK         0.1400 
     43 CB          4.4245  -17.6562  -38.7568 C.3       6 UNK        -0.1800 
     44 N           1.9875  -17.6942  -39.0473 N.am      6 UNK        -0.5000 
     45 C           1.2744  -17.4341  -37.9505 C.2       5 UNK         0.5000 
     46 O           1.5642  -17.8596  -36.8306 O.2       5 UNK        -0.5000 
     47 CA          0.0472  -16.5174  -38.1525 C.3       5 UNK         0.1400 
     48 CB         -0.7112  -16.2407  -36.8418 C.3       5 UNK        -0.1800 
     49 N           0.4098  -15.2354  -38.7651 N.am      5 UNK        -0.5000 
     50 C           0.6981  -15.0362  -40.0566 C.2       4 UNK         0.5000 
     51 O           0.7041  -15.9316  -40.9080 O.2       4 UNK        -0.5000 
     52 CA          1.0943  -13.6118  -40.4570 C.3       4 UNK         0.1400 
     53 CB          2.6186  -13.4258  -40.3660 C.3       4 UNK        -0.1800 
     54 N           0.6475  -13.3865  -41.8241 N.am      4 UNK        -0.5000 
     55 C           0.3506  -12.2024  -42.3689 C.2       3 UNK         0.5000 
     56 O           0.4711  -11.1289  -41.7770 O.2       3 UNK        -0.5000 
     57 CA         -0.1726  -12.2119  -43.8197 C.3       3 UNK         0.1400 
     58 CB          0.9575  -11.8583  -44.7987 C.3       3 UNK        -0.1800 
     59 N          -0.7635  -13.4880  -44.2299 N.am      3 UNK        -0.5000 
     60 C          -1.9048  -14.0078  -43.7628 C.2       2 UNK         0.5000 
     61 O          -2.6106  -13.4540  -42.9185 O.2       2 UNK        -0.5000 
     62 CA         -2.3186  -15.3665  -44.3631 C.3       2 UNK         0.1400 
     63 CB         -3.5704  -15.9628  -43.6962 C.3       2 UNK        -0.1800 
     64 N          -2.5468  -15.2838  -45.8058 N.am      2 UNK        -0.5000 
     65 C          -1.6023  -15.2508  -46.7540 C.2       1 UNK         0.5000 
     66 O          -0.4003  -15.2381  -46.4869 O.2       1 UNK        -0.5000 
     67 C          -0.3139  -21.2857  -47.5577 C.2       11 UNK         0.5000 
     68 O          -0.7401  -22.0225  -48.4468 O.2       11 UNK        -0.5000 
     69 N          -1.0564  -20.3570  -46.9363 N.am      12 UNK        -0.5000 
     70 CA         -2.4701  -20.0985  -47.2103 C.3       12 UNK         0.1400 
     71 CB         -2.9523  -18.9193  -46.3554 C.3       12 UNK        -0.1800 
     72 C          -3.3639  -21.3308  -46.9895 C.2       12 UNK         0.5000 
     73 O          -4.2241  -21.6071  -47.8233 O.2       12 UNK        -0.5000 
     74 N          -3.1212  -22.0595  -45.8916 N.am      13 UNK        -0.5000 
     75 CA         -3.7950  -23.3135  -45.5641 C.3       13 UNK         0.1400 
     76 CB         -3.4703  -23.7083  -44.1152 C.3       13 UNK        -0.1800 
     77 C          -3.4335  -24.4477  -46.5397 C.2       13 UNK         0.5000 
     78 O          -4.3333  -25.1265  -47.0359 O.2       13 UNK        -0.5000 
     79 N          -2.1325  -24.6209  -46.8162 N.am      14 UNK        -0.5000 
     80 CA         -1.5969  -25.6505  -47.7111 C.3       14 UNK         0.1400 
     81 CB         -0.0625  -25.6503  -47.6378 C.3       14 UNK        -0.1800 
     82 C          -2.0666  -25.4969  -49.1686 C.2       14 UNK         0.5000 
     83 O          -2.3905  -26.4960  -49.8113 O.2       14 UNK        -0.5000 
     84 N          -2.1262  -24.2494  -49.6496 N.am      15 UNK        -0.5000 
     85 CA         -2.6003  -23.8885  -50.9854 C.3       15 UNK         0.1400 
     86 CB         -1.7953  -22.6799  -51.4840 C.3       15 UNK        -0.1800 
     87 C          -4.1185  -23.6149  -51.0348 C.2       15 UNK         0.5000 
     88 O          -4.5963  -23.0956  -52.0452 O.2       15 UNK        -0.5000 
     89 N          -4.8465  -23.9441  -49.9561 N.am      16 UNK        -0.5000 
     90 CA         -6.2961  -23.8471  -49.7334 C.3       16 UNK         0.1400 
     91 CB         -7.0679  -24.7531  -50.7120 C.3       16 UNK        -0.1800 
     92 C          -6.8629  -22.4131  -49.7356 C.2       16 UNK         0.5000 
     93 O          -7.5174  -22.0160  -48.7704 O.2       16 UNK        -0.5000 
     94 N          -6.6142  -21.6771  -50.8208 N.am      17 UNK        -0.5000 
     95 CA         -6.9887  -20.2790  -51.0238 C.3       17 UNK         0.1400 
     96 CB         -8.1592  -20.2182  -52.0188 C.3       17 UNK        -0.1800 
     97 C          -5.8035  -19.4279  -51.5179 C.2       17 UNK         0.5000 
     98 O          -5.9252  -18.2028  -51.5350 O.2       17 UNK        -0.5000 
     99 N          -4.6893  -20.0738  -51.9014 N.am      18 UNK        -0.5000 
    100 CA        -3.4700  -19.4822  -52.4611 C.3       18 UNK         0.1400 
    101 CB        -2.7486  -18.6280  -51.3981 C.3       18 UNK        -0.1800 
    102 C         -3.6993  -18.7377  -53.7953 C.2       18 UNK         0.5000 
    103 O         -4.7429  -18.9081  -54.4318 O.2       18 UNK        -0.5000 
    104 N         -2.6901  -17.9666  -54.2248 N.am      19 UNK        -0.5000 
    105 CA        -2.6259  -17.2212  -55.4858 C.3       19 UNK         0.1400 
    106 CB        -3.5951  -16.0188  -55.4512 C.3       19 UNK        -0.1800 
    107 C         -2.8191  -18.1564  -56.6975 C.2       19 UNK         0.5000 
    108 O         -1.9298  -18.9583  -56.9822 O.2       19 UNK        -0.5000 
    109 N         -3.9802  -18.0777  -57.3606 N.am      20 UNK        -0.5000 
    110 CA        -4.3714  -18.9487  -58.4706 C.3       20 UNK         0.1400 
    111 CB        -5.6754  -18.4202  -59.0867 C.3       20 UNK        -0.1800 
    112 C         -4.5258  -20.4304  -58.0704 C.2       20 UNK         0.5000 
    113 O         -4.2891  -21.3069  -58.9036 O.2       20 UNK        -0.5000 
    114 N         -4.8805  -20.6959  -56.8033 N.am      21 UNK        -0.5000 
    115 CA        -5.0317  -22.0473  -56.2548 C.3       21 UNK         0.1400 
    116 CB        -5.8377  -21.9876  -54.9497 C.3       21 UNK        -0.1800 
    117 C         -3.6916  -22.7837  -56.0493 C.2       21 UNK         0.5000 
    118 O         -3.7034  -23.9990  -55.8498 O.2       21 UNK        -0.5000 
    119 N         -2.5651  -22.0612  -56.1386 N.am      22 UNK        -0.5000 
    120 CA        -1.2130  -22.6394  -56.1945 C.3       22 UNK         0.1400 
    121 C         -0.8995  -23.3894  -57.5256 C.2       22 UNK         0.5000 
    122 N         -1.6821  -23.2319  -58.5887 N.am      22 UNK        -0.7600 
    123 O          0.0744  -24.1342  -57.5932 O.2       22 UNK        -0.5000 
    124 C124       -0.1126  -21.5858  -55.9134 C.3       23 UNK        -0.0398 
    125 S125       -0.2943  -20.7414  -54.3086 S.3       23 UNK        -0.2404 
    126 C126        0.9679  -19.4504  -54.5117 C.3       23 UNK        -0.0205 
    127 H127       -6.0647  -17.2726  -47.6168 H         1 UNK         0.0600 
    128 H128       -6.2003  -16.6010  -49.2454 H         1 UNK         0.0600 
    129 H129       -5.0176  -17.8696  -48.9052 H         1 UNK         0.0600 
    130 H130       -2.9813  -16.9773  -48.9751 H         1 UNK         0.3000 
    131 H131       -2.3920  -14.2124  -48.4324 H         1 UNK         0.0600 
    132 H132       -0.5479  -16.5731  -49.0600 H         1 UNK         0.0800 
    133 H133       -0.0416  -14.9003  -48.9836 H         1 UNK         0.0800 
    134 H134        0.2467  -14.8143  -52.6905 H         1 UNK         0.0800 
    135 H135        0.9992  -14.6665  -51.1281 H         1 UNK         0.0800 
    136 H136        0.0654  -16.9615  -53.8313 H         1 UNK         0.1150 
    137 H137        2.4220  -20.2180  -52.3510 H         1 UNK         0.1150 
    138 H138        1.8672  -16.7069  -49.9521 H         1 UNK         0.1150 
    139 H139        4.1376  -19.2602  -50.3971 H         1 UNK         0.0800 
    140 H140        3.2721  -18.4440  -49.1247 H         1 UNK         0.0800 
    141 H141        1.6148  -19.3792  -47.6018 H         1 UNK         0.0800 
    142 H142        2.9893  -20.3108  -47.0706 H         1 UNK         0.0800 
    143 H143        1.4841  -22.4305  -47.4072 H         1 UNK         0.0600 
    144 H144        1.7265  -20.7701  -45.1400 H         1 UNK         0.3000 
    145 H145       -0.1088  -22.8685  -42.8630 H         1 UNK         0.0600 
    146 H146        2.0643  -22.5386  -41.6573 H         1 UNK         0.0600 
    147 H147        2.1843  -23.7546  -42.9212 H         1 UNK         0.0600 
    148 H148        2.8493  -22.1521  -43.1879 H         1 UNK         0.0600 
    149 H149        1.1351  -20.3467  -42.4582 H         1 UNK         0.3000 
    150 H150       -1.6414  -18.3179  -43.4549 H         1 UNK         0.0600 
    151 H151       -2.1406  -19.0748  -41.1058 H         1 UNK         0.0600 
    152 H152       -1.4620  -17.4593  -41.1757 H         1 UNK         0.0600 
    153 H153       -0.4509  -18.8215  -40.6830 H         1 UNK         0.0600 
    154 H154        0.8816  -17.6204  -42.3456 H         1 UNK         0.3000 
    155 H155        2.6569  -17.3706  -45.4814 H         1 UNK         0.0600 
    156 H156        1.5321  -15.2222  -44.8434 H         1 UNK         0.0600 
    157 H157        3.2134  -15.2534  -44.3568 H         1 UNK         0.0600 
    158 H158        1.9513  -15.5039  -43.1591 H         1 UNK         0.0600 
    159 H159        3.5894  -17.2767  -42.7789 H         1 UNK         0.3000 
    160 H160        4.5310  -20.6791  -42.4595 H         1 UNK         0.0600 
    161 H161        6.3457  -19.7493  -43.9074 H         1 UNK         0.0600 
    162 H162        6.8067  -19.7515  -42.2133 H         1 UNK         0.0600 
    163 H163        6.3152  -18.2468  -42.9921 H         1 UNK         0.0600 
    164 H164        5.1687  -18.5545  -40.7733 H         1 UNK         0.3000 
    165 H165        3.1127  -19.3385  -38.4266 H         1 UNK         0.0600 
    166 H166        4.3263  -17.2489  -37.7504 H         1 UNK         0.0600 
    167 H167        5.3387  -18.2509  -38.7666 H         1 UNK         0.0600 
    168 H168        4.5576  -16.8150  -39.4385 H         1 UNK         0.0600 
    169 H169        1.6524  -17.3055  -39.9234 H         1 UNK         0.3000 
    170 H170       -0.6372  -17.0415  -38.8218 H         1 UNK         0.0600 
    171 H171       -1.0396  -17.1703  -36.3753 H         1 UNK         0.0600 
    172 H172       -0.0885  -15.7112  -36.1195 H         1 UNK         0.0600 
    173 H173       -1.6021  -15.6388  -37.0218 H         1 UNK         0.0600 
    174 H174        0.4756  -14.4525  -38.1307 H         1 UNK         0.3000 
    175 H175        0.5950  -12.9067  -39.7891 H         1 UNK         0.0600 
    176 H176        2.9764  -13.6104  -39.3523 H         1 UNK         0.0600 
    177 H177        3.1465  -14.1104  -41.0313 H         1 UNK         0.0600 
    178 H178        2.9098  -12.4098  -40.6328 H         1 UNK         0.0600 
    179 H179        0.4789  -14.2314  -42.3525 H         1 UNK         0.3000 
    180 H180       -0.9448  -11.4435  -43.8944 H         1 UNK         0.0600 
    181 H181        1.7568  -12.6001  -44.7749 H         1 UNK         0.0600 
    182 H182        1.3995  -10.8917  -44.5535 H         1 UNK         0.0600 
    183 H183        0.5882  -11.7955  -45.8225 H         1 UNK         0.0600 
    184 H184       -0.2914  -13.9970  -44.9711 H         1 UNK         0.3000 
    185 H185       -1.4915  -16.0541  -44.1839 H         1 UNK         0.0600 
    186 H186       -3.7997  -16.9494  -44.0990 H         1 UNK         0.0600 
    187 H187       -3.4236  -16.0786  -42.6216 H         1 UNK         0.0600 
    188 H188       -4.4460  -15.3296  -43.8449 H         1 UNK         0.0600 
    189 H189       -3.5114  -15.2126  -46.1128 H         1 UNK         0.3000 
    190 H190       -0.6126  -19.7705  -46.2348 H         1 UNK         0.3000 
    191 H191       -2.5495  -19.8143  -48.2597 H         1 UNK         0.0600 
    192 H192       -2.9583  -19.1628  -45.2943 H         1 UNK         0.0600 
    193 H193       -3.9683  -18.6317  -46.6241 H         1 UNK         0.0600 
    194 H194       -2.3119  -18.0504  -46.4917 H         1 UNK         0.0600 
    195 H195       -2.4301  -21.7246  -45.2264 H         1 UNK         0.3000 
    196 H196       -4.8716  -23.1444  -45.6345 H         1 UNK         0.0600 
    197 H197       -2.4004  -23.8571  -43.9664 H         1 UNK         0.0600 
    198 H198       -3.9736  -24.6360  -43.8405 H         1 UNK         0.0600 
    199 H199       -3.7989  -22.9394  -43.4157 H         1 UNK         0.0600 
    200 H200       -1.4473  -24.0340  -46.3461 H         1 UNK         0.3000 
    201 H201       -1.9527  -26.6179  -47.3507 H         1 UNK         0.0600 
    202 H202        0.2835  -25.8607  -46.6257 H         1 UNK         0.0600 
    203 H203        0.3534  -24.6886  -47.9406 H         1 UNK         0.0600 
    204 H204        0.3618  -26.4135  -48.2913 H         1 UNK         0.0600 
    205 H205       -1.7965  -23.4811  -49.0687 H         1 UNK         0.3000 
    206 H206       -2.4066  -24.7151  -51.6718 H         1 UNK         0.0600 
    207 H207       -2.0162  -21.7826  -50.9050 H         1 UNK         0.0600 
    208 H208       -2.0214  -22.4743  -52.5302 H         1 UNK         0.0600 
    209 H209       -0.7224  -22.8620  -51.4189 H         1 UNK         0.0600 
    210 H210       -4.3356  -24.3057  -49.1607 H         1 UNK         0.3000 
    211 H211       -6.4601  -24.2417  -48.7294 H         1 UNK         0.0600 
    212 H212       -6.9415  -24.4400  -51.7488 H         1 UNK         0.0600 
    213 H213       -8.1368  -24.7373  -50.4955 H         1 UNK         0.0600 
    214 H214       -6.7359  -25.7883  -50.6329 H         1 UNK         0.0600 
    215 H215       -6.0561  -22.1195  -51.5459 H         1 UNK         0.3000 
    216 H216       -7.3122  -19.8384  -50.0785 H         1 UNK         0.0600 
    217 H217       -8.4792  -19.1890  -52.1860 H         1 UNK         0.0600 
    218 H218       -9.0220  -20.7704  -51.6460 H         1 UNK         0.0600 
    219 H219       -7.8841  -20.6385  -52.9865 H         1 UNK         0.0600 
    220 H220       -4.6910  -21.0856  -51.8768 H         1 UNK         0.3000 
    221 H221       -2.8228  -20.3210  -52.7078 H         1 UNK         0.0600 
    222 H222       -3.2791  -17.6959  -51.2025 H         1 UNK         0.0600 
    223 H223       -2.6610  -19.1696  -50.4582 H         1 UNK         0.0600 
    224 H224       -1.7348  -18.3757  -51.7077 H         1 UNK         0.0600 
    225 H225       -1.8566  -17.9308  -53.6567 H         1 UNK         0.3000 
    226 H226       -1.6133  -16.8246  -55.5678 H         1 UNK         0.0600 
    227 H227       -3.3414  -15.3436  -54.6337 H         1 UNK         0.0600 
    228 H228       -3.5373  -15.4401  -56.3740 H         1 UNK         0.0600 
    229 H229       -4.6329  -16.3230  -55.3116 H         1 UNK         0.0600 
    230 H230       -4.6729  -17.4191  -57.0354 H         1 UNK         0.3000 
    231 H231       -3.5882  -18.8949  -59.2297 H         1 UNK         0.0600 
    232 H232       -5.9827  -19.0325  -59.9357 H         1 UNK         0.0600 
    233 H233       -5.5552  -17.3997  -59.4506 H         1 UNK         0.0600 
    234 H234       -6.4927  -18.4264  -58.3644 H         1 UNK         0.0600 
    235 H235       -5.0023  -19.9277  -56.1494 H         1 UNK         0.3000 
    236 H236       -5.6102  -22.6346  -56.9711 H         1 UNK         0.0600 
    237 H237       -6.0591  -22.9897  -54.5804 H         1 UNK         0.0600 
    238 H238       -5.2875  -21.4707  -54.1669 H         1 UNK         0.0600 
    239 H239       -6.7883  -21.4741  -55.0924 H         1 UNK         0.0600 
    240 H240       -2.6278  -21.0667  -56.3116 H         1 UNK         0.3000 
    241 H241       -1.1507  -23.3900  -55.4042 H         1 UNK         0.0600 
    242 H242       -1.4644  -23.7280  -59.4386 H         1 UNK         0.3800 
    243 H243       -2.4885  -22.6221  -58.5604 H         1 UNK         0.3800 
    244 H244       -0.0978  -20.8363  -56.7061 H         1 UNK         0.0800 
    245 H245        0.8722  -22.0566  -55.9226 H         1 UNK         0.0800 
    246 H246        1.9066  -19.9055  -54.8317 H         1 UNK         0.0800 
    247 H247        0.6631  -18.7743  -55.3123 H         1 UNK         0.0800 
@<TRIPOS>BOND
     1    1    2 1    
     2    1  127 1    
     3    1  128 1    
     4    1  129 1    
     5    2    3 2    
     6    2    4 am   BACKBONE|DICT|INTERRES
     7    4    5 1    
     8    4  130 1    
     9    5    6 1    
    10    5   65 1    
    11    5  131 1    
    12    6    7 1    
    13    6  132 1    
    14    6  133 1    
    15    7    8 1    
    16    8    9 1    
    17    8  134 1    
    18    8  135 1    
    19    9   10 ar   
    20    9   14 ar   
    21   10   11 ar   
    22   10  136 1    
    23   11   12 ar   
    24   11  126 1    
    25   12   13 ar   
    26   12  137 1    
    27   13   14 ar   
    28   13   15 1    
    29   14  138 1    
    30   15   16 1    
    31   15  139 1    
    32   15  140 1    
    33   16   17 1    
    34   17   18 1    
    35   17  141 1    
    36   17  142 1    
    37   18   19 1    
    38   18   67 1    
    39   18  143 1    
    40   19   20 am   BACKBONE|DICT|INTERRES
    41   19  144 1    
    42   20   21 2    
    43   20   22 1    
    44   22   23 1    
    45   22   24 1    
    46   22  145 1    
    47   23  146 1    
    48   23  147 1    
    49   23  148 1    
    50   24   25 am   BACKBONE|DICT|INTERRES
    51   24  149 1    
    52   25   26 2    
    53   25   27 1    
    54   27   28 1    
    55   27   29 1    
    56   27  150 1    
    57   28  151 1    
    58   28  152 1    
    59   28  153 1    
    60   29   30 am   BACKBONE|DICT|INTERRES
    61   29  154 1    
    62   30   31 2    
    63   30   32 1    
    64   32   33 1    
    65   32   34 1    
    66   32  155 1    
    67   33  156 1    
    68   33  157 1    
    69   33  158 1    
    70   34   35 am   BACKBONE|DICT|INTERRES
    71   34  159 1    
    72   35   36 2    
    73   35   37 1    
    74   37   38 1    
    75   37   39 1    
    76   37  160 1    
    77   38  161 1    
    78   38  162 1    
    79   38  163 1    
    80   39   40 am   BACKBONE|DICT|INTERRES
    81   39  164 1    
    82   40   41 2    
    83   40   42 1    
    84   42   43 1    
    85   42   44 1    
    86   42  165 1    
    87   43  166 1    
    88   43  167 1    
    89   43  168 1    
    90   44   45 am   BACKBONE|DICT|INTERRES
    91   44  169 1    
    92   45   46 2    
    93   45   47 1    
    94   47   48 1    
    95   47   49 1    
    96   47  170 1    
    97   48  171 1    
    98   48  172 1    
    99   48  173 1    
   100   49   50 am   BACKBONE|DICT|INTERRES
   101   49  174 1    
   102   50   51 2    
   103   50   52 1    
   104   52   53 1    
   105   52   54 1    
   106   52  175 1    
   107   53  176 1    
   108   53  177 1    
   109   53  178 1    
   110   54   55 am   BACKBONE|DICT|INTERRES
   111   54  179 1    
   112   55   56 2    
   113   55   57 1    
   114   57   58 1    
   115   57   59 1    
   116   57  180 1    
   117   58  181 1    
   118   58  182 1    
   119   58  183 1    
   120   59   60 am   BACKBONE|DICT|INTERRES
   121   59  184 1    
   122   60   61 2    
   123   60   62 1    
   124   62   63 1    
   125   62   64 1    
   126   62  185 1    
   127   63  186 1    
   128   63  187 1    
   129   63  188 1    
   130   64   65 am   BACKBONE|DICT|INTERRES
   131   64  189 1    
   132   65   66 2    
   133   67   68 2    
   134   67   69 am   BACKBONE|DICT|INTERRES
   135   69   70 1    
   136   69  190 1    
   137   70   71 1    
   138   70   72 1    
   139   70  191 1    
   140   71  192 1    
   141   71  193 1    
   142   71  194 1    
   143   72   73 2    
   144   72   74 am   BACKBONE|DICT|INTERRES
   145   74   75 1    
   146   74  195 1    
   147   75   76 1    
   148   75   77 1    
   149   75  196 1    
   150   76  197 1    
   151   76  198 1    
   152   76  199 1    
   153   77   78 2    
   154   77   79 am   BACKBONE|DICT|INTERRES
   155   79   80 1    
   156   79  200 1    
   157   80   81 1    
   158   80   82 1    
   159   80  201 1    
   160   81  202 1    
   161   81  203 1    
   162   81  204 1    
   163   82   83 2    
   164   82   84 am   BACKBONE|DICT|INTERRES
   165   84   85 1    
   166   84  205 1    
   167   85   86 1    
   168   85   87 1    
   169   85  206 1    
   170   86  207 1    
   171   86  208 1    
   172   86  209 1    
   173   87   88 2    
   174   87   89 am   BACKBONE|DICT|INTERRES
   175   89   90 1    
   176   89  210 1    
   177   90   91 1    
   178   90   92 1    
   179   90  211 1    
   180   91  212 1    
   181   91  213 1    
   182   91  214 1    
   183   92   93 2    
   184   92   94 am   BACKBONE|DICT|INTERRES
   185   94   95 1    
   186   94  215 1    
   187   95   96 1    
   188   95   97 1    
   189   95  216 1    
   190   96  217 1    
   191   96  218 1    
   192   96  219 1    
   193   97   98 2    
   194   97   99 am   BACKBONE|DICT|INTERRES
   195   99  100 1    
   196   99  220 1    
   197  100  101 1    
   198  100  102 1    
   199  100  221 1    
   200  101  222 1    
   201  101  223 1    
   202  101  224 1    
   203  102  103 2    
   204  102  104 am   BACKBONE|DICT|INTERRES
   205  104  105 1    
   206  104  225 1    
   207  105  106 1    
   208  105  107 1    
   209  105  226 1    
   210  106  227 1    
   211  106  228 1    
   212  106  229 1    
   213  107  108 2    
   214  107  109 am   BACKBONE|DICT|INTERRES
   215  109  110 1    
   216  109  230 1    
   217  110  111 1    
   218  110  112 1    
   219  110  231 1    
   220  111  232 1    
   221  111  233 1    
   222  111  234 1    
   223  112  113 2    
   224  112  114 am   BACKBONE|DICT|INTERRES
   225  114  115 1    
   226  114  235 1    
   227  115  116 1    
   228  115  117 1    
   229  115  236 1    
   230  116  237 1    
   231  116  238 1    
   232  116  239 1    
   233  117  118 2    
   234  117  119 am   BACKBONE|DICT|INTERRES
   235  119  120 1    
   236  119  240 1    
   237  120  121 1    
   238  120  124 1    
   239  120  241 1    
   240  121  122 am   BACKBONE|DICT|INTERRES
   241  121  123 2    
   242  122  242 1    
   243  122  243 1    
   244  124  125 1    
   245  124  244 1    
   246  124  245 1    
   247  125  126 1    
   248  126  246 1    
   249  126  247 1    
@<TRIPOS>SUBSTRUCTURE
     1 UNK         1 GROUP             0       ****    0 ROOT    
