@<TRIPOS>MOLECULE
3R540
247   249    1
SMALL
USER_CHARGES


@<TRIPOS>ATOM
      1 CA          2.3025  -18.2694  -52.5310 C.3       0 UNK        -0.1800 
      2 C           3.0386  -17.6662  -51.3448 C.2       0 UNK         0.5000 
      3 O           3.3861  -18.3867  -50.4104 O.2       0 UNK        -0.5000 
      4 N           3.2964  -16.3523  -51.3796 N.am      1 UNK        -0.5000 
      5 CA          3.8604  -15.5400  -50.2856 C.3       1 UNK         0.1400 
      6 C6          3.7158  -14.0207  -50.5511 C.3       23 UNK        -0.0398 
      7 S7          2.0033  -13.5419  -50.9630 S.3       23 UNK        -0.2404 
      8 C8          1.2691  -13.2592  -49.3141 C.3       23 UNK        -0.0205 
      9 C9         -0.1200  -13.8773  -49.1697 C.ar      23 UNK        -0.0193 
     10 C10        -1.0768  -13.7438  -50.1819 C.ar      23 UNK        -0.1150 
     11 C11        -2.3393  -14.3259  -50.0511 C.ar      23 UNK        -0.0193 
     12 C12        -2.6613  -15.0178  -48.8821 C.ar      23 UNK        -0.1150 
     13 C13        -1.7189  -15.1649  -47.8588 C.ar      23 UNK        -0.0193 
     14 C14        -0.4548  -14.5820  -48.0082 C.ar      23 UNK        -0.1150 
     15 C15        -2.0445  -15.9472  -46.5894 C.3       23 UNK        -0.0205 
     16 S16        -2.9712  -17.4865  -46.9041 S.3       23 UNK        -0.2404 
     17 C17        -2.5873  -18.4770  -45.4221 C.3       23 UNK        -0.0398 
     18 CA         -1.6014  -19.6281  -45.7425 C.3       11 UNK         0.1400 
     19 N          -0.7932  -19.9846  -44.5737 N.am      11 UNK        -0.5000 
     20 C           0.2552  -20.8195  -44.5980 C.2       10 UNK         0.5000 
     21 O           0.6827  -21.3555  -45.6192 O.2       10 UNK        -0.5000 
     22 CA          0.8981  -21.1445  -43.2416 C.3       10 UNK         0.1400 
     23 CB          1.8201  -20.0023  -42.7873 C.3       10 UNK        -0.1800 
     24 N          -0.1155  -21.4087  -42.2188 N.am      10 UNK        -0.5000 
     25 C          -0.9068  -22.4918  -42.2082 C.2       9 UNK         0.5000 
     26 O          -0.8387  -23.3952  -43.0406 O.2       9 UNK        -0.5000 
     27 CA         -1.9863  -22.5569  -41.1123 C.3       9 UNK         0.1400 
     28 CB         -1.3930  -23.0863  -39.7984 C.3       9 UNK        -0.1800 
     29 N          -2.6283  -21.2648  -40.8696 N.am      9 UNK        -0.5000 
     30 C          -3.3698  -20.6006  -41.7678 C.2       8 UNK         0.5000 
     31 O          -3.6185  -21.0209  -42.8959 O.2       8 UNK        -0.5000 
     32 CA         -3.8704  -19.2046  -41.3570 C.3       8 UNK         0.1400 
     33 CB         -5.2248  -19.3053  -40.6405 C.3       8 UNK        -0.1800 
     34 N          -2.9236  -18.4731  -40.5109 N.am      8 UNK        -0.5000 
     35 C          -1.6819  -18.1342  -40.8800 C.2       7 UNK         0.5000 
     36 O          -1.1799  -18.4467  -41.9633 O.2       7 UNK        -0.5000 
     37 CA         -0.8486  -17.3489  -39.8526 C.3       7 UNK         0.1400 
     38 CB          0.3281  -18.1995  -39.3492 C.3       7 UNK        -0.1800 
     39 N          -0.3330  -16.1199  -40.4465 N.am      7 UNK        -0.5000 
     40 C          -1.0823  -15.0586  -40.7767 C.2       6 UNK         0.5000 
     41 O          -2.2695  -14.9398  -40.4701 O.2       6 UNK        -0.5000 
     42 CA         -0.3968  -13.9451  -41.5973 C.3       6 UNK         0.1400 
     43 CB          0.0272  -12.7860  -40.6820 C.3       6 UNK        -0.1800 
     44 N           0.7698  -14.3983  -42.3639 N.am      6 UNK        -0.5000 
     45 C           0.7296  -15.3008  -43.3532 C.2       5 UNK         0.5000 
     46 O          -0.3085  -15.8393  -43.7414 O.2       5 UNK        -0.5000 
     47 CA          2.0722  -15.6749  -43.9984 C.3       5 UNK         0.1400 
     48 CB          3.0880  -16.1886  -42.9584 C.3       5 UNK        -0.1800 
     49 N           1.8443  -16.7106  -45.0004 N.am      5 UNK        -0.5000 
     50 C           2.5903  -16.9079  -46.0892 C.2       4 UNK         0.5000 
     51 O           3.5398  -16.1894  -46.4090 O.2       4 UNK        -0.5000 
     52 CA          2.1869  -18.0957  -46.9803 C.3       4 UNK         0.1400 
     53 CB          1.1609  -17.6602  -48.0395 C.3       4 UNK        -0.1800 
     54 N           3.3457  -18.6892  -47.6451 N.am      4 UNK        -0.5000 
     55 C           4.3051  -19.3930  -47.0268 C.2       3 UNK         0.5000 
     56 O           4.3078  -19.6246  -45.8172 O.2       3 UNK        -0.5000 
     57 CA          5.4502  -19.9423  -47.8953 C.3       3 UNK         0.1400 
     58 CB          5.0493  -21.2820  -48.5342 C.3       3 UNK        -0.1800 
     59 N           5.8268  -19.0051  -48.9531 N.am      3 UNK        -0.5000 
     60 C           7.0363  -18.4448  -49.0983 C.2       2 UNK         0.5000 
     61 O           7.9956  -18.6820  -48.3630 O.2       2 UNK        -0.5000 
     62 CA          7.2136  -17.4460  -50.2629 C.3       2 UNK         0.1400 
     63 CB          7.7990  -18.1545  -51.4940 C.3       2 UNK        -0.1800 
     64 N           5.9592  -16.7960  -50.6418 N.am      2 UNK        -0.5000 
     65 C           5.3114  -15.8981  -49.8877 C.2       1 UNK         0.5000 
     66 O           5.8104  -15.3745  -48.8913 O.2       1 UNK        -0.5000 
     67 C          -2.3115  -20.8538  -46.3655 C.2       11 UNK         0.5000 
     68 O          -2.3888  -20.9623  -47.5913 O.2       11 UNK        -0.5000 
     69 N          -2.7918  -21.7731  -45.5167 N.am      12 UNK        -0.5000 
     70 CA         -3.3721  -23.0505  -45.9216 C.3       12 UNK         0.1400 
     71 CB         -4.0998  -23.6990  -44.7353 C.3       12 UNK        -0.1800 
     72 C          -2.3251  -24.0036  -46.5208 C.2       12 UNK         0.5000 
     73 O          -2.5528  -24.5338  -47.6072 O.2       12 UNK        -0.5000 
     74 N          -1.1851  -24.1743  -45.8342 N.am      13 UNK        -0.5000 
     75 CA         -0.0714  -25.0307  -46.2603 C.3       13 UNK         0.1400 
     76 CB          0.9969  -25.0694  -45.1576 C.3       13 UNK        -0.1800 
     77 C           0.5564  -24.6064  -47.6018 C.2       13 UNK         0.5000 
     78 O           0.9601  -25.4648  -48.3868 O.2       13 UNK        -0.5000 
     79 N           0.5908  -23.2924  -47.8525 N.am      14 UNK        -0.5000 
     80 CA          1.0370  -22.6805  -49.1034 C.3       14 UNK         0.1400 
     81 CB          1.3096  -21.1987  -48.8264 C.3       14 UNK        -0.1800 
     82 C           0.0289  -22.8137  -50.2632 C.2       14 UNK         0.5000 
     83 O           0.3724  -22.4580  -51.3900 O.2       14 UNK        -0.5000 
     84 N          -1.1993  -23.2672  -49.9658 N.am      15 UNK        -0.5000 
     85 CA         -2.3693  -23.3849  -50.8469 C.3       15 UNK         0.1400 
     86 CB         -2.0604  -24.2337  -52.0955 C.3       15 UNK        -0.1800 
     87 C          -3.0269  -22.0362  -51.2084 C.2       15 UNK         0.5000 
     88 O          -4.0563  -22.0295  -51.8875 O.2       15 UNK        -0.5000 
     89 N          -2.4627  -20.9273  -50.7118 N.am      16 UNK        -0.5000 
     90 CA         -2.9343  -19.5555  -50.8877 C.3       16 UNK         0.1400 
     91 CB         -1.9336  -18.5956  -50.2267 C.3       16 UNK        -0.1800 
     92 C          -4.3636  -19.3497  -50.3608 C.2       16 UNK         0.5000 
     93 O          -5.1827  -18.7536  -51.0607 O.2       16 UNK        -0.5000 
     94 N          -4.6480  -19.9067  -49.1759 N.am      17 UNK        -0.5000 
     95 CA         -5.9913  -19.9533  -48.6022 C.3       17 UNK         0.1400 
     96 CB         -5.9141  -19.8687  -47.0693 C.3       17 UNK        -0.1800 
     97 C          -6.7500  -21.2222  -49.0238 C.2       17 UNK         0.5000 
     98 O          -7.9207  -21.1286  -49.3910 O.2       17 UNK        -0.5000 
     99 N          -6.0874  -22.3864  -48.9373 N.am      18 UNK        -0.5000 
    100 CA        -6.7341  -23.7008  -49.0306 C.3       18 UNK         0.1400 
    101 CB        -5.7842  -24.7937  -48.5199 C.3       18 UNK        -0.1800 
    102 C         -7.2619  -24.0555  -50.4309 C.2       18 UNK         0.5000 
    103 O         -8.3516  -24.6201  -50.5344 O.2       18 UNK        -0.5000 
    104 N         -6.4961  -23.7155  -51.4751 N.am      19 UNK        -0.5000 
    105 CA        -6.8823  -23.9180  -52.8750 C.3       19 UNK         0.1400 
    106 CB        -5.6848  -24.4978  -53.6452 C.3       19 UNK        -0.1800 
    107 C         -7.3557  -22.6075  -53.5288 C.2       19 UNK         0.5000 
    108 O         -7.7369  -22.6271  -54.6998 O.2       19 UNK        -0.5000 
    109 N         -7.2958  -21.4967  -52.7766 N.am      20 UNK        -0.5000 
    110 CA        -7.5345  -20.1174  -53.2075 C.3       20 UNK         0.1400 
    111 CB        -9.0167  -19.9025  -53.5780 C.3       20 UNK        -0.1800 
    112 C         -6.5586  -19.6847  -54.3225 C.2       20 UNK         0.5000 
    113 O         -6.9593  -18.9910  -55.2599 O.2       20 UNK        -0.5000 
    114 N         -5.2889  -20.1109  -54.2084 N.am      21 UNK        -0.5000 
    115 CA        -4.2398  -19.9187  -55.2177 C.3       21 UNK         0.1400 
    116 CB        -2.9925  -20.7253  -54.8227 C.3       21 UNK        -0.1800 
    117 C         -3.8829  -18.4458  -55.5134 C.2       21 UNK         0.5000 
    118 O         -3.2847  -18.1712  -56.5546 O.2       21 UNK        -0.5000 
    119 N         -4.2831  -17.5264  -54.6257 N.am      22 UNK        -0.5000 
    120 CA        -4.2641  -16.0725  -54.8570 C.3       22 UNK         0.1400 
    121 C         -5.2922  -15.5767  -55.9192 C.2       22 UNK         0.5000 
    122 N         -6.2917  -16.3600  -56.3101 N.am      22 UNK        -0.7600 
    123 O         -5.1763  -14.4541  -56.4033 O.2       22 UNK        -0.5000 
    124 C124       -4.4406  -15.2795  -53.5383 C.3       23 UNK        -0.0398 
    125 S125       -3.1248  -15.6332  -52.3319 S.3       23 UNK        -0.2404 
    126 C126       -3.3423  -14.2378  -51.1872 C.3       23 UNK        -0.0205 
    127 H127        1.3871  -18.7552  -52.1926 H         1 UNK         0.0600 
    128 H128        2.9266  -19.0185  -53.0178 H         1 UNK         0.0600 
    129 H129        2.0343  -17.5133  -53.2692 H         1 UNK         0.0600 
    130 H130        2.9903  -15.8200  -52.1819 H         1 UNK         0.3000 
    131 H131        3.2687  -15.7610  -49.3976 H         1 UNK         0.0600 
    132 H132        4.0480  -13.4376  -49.6902 H         1 UNK         0.0800 
    133 H133        4.3554  -13.7218  -51.3833 H         1 UNK         0.0800 
    134 H134        1.9335  -13.6586  -48.5462 H         1 UNK         0.0800 
    135 H135        1.2003  -12.1856  -49.1356 H         1 UNK         0.0800 
    136 H136       -0.8325  -13.2057  -51.0869 H         1 UNK         0.1150 
    137 H137       -3.6393  -15.4671  -48.7839 H         1 UNK         0.1150 
    138 H138        0.2762  -14.6865  -47.2185 H         1 UNK         0.1150 
    139 H139       -1.1162  -16.2069  -46.0844 H         1 UNK         0.0800 
    140 H140       -2.6095  -15.3140  -45.9046 H         1 UNK         0.0800 
    141 H141       -3.5154  -18.8551  -44.9897 H         1 UNK         0.0800 
    142 H142       -2.1656  -17.8127  -44.6656 H         1 UNK         0.0800 
    143 H143       -0.8923  -19.2713  -46.4913 H         1 UNK         0.0600 
    144 H144       -1.0634  -19.5749  -43.6848 H         1 UNK         0.3000 
    145 H145        1.5058  -22.0436  -43.3634 H         1 UNK         0.0600 
    146 H146        2.3057  -20.2390  -41.8406 H         1 UNK         0.0600 
    147 H147        2.6076  -19.8242  -43.5210 H         1 UNK         0.0600 
    148 H148        1.2774  -19.0658  -42.6615 H         1 UNK         0.0600 
    149 H149       -0.2789  -20.6784  -41.5414 H         1 UNK         0.3000 
    150 H150       -2.7556  -23.2565  -41.4459 H         1 UNK         0.0600 
    151 H151       -0.6363  -22.4118  -39.3955 H         1 UNK         0.0600 
    152 H152       -0.9208  -24.0583  -39.9476 H         1 UNK         0.0600 
    153 H153       -2.1660  -23.2152  -39.0405 H         1 UNK         0.0600 
    154 H154       -2.4743  -20.8400  -39.9674 H         1 UNK         0.3000 
    155 H155       -4.0105  -18.6257  -42.2723 H         1 UNK         0.0600 
    156 H156       -5.1433  -19.8471  -39.6974 H         1 UNK         0.0600 
    157 H157       -5.9551  -19.8296  -41.2585 H         1 UNK         0.0600 
    158 H158       -5.6326  -18.3171  -40.4268 H         1 UNK         0.0600 
    159 H159       -3.2640  -18.1781  -39.6070 H         1 UNK         0.3000 
    160 H160       -1.4762  -17.0871  -38.9981 H         1 UNK         0.0600 
    161 H161        1.0108  -18.4654  -40.1571 H         1 UNK         0.0600 
    162 H162       -0.0248  -19.1277  -38.8980 H         1 UNK         0.0600 
    163 H163        0.9012  -17.6674  -38.5897 H         1 UNK         0.0600 
    164 H164        0.6227  -16.1414  -40.7667 H         1 UNK         0.3000 
    165 H165       -1.1348  -13.5671  -42.3080 H         1 UNK         0.0600 
    166 H166        0.4319  -11.9543  -41.2590 H         1 UNK         0.0600 
    167 H167       -0.8234  -12.4030  -40.1164 H         1 UNK         0.0600 
    168 H168        0.7855  -13.0983  -39.9628 H         1 UNK         0.0600 
    169 H169        1.6581  -13.9948  -42.1039 H         1 UNK         0.3000 
    170 H170        2.4642  -14.7772  -44.4810 H         1 UNK         0.0600 
    171 H171        2.6979  -17.0418  -42.4027 H         1 UNK         0.0600 
    172 H172        4.0171  -16.5013  -43.4354 H         1 UNK         0.0600 
    173 H173        3.3478  -15.4147  -42.2358 H         1 UNK         0.0600 
    174 H174        1.0134  -17.2637  -44.8363 H         1 UNK         0.3000 
    175 H175        1.7337  -18.8689  -46.3580 H         1 UNK         0.0600 
    176 H176        1.4728  -16.7624  -48.5696 H         1 UNK         0.0600 
    177 H177        0.9889  -18.4327  -48.7860 H         1 UNK         0.0600 
    178 H178        0.1994  -17.4443  -47.5797 H         1 UNK         0.0600 
    179 H179        3.3976  -18.5550  -48.6519 H         1 UNK         0.3000 
    180 H180        6.2945  -20.1272  -47.2280 H         1 UNK         0.0600 
    181 H181        4.2529  -21.1552  -49.2681 H         1 UNK         0.0600 
    182 H182        4.6966  -21.9883  -47.7814 H         1 UNK         0.0600 
    183 H183        5.8974  -21.7421  -49.0412 H         1 UNK         0.0600 
    184 H184        5.0868  -18.7391  -49.5954 H         1 UNK         0.3000 
    185 H185        7.9197  -16.6779  -49.9403 H         1 UNK         0.0600 
    186 H186        8.7507  -18.6305  -51.2543 H         1 UNK         0.0600 
    187 H187        7.1293  -18.9298  -51.8686 H         1 UNK         0.0600 
    188 H188        7.9844  -17.4492  -52.3043 H         1 UNK         0.0600 
    189 H189        5.4780  -17.1694  -51.4469 H         1 UNK         0.3000 
    190 H190       -2.7780  -21.5786  -44.5195 H         1 UNK         0.3000 
    191 H191       -4.1138  -22.8473  -46.6950 H         1 UNK         0.0600 
    192 H192       -4.9084  -23.0621  -44.3761 H         1 UNK         0.0600 
    193 H193       -4.5411  -24.6545  -45.0211 H         1 UNK         0.0600 
    194 H194       -3.4256  -23.8849  -43.8992 H         1 UNK         0.0600 
    195 H195       -1.0811  -23.7215  -44.9301 H         1 UNK         0.3000 
    196 H196       -0.4647  -26.0411  -46.3889 H         1 UNK         0.0600 
    197 H197        1.8352  -25.7052  -45.4452 H         1 UNK         0.0600 
    198 H198        0.5903  -25.4697  -44.2288 H         1 UNK         0.0600 
    199 H199        1.3936  -24.0752  -44.9492 H         1 UNK         0.0600 
    200 H200        0.3111  -22.6540  -47.1137 H         1 UNK         0.3000 
    201 H201        1.9700  -23.1549  -49.4139 H         1 UNK         0.0600 
    202 H202        2.0368  -21.0858  -48.0244 H         1 UNK         0.0600 
    203 H203        0.3995  -20.6792  -48.5242 H         1 UNK         0.0600 
    204 H204        1.7087  -20.6928  -49.7067 H         1 UNK         0.0600 
    205 H205       -1.3763  -23.5400  -49.0050 H         1 UNK         0.3000 
    206 H206       -3.1113  -23.9295  -50.2653 H         1 UNK         0.0600 
    207 H207       -1.5436  -25.1558  -51.8296 H         1 UNK         0.0600 
    208 H208       -2.9772  -24.5175  -52.6089 H         1 UNK         0.0600 
    209 H209       -1.4428  -23.6946  -52.8142 H         1 UNK         0.0600 
    210 H210       -1.6611  -21.0476  -50.1111 H         1 UNK         0.3000 
    211 H211       -2.9528  -19.3333  -51.9546 H         1 UNK         0.0600 
    212 H212       -1.7357  -18.8672  -49.1906 H         1 UNK         0.0600 
    213 H213       -0.9806  -18.5957  -50.7559 H         1 UNK         0.0600 
    214 H214       -2.3057  -17.5715  -50.2295 H         1 UNK         0.0600 
    215 H215       -3.8935  -20.3485  -48.6584 H         1 UNK         0.3000 
    216 H216       -6.5675  -19.0918  -48.9473 H         1 UNK         0.0600 
    217 H217       -6.9070  -19.9453  -46.6242 H         1 UNK         0.0600 
    218 H218       -5.4965  -18.9158  -46.7493 H         1 UNK         0.0600 
    219 H219       -5.3050  -20.6653  -46.6440 H         1 UNK         0.0600 
    220 H220       -5.1191  -22.3729  -48.6586 H         1 UNK         0.3000 
    221 H221       -7.5977  -23.6852  -48.3618 H         1 UNK         0.0600 
    222 H222       -4.8664  -24.8408  -49.1037 H         1 UNK         0.0600 
    223 H223       -5.5167  -24.6309  -47.4768 H         1 UNK         0.0600 
    224 H224       -6.2546  -25.7763  -48.5770 H         1 UNK         0.0600 
    225 H225       -5.6198  -23.2279  -51.3247 H         1 UNK         0.3000 
    226 H226       -7.7037  -24.6334  -52.9483 H         1 UNK         0.0600 
    227 H227       -5.2883  -25.3860  -53.1534 H         1 UNK         0.0600 
    228 H228       -5.9771  -24.7899  -54.6545 H         1 UNK         0.0600 
    229 H229       -4.8784  -23.7709  -53.7415 H         1 UNK         0.0600 
    230 H230       -6.9891  -21.6053  -51.8208 H         1 UNK         0.3000 
    231 H231       -7.3227  -19.4838  -52.3466 H         1 UNK         0.0600 
    232 H232       -9.2970  -20.4535  -54.4760 H         1 UNK         0.0600 
    233 H233       -9.2219  -18.8480  -53.7657 H         1 UNK         0.0600 
    234 H234       -9.6742  -20.2211  -52.7692 H         1 UNK         0.0600 
    235 H235       -5.0402  -20.6772  -53.4060 H         1 UNK         0.3000 
    236 H236       -4.6211  -20.3387  -56.1507 H         1 UNK         0.0600 
    237 H237       -3.2349  -21.7756  -54.6584 H         1 UNK         0.0600 
    238 H238       -2.2396  -20.6872  -55.6108 H         1 UNK         0.0600 
    239 H239       -2.5290  -20.3424  -53.9153 H         1 UNK         0.0600 
    240 H240       -4.7521  -17.8398  -53.7884 H         1 UNK         0.3000 
    241 H241       -3.2799  -15.8236  -55.2587 H         1 UNK         0.0600 
    242 H242       -6.4234  -17.2896  -55.9197 H         1 UNK         0.3800 
    243 H243       -6.9415  -16.0197  -57.0008 H         1 UNK         0.3800 
    244 H244       -5.4050  -15.5049  -53.0798 H         1 UNK         0.0800 
    245 H245       -4.4352  -14.2061  -53.7374 H         1 UNK         0.0800 
    246 H246       -4.3600  -14.2425  -50.7938 H         1 UNK         0.0800 
    247 H247       -3.2182  -13.2967  -51.7252 H         1 UNK         0.0800 
@<TRIPOS>BOND
     1    1    2 1    
     2    1  127 1    
     3    1  128 1    
     4    1  129 1    
     5    2    3 2    
     6    2    4 am   BACKBONE|DICT|INTERRES
     7    4    5 1    
     8    4  130 1    
     9    5    6 1    
    10    5   65 1    
    11    5  131 1    
    12    6    7 1    
    13    6  132 1    
    14    6  133 1    
    15    7    8 1    
    16    8    9 1    
    17    8  134 1    
    18    8  135 1    
    19    9   10 ar   
    20    9   14 ar   
    21   10   11 ar   
    22   10  136 1    
    23   11   12 ar   
    24   11  126 1    
    25   12   13 ar   
    26   12  137 1    
    27   13   14 ar   
    28   13   15 1    
    29   14  138 1    
    30   15   16 1    
    31   15  139 1    
    32   15  140 1    
    33   16   17 1    
    34   17   18 1    
    35   17  141 1    
    36   17  142 1    
    37   18   19 1    
    38   18   67 1    
    39   18  143 1    
    40   19   20 am   BACKBONE|DICT|INTERRES
    41   19  144 1    
    42   20   21 2    
    43   20   22 1    
    44   22   23 1    
    45   22   24 1    
    46   22  145 1    
    47   23  146 1    
    48   23  147 1    
    49   23  148 1    
    50   24   25 am   BACKBONE|DICT|INTERRES
    51   24  149 1    
    52   25   26 2    
    53   25   27 1    
    54   27   28 1    
    55   27   29 1    
    56   27  150 1    
    57   28  151 1    
    58   28  152 1    
    59   28  153 1    
    60   29   30 am   BACKBONE|DICT|INTERRES
    61   29  154 1    
    62   30   31 2    
    63   30   32 1    
    64   32   33 1    
    65   32   34 1    
    66   32  155 1    
    67   33  156 1    
    68   33  157 1    
    69   33  158 1    
    70   34   35 am   BACKBONE|DICT|INTERRES
    71   34  159 1    
    72   35   36 2    
    73   35   37 1    
    74   37   38 1    
    75   37   39 1    
    76   37  160 1    
    77   38  161 1    
    78   38  162 1    
    79   38  163 1    
    80   39   40 am   BACKBONE|DICT|INTERRES
    81   39  164 1    
    82   40   41 2    
    83   40   42 1    
    84   42   43 1    
    85   42   44 1    
    86   42  165 1    
    87   43  166 1    
    88   43  167 1    
    89   43  168 1    
    90   44   45 am   BACKBONE|DICT|INTERRES
    91   44  169 1    
    92   45   46 2    
    93   45   47 1    
    94   47   48 1    
    95   47   49 1    
    96   47  170 1    
    97   48  171 1    
    98   48  172 1    
    99   48  173 1    
   100   49   50 am   BACKBONE|DICT|INTERRES
   101   49  174 1    
   102   50   51 2    
   103   50   52 1    
   104   52   53 1    
   105   52   54 1    
   106   52  175 1    
   107   53  176 1    
   108   53  177 1    
   109   53  178 1    
   110   54   55 am   BACKBONE|DICT|INTERRES
   111   54  179 1    
   112   55   56 2    
   113   55   57 1    
   114   57   58 1    
   115   57   59 1    
   116   57  180 1    
   117   58  181 1    
   118   58  182 1    
   119   58  183 1    
   120   59   60 am   BACKBONE|DICT|INTERRES
   121   59  184 1    
   122   60   61 2    
   123   60   62 1    
   124   62   63 1    
   125   62   64 1    
   126   62  185 1    
   127   63  186 1    
   128   63  187 1    
   129   63  188 1    
   130   64   65 am   BACKBONE|DICT|INTERRES
   131   64  189 1    
   132   65   66 2    
   133   67   68 2    
   134   67   69 am   BACKBONE|DICT|INTERRES
   135   69   70 1    
   136   69  190 1    
   137   70   71 1    
   138   70   72 1    
   139   70  191 1    
   140   71  192 1    
   141   71  193 1    
   142   71  194 1    
   143   72   73 2    
   144   72   74 am   BACKBONE|DICT|INTERRES
   145   74   75 1    
   146   74  195 1    
   147   75   76 1    
   148   75   77 1    
   149   75  196 1    
   150   76  197 1    
   151   76  198 1    
   152   76  199 1    
   153   77   78 2    
   154   77   79 am   BACKBONE|DICT|INTERRES
   155   79   80 1    
   156   79  200 1    
   157   80   81 1    
   158   80   82 1    
   159   80  201 1    
   160   81  202 1    
   161   81  203 1    
   162   81  204 1    
   163   82   83 2    
   164   82   84 am   BACKBONE|DICT|INTERRES
   165   84   85 1    
   166   84  205 1    
   167   85   86 1    
   168   85   87 1    
   169   85  206 1    
   170   86  207 1    
   171   86  208 1    
   172   86  209 1    
   173   87   88 2    
   174   87   89 am   BACKBONE|DICT|INTERRES
   175   89   90 1    
   176   89  210 1    
   177   90   91 1    
   178   90   92 1    
   179   90  211 1    
   180   91  212 1    
   181   91  213 1    
   182   91  214 1    
   183   92   93 2    
   184   92   94 am   BACKBONE|DICT|INTERRES
   185   94   95 1    
   186   94  215 1    
   187   95   96 1    
   188   95   97 1    
   189   95  216 1    
   190   96  217 1    
   191   96  218 1    
   192   96  219 1    
   193   97   98 2    
   194   97   99 am   BACKBONE|DICT|INTERRES
   195   99  100 1    
   196   99  220 1    
   197  100  101 1    
   198  100  102 1    
   199  100  221 1    
   200  101  222 1    
   201  101  223 1    
   202  101  224 1    
   203  102  103 2    
   204  102  104 am   BACKBONE|DICT|INTERRES
   205  104  105 1    
   206  104  225 1    
   207  105  106 1    
   208  105  107 1    
   209  105  226 1    
   210  106  227 1    
   211  106  228 1    
   212  106  229 1    
   213  107  108 2    
   214  107  109 am   BACKBONE|DICT|INTERRES
   215  109  110 1    
   216  109  230 1    
   217  110  111 1    
   218  110  112 1    
   219  110  231 1    
   220  111  232 1    
   221  111  233 1    
   222  111  234 1    
   223  112  113 2    
   224  112  114 am   BACKBONE|DICT|INTERRES
   225  114  115 1    
   226  114  235 1    
   227  115  116 1    
   228  115  117 1    
   229  115  236 1    
   230  116  237 1    
   231  116  238 1    
   232  116  239 1    
   233  117  118 2    
   234  117  119 am   BACKBONE|DICT|INTERRES
   235  119  120 1    
   236  119  240 1    
   237  120  121 1    
   238  120  124 1    
   239  120  241 1    
   240  121  122 am   BACKBONE|DICT|INTERRES
   241  121  123 2    
   242  122  242 1    
   243  122  243 1    
   244  124  125 1    
   245  124  244 1    
   246  124  245 1    
   247  125  126 1    
   248  126  246 1    
   249  126  247 1    
@<TRIPOS>SUBSTRUCTURE
     1 UNK         1 GROUP             0       ****    0 ROOT    
