@<TRIPOS>MOLECULE
3R540
247   249    1
SMALL
USER_CHARGES


@<TRIPOS>ATOM
      1 CA          6.1484  -11.5179  -48.4485 C.3       0 UNK        -0.1800 
      2 C           5.2358  -12.2390  -47.4677 C.2       0 UNK         0.5000 
      3 O           5.0621  -11.7779  -46.3403 O.2       0 UNK        -0.5000 
      4 N           4.6383  -13.3591  -47.8956 N.am      1 UNK        -0.5000 
      5 CA          3.7259  -14.2009  -47.1066 C.3       1 UNK         0.1400 
      6 C6          3.3567  -15.5075  -47.8593 C.3       23 UNK        -0.0398 
      7 S7          2.5338  -15.2025  -49.4666 S.3       23 UNK        -0.2404 
      8 C8          3.1581  -16.5531  -50.5173 C.3       23 UNK        -0.0205 
      9 C9          2.2678  -17.7893  -50.4837 C.ar      23 UNK        -0.0193 
     10 C10         0.9106  -17.6888  -50.8080 C.ar      23 UNK        -0.1150 
     11 C11         0.0991  -18.8253  -50.8548 C.ar      23 UNK        -0.0193 
     12 C12         0.6576  -20.0753  -50.5711 C.ar      23 UNK        -0.1150 
     13 C13         2.0173  -20.1964  -50.2629 C.ar      23 UNK        -0.0193 
     14 C14         2.8146  -19.0475  -50.2137 C.ar      23 UNK        -0.1150 
     15 C15         2.6297  -21.5788  -50.0573 C.3       23 UNK        -0.0205 
     16 S16         3.5648  -21.7634  -48.4996 S.3       23 UNK        -0.2404 
     17 C17         2.3332  -21.2996  -47.2377 C.3       23 UNK        -0.0398 
     18 CA          1.5457  -22.4884  -46.6353 C.3       11 UNK         0.1400 
     19 N           0.8363  -22.0851  -45.4193 N.am      11 UNK        -0.5000 
     20 C           0.1299  -22.8964  -44.6202 C.2       10 UNK         0.5000 
     21 O           0.0504  -24.1154  -44.7753 O.2       10 UNK        -0.5000 
     22 CA         -0.6592  -22.2220  -43.4830 C.3       10 UNK         0.1400 
     23 CB          0.2610  -21.9038  -42.2955 C.3       10 UNK        -0.1800 
     24 N          -1.3466  -21.0031  -43.9182 N.am      10 UNK        -0.5000 
     25 C          -2.3340  -20.9749  -44.8259 C.2       9 UNK         0.5000 
     26 O          -2.7957  -21.9832  -45.3573 O.2       9 UNK        -0.5000 
     27 CA         -2.8712  -19.5928  -45.2439 C.3       9 UNK         0.1400 
     28 CB         -3.8463  -19.0400  -44.1942 C.3       9 UNK        -0.1800 
     29 N          -1.8087  -18.6182  -45.4875 N.am      9 UNK        -0.5000 
     30 C          -0.8623  -18.7440  -46.4289 C.2       8 UNK         0.5000 
     31 O          -0.7914  -19.6908  -47.2092 O.2       8 UNK        -0.5000 
     32 CA          0.2334  -17.6653  -46.4468 C.3       8 UNK         0.1400 
     33 CB         -0.2796  -16.3754  -47.1083 C.3       8 UNK        -0.1800 
     34 N           0.7306  -17.3820  -45.0972 N.am      8 UNK        -0.5000 
     35 C           1.3614  -18.2780  -44.3216 C.2       7 UNK         0.5000 
     36 O           1.6456  -19.4174  -44.6859 O.2       7 UNK        -0.5000 
     37 CA          1.6873  -17.8528  -42.8813 C.3       7 UNK         0.1400 
     38 CB          2.9837  -17.0294  -42.8424 C.3       7 UNK        -0.1800 
     39 N           0.5951  -17.0927  -42.2765 N.am      7 UNK        -0.5000 
     40 C          -0.5967  -17.6086  -41.9389 C.2       6 UNK         0.5000 
     41 O          -0.8741  -18.8023  -42.0473 O.2       6 UNK        -0.5000 
     42 CA         -1.6789  -16.6240  -41.4455 C.3       6 UNK         0.1400 
     43 CB         -1.5969  -16.4534  -39.9218 C.3       6 UNK        -0.1800 
     44 N          -1.5891  -15.3088  -42.0829 N.am      6 UNK        -0.5000 
     45 C          -1.6895  -15.0977  -43.4016 C.2       5 UNK         0.5000 
     46 O          -2.0324  -15.9733  -44.1965 O.2       5 UNK        -0.5000 
     47 CA         -1.2899  -13.7088  -43.9433 C.3       5 UNK         0.1400 
     48 CB         -2.5390  -12.9092  -44.3415 C.3       5 UNK        -0.1800 
     49 N          -0.4471  -12.8699  -43.0774 N.am      5 UNK        -0.5000 
     50 C           0.7150  -13.2101  -42.4991 C.2       4 UNK         0.5000 
     51 O           1.1683  -14.3528  -42.4774 O.2       4 UNK        -0.5000 
     52 CA          1.5345  -12.0539  -41.9163 C.3       4 UNK         0.1400 
     53 CB          2.7050  -12.5193  -41.0304 C.3       4 UNK        -0.1800 
     54 N           2.0474  -11.3135  -43.0582 N.am      4 UNK        -0.5000 
     55 C           2.1567   -9.9849  -43.1524 C.2       3 UNK         0.5000 
     56 O           1.9373   -9.2100  -42.2207 O.2       3 UNK        -0.5000 
     57 CA          2.5539   -9.4258  -44.5339 C.3       3 UNK         0.1400 
     58 CB          4.0532   -9.0946  -44.5696 C.3       3 UNK        -0.1800 
     59 N           2.2305  -10.3373  -45.6382 N.am      3 UNK        -0.5000 
     60 C           0.9818  -10.6384  -46.0305 C.2       2 UNK         0.5000 
     61 O          -0.0244  -10.1450  -45.5203 O.2       2 UNK        -0.5000 
     62 CA          0.8109  -11.6641  -47.1680 C.3       2 UNK         0.1400 
     63 CB          0.4095  -10.9600  -48.4729 C.3       2 UNK        -0.1800 
     64 N           1.9995  -12.4770  -47.4223 N.am      2 UNK        -0.5000 
     65 C           2.4627  -13.4490  -46.6240 C.2       1 UNK         0.5000 
     66 O           1.9496  -13.7460  -45.5465 O.2       1 UNK        -0.5000 
     67 C           0.5795  -23.1141  -47.6605 C.2       11 UNK         0.5000 
     68 O           0.8342  -24.2149  -48.1492 O.2       11 UNK        -0.5000 
     69 N          -0.5303  -22.4184  -47.9371 N.am      12 UNK        -0.5000 
     70 CA         -1.5805  -22.8604  -48.8475 C.3       12 UNK         0.1400 
     71 CB         -2.5945  -21.7335  -49.0360 C.3       12 UNK        -0.1800 
     72 C          -2.2835  -24.1452  -48.3856 C.2       12 UNK         0.5000 
     73 O          -2.5462  -25.0101  -49.2182 O.2       12 UNK        -0.5000 
     74 N          -2.5381  -24.2734  -47.0762 N.am      13 UNK        -0.5000 
     75 CA         -3.1011  -25.4736  -46.4576 C.3       13 UNK         0.1400 
     76 CB         -3.4469  -25.1910  -44.9880 C.3       13 UNK        -0.1800 
     77 C          -2.1695  -26.6930  -46.5769 C.2       13 UNK         0.5000 
     78 O          -2.6453  -27.7859  -46.8850 O.2       13 UNK        -0.5000 
     79 N          -0.8615  -26.4799  -46.3723 N.am      14 UNK        -0.5000 
     80 CA          0.1793  -27.4957  -46.5433 C.3       14 UNK         0.1400 
     81 CB          1.5022  -26.9797  -45.9569 C.3       14 UNK        -0.1800 
     82 C           0.3570  -27.9219  -48.0135 C.2       14 UNK         0.5000 
     83 O           0.5264  -29.1109  -48.2861 O.2       14 UNK        -0.5000 
     84 N           0.2899  -26.9498  -48.9331 N.am      15 UNK        -0.5000 
     85 CA          0.3529  -27.1588  -50.3816 C.3       15 UNK         0.1400 
     86 CB          0.6590  -25.8130  -51.0592 C.3       15 UNK        -0.1800 
     87 C          -0.9331  -27.7694  -50.9769 C.2       15 UNK         0.5000 
     88 O          -0.8838  -28.3017  -52.0864 O.2       15 UNK        -0.5000 
     89 N          -2.0525  -27.6536  -50.2470 N.am      16 UNK        -0.5000 
     90 CA         -3.4293  -27.9605  -50.6495 C.3       16 UNK         0.1400 
     91 CB         -3.6138  -29.4705  -50.9063 C.3       16 UNK        -0.1800 
     92 C          -3.8982  -27.0720  -51.8233 C.2       16 UNK         0.5000 
     93 O          -4.5503  -27.5539  -52.7518 O.2       16 UNK        -0.5000 
     94 N          -3.5319  -25.7862  -51.7640 N.am      17 UNK        -0.5000 
     95 CA         -3.8057  -24.7804  -52.7826 C.3       17 UNK         0.1400 
     96 CB         -2.5715  -23.8738  -52.9246 C.3       17 UNK        -0.1800 
     97 C          -5.0371  -23.9519  -52.3889 C.2       17 UNK         0.5000 
     98 O          -5.0421  -23.3383  -51.3205 O.2       17 UNK        -0.5000 
     99 N          -6.0371  -23.9094  -53.2758 N.am      18 UNK        -0.5000 
    100 CA        -7.2410  -23.0792  -53.1427 C.3       18 UNK         0.1400 
    101 CB        -8.4626  -23.9303  -53.5276 C.3       18 UNK        -0.1800 
    102 C         -7.1721  -21.8043  -54.0113 C.2       18 UNK         0.5000 
    103 O         -8.1110  -21.0059  -53.9929 O.2       18 UNK        -0.5000 
    104 N         -6.0816  -21.6475  -54.7767 N.am      19 UNK        -0.5000 
    105 CA        -5.8425  -20.5621  -55.7271 C.3       19 UNK         0.1400 
    106 CB        -4.5076  -20.8192  -56.4422 C.3       19 UNK        -0.1800 
    107 C         -5.8303  -19.1721  -55.0677 C.2       19 UNK         0.5000 
    108 O         -5.3161  -19.0272  -53.9547 O.2       19 UNK        -0.5000 
    109 N         -6.3945  -18.1846  -55.7794 N.am      20 UNK        -0.5000 
    110 CA        -6.4609  -16.7536  -55.4431 C.3       20 UNK         0.1400 
    111 CB        -5.0457  -16.1391  -55.4847 C.3       20 UNK        -0.1800 
    112 C         -7.1898  -16.4323  -54.1179 C.2       20 UNK         0.5000 
    113 O         -6.9818  -15.3553  -53.5578 O.2       20 UNK        -0.5000 
    114 N         -7.9947  -17.3856  -53.6210 N.am      21 UNK        -0.5000 
    115 CA        -8.6173  -17.4328  -52.2893 C.3       21 UNK         0.1400 
    116 CB        -9.6090  -16.2680  -52.0884 C.3       21 UNK        -0.1800 
    117 C         -7.5999  -17.5518  -51.1284 C.2       21 UNK         0.5000 
    118 O         -7.9859  -17.4338  -49.9645 O.2       21 UNK        -0.5000 
    119 N         -6.3302  -17.8069  -51.4621 N.am      22 UNK        -0.5000 
    120 CA        -5.2370  -18.1320  -50.5453 C.3       22 UNK         0.1400 
    121 C         -5.2161  -19.6635  -50.3104 C.2       22 UNK         0.5000 
    122 N         -5.1029  -20.4642  -51.3649 N.am      22 UNK        -0.7600 
    123 O         -5.3482  -20.1206  -49.1793 O.2       22 UNK        -0.5000 
    124 C124       -3.9008  -17.5715  -51.1023 C.3       23 UNK        -0.0398 
    125 S125       -2.4158  -17.8785  -50.0793 S.3       23 UNK        -0.2404 
    126 C126       -1.3510  -18.7051  -51.3064 C.3       23 UNK        -0.0205 
    127 H127        7.1578  -11.4531  -48.0425 H         1 UNK         0.0600 
    128 H128        5.7846  -10.5055  -48.6237 H         1 UNK         0.0600 
    129 H129        6.1997  -12.0325  -49.4084 H         1 UNK         0.0600 
    130 H130        4.8055  -13.6758  -48.8404 H         1 UNK         0.3000 
    131 H131        4.2699  -14.4892  -46.2047 H         1 UNK         0.0600 
    132 H132        4.2645  -16.0879  -48.0267 H         1 UNK         0.0800 
    133 H133        2.7192  -16.1426  -47.2439 H         1 UNK         0.0800 
    134 H134        3.1962  -16.1940  -51.5464 H         1 UNK         0.0800 
    135 H135        4.1863  -16.7959  -50.2460 H         1 UNK         0.0800 
    136 H136        0.4878  -16.7235  -51.0489 H         1 UNK         0.1150 
    137 H137        0.0407  -20.9601  -50.6303 H         1 UNK         0.1150 
    138 H138        3.8689  -19.1407  -49.9941 H         1 UNK         0.1150 
    139 H139        1.8636  -22.3531  -50.1074 H         1 UNK         0.0800 
    140 H140        3.3072  -21.7792  -50.8881 H         1 UNK         0.0800 
    141 H141        1.6625  -20.5319  -47.6227 H         1 UNK         0.0800 
    142 H142        2.9026  -20.8135  -46.4455 H         1 UNK         0.0800 
    143 H143        2.2611  -23.2598  -46.3428 H         1 UNK         0.0600 
    144 H144        0.8799  -21.0962  -45.1882 H         1 UNK         0.3000 
    145 H145       -1.4184  -22.9289  -43.1424 H         1 UNK         0.0600 
    146 H146       -0.3065  -21.5084  -41.4529 H         1 UNK         0.0600 
    147 H147        0.7759  -22.8006  -41.9486 H         1 UNK         0.0600 
    148 H148        1.0217  -21.1690  -42.5603 H         1 UNK         0.0600 
    149 H149       -1.0569  -20.1352  -43.4774 H         1 UNK         0.3000 
    150 H150       -3.4181  -19.7201  -46.1807 H         1 UNK         0.0600 
    151 H151       -4.6777  -19.7279  -44.0353 H         1 UNK         0.0600 
    152 H152       -4.2679  -18.0859  -44.5113 H         1 UNK         0.0600 
    153 H153       -3.3589  -18.8867  -43.2316 H         1 UNK         0.0600 
    154 H154       -1.8074  -17.7841  -44.9075 H         1 UNK         0.3000 
    155 H155        1.0702  -18.0415  -47.0393 H         1 UNK         0.0600 
    156 H156       -1.2171  -16.0319  -46.6722 H         1 UNK         0.0600 
    157 H157        0.4387  -15.5630  -47.0246 H         1 UNK         0.0600 
    158 H158       -0.4579  -16.5381  -48.1714 H         1 UNK         0.0600 
    159 H159        0.5130  -16.4759  -44.7091 H         1 UNK         0.3000 
    160 H160        1.8409  -18.7563  -42.2876 H         1 UNK         0.0600 
    161 H161        2.9119  -16.1312  -43.4575 H         1 UNK         0.0600 
    162 H162        3.8259  -17.6135  -43.2150 H         1 UNK         0.0600 
    163 H163        3.2250  -16.7198  -41.8255 H         1 UNK         0.0600 
    164 H164        0.7391  -16.0865  -42.2049 H         1 UNK         0.3000 
    165 H165       -2.6534  -17.0498  -41.6920 H         1 UNK         0.0600 
    166 H166       -2.4034  -15.8205  -39.5513 H         1 UNK         0.0600 
    167 H167       -1.6822  -17.4165  -39.4166 H         1 UNK         0.0600 
    168 H168       -0.6500  -16.0053  -39.6177 H         1 UNK         0.0600 
    169 H169       -1.2849  -14.5415  -41.5024 H         1 UNK         0.3000 
    170 H170       -0.7116  -13.8941  -44.8502 H         1 UNK         0.0600 
    171 H171       -3.1756  -13.4838  -45.0160 H         1 UNK         0.0600 
    172 H172       -3.1384  -12.6430  -43.4702 H         1 UNK         0.0600 
    173 H173       -2.2698  -11.9886  -44.8601 H         1 UNK         0.0600 
    174 H174       -0.7108  -11.8955  -43.0422 H         1 UNK         0.3000 
    175 H175        0.8635  -11.4309  -41.3212 H         1 UNK         0.0600 
    176 H176        3.4153  -13.1312  -41.5881 H         1 UNK         0.0600 
    177 H177        3.2485  -11.6685  -40.6196 H         1 UNK         0.0600 
    178 H178        2.3450  -13.1140  -40.1902 H         1 UNK         0.0600 
    179 H179        2.2188  -11.8694  -43.8870 H         1 UNK         0.3000 
    180 H180        1.9971   -8.4990  -44.6870 H         1 UNK         0.0600 
    181 H181        4.6642   -9.9766  -44.3750 H         1 UNK         0.0600 
    182 H182        4.3053   -8.3500  -43.8135 H         1 UNK         0.0600 
    183 H183        4.3473   -8.6882  -45.5375 H         1 UNK         0.0600 
    184 H184        3.0115  -10.8013  -46.0854 H         1 UNK         0.3000 
    185 H185       -0.0013  -12.3347  -46.8791 H         1 UNK         0.0600 
    186 H186       -0.4982  -10.3704  -48.3370 H         1 UNK         0.0600 
    187 H187        1.1912  -10.2842  -48.8219 H         1 UNK         0.0600 
    188 H188        0.2099  -11.6820  -49.2651 H         1 UNK         0.0600 
    189 H189        2.4886  -12.3052  -48.2887 H         1 UNK         0.3000 
    190 H190       -0.6563  -21.4973  -47.5205 H         1 UNK         0.3000 
    191 H191       -1.1149  -23.0636  -49.8133 H         1 UNK         0.0600 
    192 H192       -3.1000  -21.4833  -48.1030 H         1 UNK         0.0600 
    193 H193       -3.3571  -22.0227  -49.7571 H         1 UNK         0.0600 
    194 H194       -2.1196  -20.8275  -49.4070 H         1 UNK         0.0600 
    195 H195       -2.3579  -23.4840  -46.4613 H         1 UNK         0.3000 
    196 H196       -4.0283  -25.7128  -46.9826 H         1 UNK         0.0600 
    197 H197       -3.8777  -26.0723  -44.5112 H         1 UNK         0.0600 
    198 H198       -4.1773  -24.3863  -44.9036 H         1 UNK         0.0600 
    199 H199       -2.5657  -24.9040  -44.4140 H         1 UNK         0.0600 
    200 H200       -0.5544  -25.5564  -46.0825 H         1 UNK         0.3000 
    201 H201       -0.1185  -28.3798  -45.9758 H         1 UNK         0.0600 
    202 H202        1.3980  -26.7462  -44.8971 H         1 UNK         0.0600 
    203 H203        1.8451  -26.0774  -46.4639 H         1 UNK         0.0600 
    204 H204        2.2895  -27.7287  -46.0501 H         1 UNK         0.0600 
    205 H205        0.2287  -25.9855  -48.6162 H         1 UNK         0.3000 
    206 H206        1.1747  -27.8451  -50.5957 H         1 UNK         0.0600 
    207 H207        1.5934  -25.3882  -50.6915 H         1 UNK         0.0600 
    208 H208        0.7572  -25.9302  -52.1391 H         1 UNK         0.0600 
    209 H209       -0.1329  -25.0854  -50.8792 H         1 UNK         0.0600 
    210 H210       -1.9729  -27.1381  -49.3795 H         1 UNK         0.3000 
    211 H211       -4.0570  -27.6936  -49.7980 H         1 UNK         0.0600 
    212 H212       -3.0659  -29.8049  -51.7875 H         1 UNK         0.0600 
    213 H213       -4.6652  -29.7120  -51.0658 H         1 UNK         0.0600 
    214 H214       -3.2716  -30.0584  -50.0546 H         1 UNK         0.0600 
    215 H215       -3.0832  -25.4551  -50.9117 H         1 UNK         0.3000 
    216 H216       -3.9827  -25.2617  -53.7468 H         1 UNK         0.0600 
    217 H217       -2.3366  -23.3611  -51.9910 H         1 UNK         0.0600 
    218 H218       -2.7317  -23.1103  -53.6868 H         1 UNK         0.0600 
    219 H219       -1.6931  -24.4490  -53.2181 H         1 UNK         0.0600 
    220 H220       -5.9694  -24.4619  -54.1193 H         1 UNK         0.3000 
    221 H221       -7.3684  -22.7547  -52.1078 H         1 UNK         0.0600 
    222 H222       -8.5377  -24.8170  -52.8979 H         1 UNK         0.0600 
    223 H223       -8.4139  -24.2592  -54.5664 H         1 UNK         0.0600 
    224 H224       -9.3890  -23.3677  -53.4039 H         1 UNK         0.0600 
    225 H225       -5.3515  -22.3375  -54.6992 H         1 UNK         0.3000 
    226 H226       -6.6451  -20.5929  -56.4668 H         1 UNK         0.0600 
    227 H227       -4.5186  -21.7726  -56.9709 H         1 UNK         0.0600 
    228 H228       -4.3022  -20.0427  -57.1803 H         1 UNK         0.0600 
    229 H229       -3.6725  -20.8331  -55.7403 H         1 UNK         0.0600 
    230 H230       -6.8053  -18.4253  -56.6712 H         1 UNK         0.3000 
    231 H231       -7.0501  -16.2817  -56.2304 H         1 UNK         0.0600 
    232 H232       -4.4181  -16.5153  -54.6759 H         1 UNK         0.0600 
    233 H233       -5.0837  -15.0533  -55.3909 H         1 UNK         0.0600 
    234 H234       -4.5462  -16.3622  -56.4275 H         1 UNK         0.0600 
    235 H235       -8.0829  -18.2373  -54.1594 H         1 UNK         0.3000 
    236 H236       -9.1943  -18.3585  -52.2697 H         1 UNK         0.0600 
    237 H237      -10.1960  -16.4088  -51.1802 H         1 UNK         0.0600 
    238 H238       -9.0993  -15.3088  -51.9975 H         1 UNK         0.0600 
    239 H239      -10.3112  -16.1994  -52.9192 H         1 UNK         0.0600 
    240 H240       -6.1235  -17.9613  -52.4423 H         1 UNK         0.3000 
    241 H241       -5.4217  -17.6500  -49.5833 H         1 UNK         0.0600 
    242 H242       -5.0938  -21.4708  -51.2250 H         1 UNK         0.3800 
    243 H243       -5.0485  -20.0770  -52.3005 H         1 UNK         0.3800 
    244 H244       -3.7302  -17.9561  -52.1084 H         1 UNK         0.0800 
    245 H245       -3.9901  -16.4907  -51.2193 H         1 UNK         0.0800 
    246 H246       -1.7692  -19.6863  -51.5366 H         1 UNK         0.0800 
    247 H247       -1.3705  -18.1393  -52.2391 H         1 UNK         0.0800 
@<TRIPOS>BOND
     1    1    2 1    
     2    1  127 1    
     3    1  128 1    
     4    1  129 1    
     5    2    3 2    
     6    2    4 am   BACKBONE|DICT|INTERRES
     7    4    5 1    
     8    4  130 1    
     9    5    6 1    
    10    5   65 1    
    11    5  131 1    
    12    6    7 1    
    13    6  132 1    
    14    6  133 1    
    15    7    8 1    
    16    8    9 1    
    17    8  134 1    
    18    8  135 1    
    19    9   10 ar   
    20    9   14 ar   
    21   10   11 ar   
    22   10  136 1    
    23   11   12 ar   
    24   11  126 1    
    25   12   13 ar   
    26   12  137 1    
    27   13   14 ar   
    28   13   15 1    
    29   14  138 1    
    30   15   16 1    
    31   15  139 1    
    32   15  140 1    
    33   16   17 1    
    34   17   18 1    
    35   17  141 1    
    36   17  142 1    
    37   18   19 1    
    38   18   67 1    
    39   18  143 1    
    40   19   20 am   BACKBONE|DICT|INTERRES
    41   19  144 1    
    42   20   21 2    
    43   20   22 1    
    44   22   23 1    
    45   22   24 1    
    46   22  145 1    
    47   23  146 1    
    48   23  147 1    
    49   23  148 1    
    50   24   25 am   BACKBONE|DICT|INTERRES
    51   24  149 1    
    52   25   26 2    
    53   25   27 1    
    54   27   28 1    
    55   27   29 1    
    56   27  150 1    
    57   28  151 1    
    58   28  152 1    
    59   28  153 1    
    60   29   30 am   BACKBONE|DICT|INTERRES
    61   29  154 1    
    62   30   31 2    
    63   30   32 1    
    64   32   33 1    
    65   32   34 1    
    66   32  155 1    
    67   33  156 1    
    68   33  157 1    
    69   33  158 1    
    70   34   35 am   BACKBONE|DICT|INTERRES
    71   34  159 1    
    72   35   36 2    
    73   35   37 1    
    74   37   38 1    
    75   37   39 1    
    76   37  160 1    
    77   38  161 1    
    78   38  162 1    
    79   38  163 1    
    80   39   40 am   BACKBONE|DICT|INTERRES
    81   39  164 1    
    82   40   41 2    
    83   40   42 1    
    84   42   43 1    
    85   42   44 1    
    86   42  165 1    
    87   43  166 1    
    88   43  167 1    
    89   43  168 1    
    90   44   45 am   BACKBONE|DICT|INTERRES
    91   44  169 1    
    92   45   46 2    
    93   45   47 1    
    94   47   48 1    
    95   47   49 1    
    96   47  170 1    
    97   48  171 1    
    98   48  172 1    
    99   48  173 1    
   100   49   50 am   BACKBONE|DICT|INTERRES
   101   49  174 1    
   102   50   51 2    
   103   50   52 1    
   104   52   53 1    
   105   52   54 1    
   106   52  175 1    
   107   53  176 1    
   108   53  177 1    
   109   53  178 1    
   110   54   55 am   BACKBONE|DICT|INTERRES
   111   54  179 1    
   112   55   56 2    
   113   55   57 1    
   114   57   58 1    
   115   57   59 1    
   116   57  180 1    
   117   58  181 1    
   118   58  182 1    
   119   58  183 1    
   120   59   60 am   BACKBONE|DICT|INTERRES
   121   59  184 1    
   122   60   61 2    
   123   60   62 1    
   124   62   63 1    
   125   62   64 1    
   126   62  185 1    
   127   63  186 1    
   128   63  187 1    
   129   63  188 1    
   130   64   65 am   BACKBONE|DICT|INTERRES
   131   64  189 1    
   132   65   66 2    
   133   67   68 2    
   134   67   69 am   BACKBONE|DICT|INTERRES
   135   69   70 1    
   136   69  190 1    
   137   70   71 1    
   138   70   72 1    
   139   70  191 1    
   140   71  192 1    
   141   71  193 1    
   142   71  194 1    
   143   72   73 2    
   144   72   74 am   BACKBONE|DICT|INTERRES
   145   74   75 1    
   146   74  195 1    
   147   75   76 1    
   148   75   77 1    
   149   75  196 1    
   150   76  197 1    
   151   76  198 1    
   152   76  199 1    
   153   77   78 2    
   154   77   79 am   BACKBONE|DICT|INTERRES
   155   79   80 1    
   156   79  200 1    
   157   80   81 1    
   158   80   82 1    
   159   80  201 1    
   160   81  202 1    
   161   81  203 1    
   162   81  204 1    
   163   82   83 2    
   164   82   84 am   BACKBONE|DICT|INTERRES
   165   84   85 1    
   166   84  205 1    
   167   85   86 1    
   168   85   87 1    
   169   85  206 1    
   170   86  207 1    
   171   86  208 1    
   172   86  209 1    
   173   87   88 2    
   174   87   89 am   BACKBONE|DICT|INTERRES
   175   89   90 1    
   176   89  210 1    
   177   90   91 1    
   178   90   92 1    
   179   90  211 1    
   180   91  212 1    
   181   91  213 1    
   182   91  214 1    
   183   92   93 2    
   184   92   94 am   BACKBONE|DICT|INTERRES
   185   94   95 1    
   186   94  215 1    
   187   95   96 1    
   188   95   97 1    
   189   95  216 1    
   190   96  217 1    
   191   96  218 1    
   192   96  219 1    
   193   97   98 2    
   194   97   99 am   BACKBONE|DICT|INTERRES
   195   99  100 1    
   196   99  220 1    
   197  100  101 1    
   198  100  102 1    
   199  100  221 1    
   200  101  222 1    
   201  101  223 1    
   202  101  224 1    
   203  102  103 2    
   204  102  104 am   BACKBONE|DICT|INTERRES
   205  104  105 1    
   206  104  225 1    
   207  105  106 1    
   208  105  107 1    
   209  105  226 1    
   210  106  227 1    
   211  106  228 1    
   212  106  229 1    
   213  107  108 2    
   214  107  109 am   BACKBONE|DICT|INTERRES
   215  109  110 1    
   216  109  230 1    
   217  110  111 1    
   218  110  112 1    
   219  110  231 1    
   220  111  232 1    
   221  111  233 1    
   222  111  234 1    
   223  112  113 2    
   224  112  114 am   BACKBONE|DICT|INTERRES
   225  114  115 1    
   226  114  235 1    
   227  115  116 1    
   228  115  117 1    
   229  115  236 1    
   230  116  237 1    
   231  116  238 1    
   232  116  239 1    
   233  117  118 2    
   234  117  119 am   BACKBONE|DICT|INTERRES
   235  119  120 1    
   236  119  240 1    
   237  120  121 1    
   238  120  124 1    
   239  120  241 1    
   240  121  122 am   BACKBONE|DICT|INTERRES
   241  121  123 2    
   242  122  242 1    
   243  122  243 1    
   244  124  125 1    
   245  124  244 1    
   246  124  245 1    
   247  125  126 1    
   248  126  246 1    
   249  126  247 1    
@<TRIPOS>SUBSTRUCTURE
     1 UNK         1 GROUP             0       ****    0 ROOT    
