@<TRIPOS>MOLECULE
3R540
247   249    1
SMALL
USER_CHARGES


@<TRIPOS>ATOM
      1 CA         -2.4080  -13.5518  -44.4918 C.3       0 UNK        -0.1800 
      2 C          -1.8155  -13.1823  -45.8423 C.2       0 UNK         0.5000 
      3 O          -2.4641  -12.4866  -46.6253 O.2       0 UNK        -0.5000 
      4 N          -0.5842  -13.6293  -46.1207 N.am      1 UNK        -0.5000 
      5 CA          0.1701  -13.3079  -47.3372 C.3       1 UNK         0.1400 
      6 C6          1.2190  -14.3944  -47.6847 C.3       23 UNK        -0.0398 
      7 S7          0.4884  -16.0553  -47.8496 S.3       23 UNK        -0.2404 
      8 C8          0.3841  -16.2458  -49.6523 C.3       23 UNK        -0.0205 
      9 C9         -0.2040  -17.6030  -49.9988 C.ar      23 UNK        -0.0193 
     10 C10        -1.5600  -17.7320  -50.3149 C.ar      23 UNK        -0.1150 
     11 C11        -2.1072  -18.9896  -50.5889 C.ar      23 UNK        -0.0193 
     12 C12        -1.2885  -20.1215  -50.5369 C.ar      23 UNK        -0.1150 
     13 C13         0.0715  -20.0019  -50.2381 C.ar      23 UNK        -0.0193 
     14 C14         0.6087  -18.7391  -49.9768 C.ar      23 UNK        -0.1150 
     15 C15         0.9622  -21.2340  -50.1872 C.3       23 UNK        -0.0205 
     16 S16         1.4660  -21.6260  -48.4832 S.3       23 UNK        -0.2404 
     17 C17        -0.1428  -22.0263  -47.7251 C.3       23 UNK        -0.0398 
     18 CA         -0.0144  -23.1736  -46.7011 C.3       11 UNK         0.1400 
     19 N           0.6635  -22.7585  -45.4703 N.am      11 UNK        -0.5000 
     20 C           1.0618  -23.6009  -44.5074 C.2       10 UNK         0.5000 
     21 O           0.9350  -24.8234  -44.5746 O.2       10 UNK        -0.5000 
     22 CA          1.6517  -22.9730  -43.2329 C.3       10 UNK         0.1400 
     23 CB          3.1076  -22.5382  -43.4568 C.3       10 UNK        -0.1800 
     24 N           0.8607  -21.8407  -42.7493 N.am      10 UNK        -0.5000 
     25 C          -0.4073  -21.9302  -42.3220 C.2       9 UNK         0.5000 
     26 O          -1.0299  -22.9898  -42.2494 O.2       9 UNK        -0.5000 
     27 CA         -1.1162  -20.6127  -41.9563 C.3       9 UNK         0.1400 
     28 CB         -0.7071  -20.1399  -40.5538 C.3       9 UNK        -0.1800 
     29 N          -0.8691  -19.5463  -42.9273 N.am      9 UNK        -0.5000 
     30 C          -1.2327  -19.5926  -44.2176 C.2       8 UNK         0.5000 
     31 O          -1.8506  -20.5276  -44.7239 O.2       8 UNK        -0.5000 
     32 CA         -0.7858  -18.4195  -45.1047 C.3       8 UNK         0.1400 
     33 CB         -1.7173  -17.2148  -44.9201 C.3       8 UNK        -0.1800 
     34 N           0.5979  -18.0264  -44.8414 N.am      8 UNK        -0.5000 
     35 C           1.6557  -18.8216  -45.0566 C.2       7 UNK         0.5000 
     36 O           1.5779  -19.9610  -45.5142 O.2       7 UNK        -0.5000 
     37 CA          3.0225  -18.2745  -44.6168 C.3       7 UNK         0.1400 
     38 CB          3.5700  -17.2705  -45.6419 C.3       7 UNK        -0.1800 
     39 N           2.9565  -17.6538  -43.2928 N.am      7 UNK        -0.5000 
     40 C           2.7228  -18.3303  -42.1580 C.2       6 UNK         0.5000 
     41 O           2.5778  -19.5510  -42.1085 O.2       6 UNK        -0.5000 
     42 CA          2.5939  -17.5058  -40.8643 C.3       6 UNK         0.1400 
     43 CB          3.9710  -17.3059  -40.2146 C.3       6 UNK        -0.1800 
     44 N           1.9650  -16.2013  -41.0719 N.am      6 UNK        -0.5000 
     45 C           0.7012  -16.0123  -41.4787 C.2       5 UNK         0.5000 
     46 O          -0.0852  -16.9290  -41.7176 O.2       5 UNK        -0.5000 
     47 CA          0.2648  -14.5506  -41.6987 C.3       5 UNK         0.1400 
     48 CB         -0.3073  -13.9515  -40.4064 C.3       5 UNK        -0.1800 
     49 N           1.3562  -13.7032  -42.1871 N.am      5 UNK        -0.5000 
     50 C           1.9510  -13.8492  -43.3770 C.2       4 UNK         0.5000 
     51 O           1.5562  -14.6393  -44.2378 O.2       4 UNK        -0.5000 
     52 CA          3.1952  -12.9761  -43.6179 C.3       4 UNK         0.1400 
     53 CB          4.1087  -13.5245  -44.7265 C.3       4 UNK        -0.1800 
     54 N           2.8234  -11.5977  -43.9288 N.am      4 UNK        -0.5000 
     55 C           2.5690  -10.6563  -43.0081 C.2       3 UNK         0.5000 
     56 O           2.5751  -10.8806  -41.7964 O.2       3 UNK        -0.5000 
     57 CA          2.2787   -9.2248  -43.5043 C.3       3 UNK         0.1400 
     58 CB          3.5426   -8.3575  -43.3989 C.3       3 UNK        -0.1800 
     59 N           1.7869   -9.1753  -44.8813 N.am      3 UNK        -0.5000 
     60 C           0.5442   -9.5073  -45.2495 C.2       2 UNK         0.5000 
     61 O          -0.3345   -9.8422  -44.4531 O.2       2 UNK        -0.5000 
     62 CA          0.2225   -9.5078  -46.7582 C.3       2 UNK         0.1400 
     63 CB          1.2824   -8.8190  -47.6486 C.3       2 UNK        -0.1800 
     64 N          -0.0420  -10.8781  -47.2003 N.am      2 UNK        -0.5000 
     65 C           0.8061  -11.9154  -47.1519 C.2       1 UNK         0.5000 
     66 O           2.0045  -11.8081  -46.8843 O.2       1 UNK        -0.5000 
     67 C          -1.3839  -23.8191  -46.4180 C.2       11 UNK         0.5000 
     68 O          -1.6865  -24.8492  -47.0169 O.2       11 UNK        -0.5000 
     69 N          -2.1647  -23.2500  -45.4886 N.am      12 UNK        -0.5000 
     70 CA         -3.4479  -23.7972  -45.0442 C.3       12 UNK         0.1400 
     71 CB         -4.1492  -22.7979  -44.1123 C.3       12 UNK        -0.1800 
     72 C          -3.3075  -25.1736  -44.3686 C.2       12 UNK         0.5000 
     73 O          -4.1025  -26.0686  -44.6560 O.2       12 UNK        -0.5000 
     74 N          -2.2788  -25.3336  -43.5235 N.am      13 UNK        -0.5000 
     75 CA         -1.9282  -26.5970  -42.8705 C.3       13 UNK         0.1400 
     76 CB         -0.8598  -26.3405  -41.7969 C.3       13 UNK        -0.1800 
     77 C          -1.4577  -27.6757  -43.8657 C.2       13 UNK         0.5000 
     78 O          -1.8191  -28.8430  -43.7128 O.2       13 UNK        -0.5000 
     79 N          -0.6856  -27.2633  -44.8802 N.am      14 UNK        -0.5000 
     80 CA         -0.2161  -28.1143  -45.9768 C.3       14 UNK         0.1400 
     81 CB          0.9702  -27.4196  -46.6645 C.3       14 UNK        -0.1800 
     82 C          -1.3081  -28.4472  -47.0154 C.2       14 UNK         0.5000 
     83 O          -1.1130  -29.3644  -47.8138 O.2       14 UNK        -0.5000 
     84 N          -2.4114  -27.6846  -47.0032 N.am      15 UNK        -0.5000 
     85 CA         -3.5078  -27.6680  -47.9772 C.3       15 UNK         0.1400 
     86 CB         -4.2790  -29.0042  -47.9750 C.3       15 UNK        -0.1800 
     87 C          -3.0381  -27.2298  -49.3827 C.2       15 UNK         0.5000 
     88 O          -3.5092  -27.7588  -50.3916 O.2       15 UNK        -0.5000 
     89 N          -2.1081  -26.2686  -49.4164 N.am      16 UNK        -0.5000 
     90 CA         -1.5482  -25.6703  -50.6222 C.3       16 UNK         0.1400 
     91 CB         -0.0629  -25.3614  -50.3732 C.3       16 UNK        -0.1800 
     92 C          -2.3126  -24.3824  -50.9618 C.2       16 UNK         0.5000 
     93 O          -2.5721  -23.5745  -50.0677 O.2       16 UNK        -0.5000 
     94 N          -2.6279  -24.1971  -52.2463 N.am      17 UNK        -0.5000 
     95 CA         -3.2993  -23.0245  -52.7976 C.3       17 UNK         0.1400 
     96 CB         -4.7771  -22.9848  -52.3581 C.3       17 UNK        -0.1800 
     97 C          -3.1930  -23.0600  -54.3277 C.2       17 UNK         0.5000 
     98 O          -2.9921  -24.1321  -54.9053 O.2       17 UNK        -0.5000 
     99 N          -3.3634  -21.8920  -54.9507 N.am      18 UNK        -0.5000 
    100 CA        -3.4968  -21.7085  -56.3896 C.3       18 UNK         0.1400 
    101 CB        -2.1757  -21.1817  -56.9736 C.3       18 UNK        -0.1800 
    102 C         -4.6351  -20.7038  -56.5806 C.2       18 UNK         0.5000 
    103 O         -4.5073  -19.5666  -56.1249 O.2       18 UNK        -0.5000 
    104 N         -5.7381  -21.1359  -57.2050 N.am      19 UNK        -0.5000 
    105 CA        -7.0053  -20.3977  -57.2993 C.3       19 UNK         0.1400 
    106 CB        -8.0286  -21.2528  -58.0616 C.3       19 UNK        -0.1800 
    107 C         -6.9041  -18.9942  -57.9287 C.2       19 UNK         0.5000 
    108 O         -7.6716  -18.1073  -57.5539 O.2       19 UNK        -0.5000 
    109 N         -5.9376  -18.8062  -58.8371 N.am      20 UNK        -0.5000 
    110 CA        -5.6265  -17.5269  -59.4778 C.3       20 UNK         0.1400 
    111 CB        -4.6121  -17.7713  -60.6056 C.3       20 UNK        -0.1800 
    112 C         -5.0989  -16.4519  -58.5041 C.2       20 UNK         0.5000 
    113 O         -5.2586  -15.2628  -58.7835 O.2       20 UNK        -0.5000 
    114 N         -4.4869  -16.8809  -57.3924 N.am      21 UNK        -0.5000 
    115 CA        -3.9670  -16.0138  -56.3366 C.3       21 UNK         0.1400 
    116 CB        -2.5283  -16.4423  -56.0026 C.3       21 UNK        -0.1800 
    117 C         -4.8489  -16.0820  -55.0797 C.2       21 UNK         0.5000 
    118 O         -5.1398  -15.0446  -54.4829 O.2       21 UNK        -0.5000 
    119 N         -5.2409  -17.3009  -54.6939 N.am      22 UNK        -0.5000 
    120 CA        -5.9537  -17.6057  -53.4448 C.3       22 UNK         0.1400 
    121 C         -7.4950  -17.4125  -53.5178 C.2       22 UNK         0.5000 
    122 N         -8.0994  -17.2451  -54.6877 N.am      22 UNK        -0.7600 
    123 O         -8.1589  -17.4048  -52.4849 O.2       22 UNK        -0.5000 
    124 C124       -5.5977  -19.0227  -52.9223 C.3       23 UNK        -0.0398 
    125 S125       -3.7961  -19.2712  -52.7417 S.3       23 UNK        -0.2404 
    126 C126       -3.5798  -19.1255  -50.9432 C.3       23 UNK        -0.0205 
    127 H127       -3.4912  -13.6511  -44.5652 H         1 UNK         0.0600 
    128 H128       -2.1821  -12.7777  -43.7582 H         1 UNK         0.0600 
    129 H129       -2.0110  -14.4978  -44.1326 H         1 UNK         0.0600 
    130 H130       -0.0644  -14.1609  -45.4304 H         1 UNK         0.3000 
    131 H131       -0.5209  -13.2466  -48.1808 H         1 UNK         0.0600 
    132 H132        1.7499  -14.1364  -48.6023 H         1 UNK         0.0800 
    133 H133        1.9766  -14.4591  -46.9054 H         1 UNK         0.0800 
    134 H134       -0.2261  -15.4439  -50.0707 H         1 UNK         0.0800 
    135 H135        1.3781  -16.1491  -50.0916 H         1 UNK         0.0800 
    136 H136       -2.1907  -16.8545  -50.3397 H         1 UNK         0.1150 
    137 H137       -1.7111  -21.0960  -50.7305 H         1 UNK         0.1150 
    138 H138        1.6563  -18.6448  -49.7268 H         1 UNK         0.1150 
    139 H139        0.4613  -22.0980  -50.6272 H         1 UNK         0.0800 
    140 H140        1.8547  -21.0573  -50.7889 H         1 UNK         0.0800 
    141 H141       -0.8356  -22.3017  -48.5215 H         1 UNK         0.0800 
    142 H142       -0.5529  -21.1281  -47.2604 H         1 UNK         0.0800 
    143 H143        0.5999  -23.9553  -47.1533 H         1 UNK         0.0600 
    144 H144        0.8479  -21.7639  -45.3673 H         1 UNK         0.3000 
    145 H145        1.6448  -23.7386  -42.4543 H         1 UNK         0.0600 
    146 H146        3.5571  -22.1782  -42.5313 H         1 UNK         0.0600 
    147 H147        3.7145  -23.3726  -43.8104 H         1 UNK         0.0600 
    148 H148        3.1824  -21.7405  -44.1962 H         1 UNK         0.0600 
    149 H149        1.3229  -20.9364  -42.7381 H         1 UNK         0.3000 
    150 H150       -2.1906  -20.8064  -41.9473 H         1 UNK         0.0600 
    151 H151       -0.9293  -20.9018  -39.8058 H         1 UNK         0.0600 
    152 H152       -1.2462  -19.2361  -40.2691 H         1 UNK         0.0600 
    153 H153        0.3597  -19.9250  -40.4959 H         1 UNK         0.0600 
    154 H154       -0.3993  -18.7144  -42.5838 H         1 UNK         0.3000 
    155 H155       -0.8485  -18.7414  -46.1467 H         1 UNK         0.0600 
    156 H156       -1.6875  -16.8364  -43.8984 H         1 UNK         0.0600 
    157 H157       -1.4464  -16.4020  -45.5922 H         1 UNK         0.0600 
    158 H158       -2.7508  -17.4847  -45.1401 H         1 UNK         0.0600 
    159 H159        0.7509  -17.1067  -44.4524 H         1 UNK         0.3000 
    160 H160        3.7169  -19.1159  -44.5638 H         1 UNK         0.0600 
    161 H161        4.5741  -16.9413  -45.3751 H         1 UNK         0.0600 
    162 H162        2.9356  -16.3884  -45.7224 H         1 UNK         0.0600 
    163 H163        3.6276  -17.7204  -46.6339 H         1 UNK         0.0600 
    164 H164        3.0230  -16.6480  -43.2558 H         1 UNK         0.3000 
    165 H165        1.9686  -18.0720  -40.1713 H         1 UNK         0.0600 
    166 H166        3.8845  -16.7950  -39.2555 H         1 UNK         0.0600 
    167 H167        4.4567  -18.2647  -40.0276 H         1 UNK         0.0600 
    168 H168        4.6360  -16.7195  -40.8498 H         1 UNK         0.0600 
    169 H169        2.5368  -15.3889  -40.8947 H         1 UNK         0.3000 
    170 H170       -0.5243  -14.5551  -42.4493 H         1 UNK         0.0600 
    171 H171        0.4446  -13.8989  -39.6182 H         1 UNK         0.0600 
    172 H172       -0.6885  -12.9441  -40.5752 H         1 UNK         0.0600 
    173 H173       -1.1362  -14.5533  -40.0311 H         1 UNK         0.0600 
    174 H174        1.7001  -12.9844  -41.5622 H         1 UNK         0.3000 
    175 H175        3.7830  -12.9902  -42.6974 H         1 UNK         0.0600 
    176 H176        5.0262  -12.9408  -44.8003 H         1 UNK         0.0600 
    177 H177        3.6284  -13.5060  -45.7023 H         1 UNK         0.0600 
    178 H178        4.3979  -14.5550  -44.5197 H         1 UNK         0.0600 
    179 H179        2.7264  -11.3711  -44.9122 H         1 UNK         0.3000 
    180 H180        1.5191   -8.7971  -42.8464 H         1 UNK         0.0600 
    181 H181        4.3409   -8.7291  -44.0426 H         1 UNK         0.0600 
    182 H182        3.9240   -8.3447  -42.3770 H         1 UNK         0.0600 
    183 H183        3.3369   -7.3244  -43.6801 H         1 UNK         0.0600 
    184 H184        2.4569   -8.9349  -45.5977 H         1 UNK         0.3000 
    185 H185       -0.7122   -8.9572  -46.8733 H         1 UNK         0.0600 
    186 H186        2.2547   -9.3100  -47.6072 H         1 UNK         0.0600 
    187 H187        0.9646   -8.8124  -48.6913 H         1 UNK         0.0600 
    188 H188        1.4241   -7.7790  -47.3519 H         1 UNK         0.0600 
    189 H189       -1.0228  -11.1069  -47.3230 H         1 UNK         0.3000 
    190 H190       -1.8787  -22.3672  -45.0715 H         1 UNK         0.3000 
    191 H191       -4.0737  -23.9274  -45.9296 H         1 UNK         0.0600 
    192 H192       -4.3323  -21.8499  -44.6182 H         1 UNK         0.0600 
    193 H193       -5.1153  -23.1824  -43.7829 H         1 UNK         0.0600 
    194 H194       -3.5563  -22.5921  -43.2212 H         1 UNK         0.0600 
    195 H195       -1.6988  -24.5296  -43.3010 H         1 UNK         0.3000 
    196 H196       -2.8235  -26.9748  -42.3724 H         1 UNK         0.0600 
    197 H197       -0.5963  -27.2634  -41.2789 H         1 UNK         0.0600 
    198 H198       -1.2180  -25.6362  -41.0458 H         1 UNK         0.0600 
    199 H199        0.0548  -25.9320  -42.2271 H         1 UNK         0.0600 
    200 H200       -0.3730  -26.2968  -44.8920 H         1 UNK         0.3000 
    201 H201        0.1372  -29.0580  -45.5564 H         1 UNK         0.0600 
    202 H202        1.7763  -27.2219  -45.9577 H         1 UNK         0.0600 
    203 H203        0.6743  -26.4690  -47.1095 H         1 UNK         0.0600 
    204 H204        1.3814  -28.0405  -47.4613 H         1 UNK         0.0600 
    205 H205       -2.4328  -26.9312  -46.3281 H         1 UNK         0.3000 
    206 H206       -4.1960  -26.8932  -47.6364 H         1 UNK         0.0600 
    207 H207       -4.5914  -29.2761  -46.9667 H         1 UNK         0.0600 
    208 H208       -5.1799  -28.9346  -48.5855 H         1 UNK         0.0600 
    209 H209       -3.6787  -29.8224  -48.3733 H         1 UNK         0.0600 
    210 H210       -1.8590  -25.8149  -48.5389 H         1 UNK         0.3000 
    211 H211       -1.6212  -26.3707  -51.4569 H         1 UNK         0.0600 
    212 H212        0.0705  -24.6562  -49.5520 H         1 UNK         0.0600 
    213 H213        0.3997  -24.9250  -51.2592 H         1 UNK         0.0600 
    214 H214        0.4915  -26.2673  -50.1274 H         1 UNK         0.0600 
    215 H215       -2.3740  -24.8868  -52.9435 H         1 UNK         0.3000 
    216 H216       -2.7870  -22.1293  -52.4443 H         1 UNK         0.0600 
    217 H217       -5.3054  -22.1513  -52.8216 H         1 UNK         0.0600 
    218 H218       -4.8716  -22.8588  -51.2798 H         1 UNK         0.0600 
    219 H219       -5.3010  -23.9000  -52.6360 H         1 UNK         0.0600 
    220 H220       -3.5391  -21.0565  -54.4044 H         1 UNK         0.3000 
    221 H221       -3.7582  -22.6488  -56.8797 H         1 UNK         0.0600 
    222 H222       -1.8730  -20.2424  -56.5085 H         1 UNK         0.0600 
    223 H223       -1.3692  -21.9004  -56.8277 H         1 UNK         0.0600 
    224 H224       -2.2663  -21.0049  -58.0459 H         1 UNK         0.0600 
    225 H225       -5.7547  -22.0835  -57.5542 H         1 UNK         0.3000 
    226 H226       -7.3720  -20.2604  -56.2798 H         1 UNK         0.0600 
    227 H227       -8.2010  -22.2047  -57.5591 H         1 UNK         0.0600 
    228 H228       -8.9915  -20.7445  -58.1287 H         1 UNK         0.0600 
    229 H229       -7.6970  -21.4639  -59.0790 H         1 UNK         0.0600 
    230 H230       -5.3495  -19.5906  -59.0771 H         1 UNK         0.3000 
    231 H231       -6.5468  -17.1421  -59.9223 H         1 UNK         0.0600 
    232 H232       -3.6760  -18.1796  -60.2224 H         1 UNK         0.0600 
    233 H233       -4.3760  -16.8428  -61.1272 H         1 UNK         0.0600 
    234 H234       -5.0051  -18.4674  -61.3468 H         1 UNK         0.0600 
    235 H235       -4.4368  -17.8784  -57.2174 H         1 UNK         0.3000 
    236 H236       -3.9391  -14.9740  -56.6687 H         1 UNK         0.0600 
    237 H237       -1.8779  -16.3446  -56.8719 H         1 UNK         0.0600 
    238 H238       -2.1094  -15.8207  -55.2103 H         1 UNK         0.0600 
    239 H239       -2.4821  -17.4791  -55.6657 H         1 UNK         0.0600 
    240 H240       -4.9403  -18.1109  -55.2319 H         1 UNK         0.3000 
    241 H241       -5.6078  -16.8974  -52.6893 H         1 UNK         0.0600 
    242 H242       -9.0982  -17.1146  -54.7096 H         1 UNK         0.3800 
    243 H243       -7.5884  -17.2869  -55.5597 H         1 UNK         0.3800 
    244 H244       -6.0841  -19.2171  -51.9648 H         1 UNK         0.0800 
    245 H245       -5.9738  -19.7803  -53.6118 H         1 UNK         0.0800 
    246 H246       -4.1371  -18.2621  -50.5764 H         1 UNK         0.0800 
    247 H247       -4.0028  -20.0037  -50.4528 H         1 UNK         0.0800 
@<TRIPOS>BOND
     1    1    2 1    
     2    1  127 1    
     3    1  128 1    
     4    1  129 1    
     5    2    3 2    
     6    2    4 am   BACKBONE|DICT|INTERRES
     7    4    5 1    
     8    4  130 1    
     9    5    6 1    
    10    5   65 1    
    11    5  131 1    
    12    6    7 1    
    13    6  132 1    
    14    6  133 1    
    15    7    8 1    
    16    8    9 1    
    17    8  134 1    
    18    8  135 1    
    19    9   10 ar   
    20    9   14 ar   
    21   10   11 ar   
    22   10  136 1    
    23   11   12 ar   
    24   11  126 1    
    25   12   13 ar   
    26   12  137 1    
    27   13   14 ar   
    28   13   15 1    
    29   14  138 1    
    30   15   16 1    
    31   15  139 1    
    32   15  140 1    
    33   16   17 1    
    34   17   18 1    
    35   17  141 1    
    36   17  142 1    
    37   18   19 1    
    38   18   67 1    
    39   18  143 1    
    40   19   20 am   BACKBONE|DICT|INTERRES
    41   19  144 1    
    42   20   21 2    
    43   20   22 1    
    44   22   23 1    
    45   22   24 1    
    46   22  145 1    
    47   23  146 1    
    48   23  147 1    
    49   23  148 1    
    50   24   25 am   BACKBONE|DICT|INTERRES
    51   24  149 1    
    52   25   26 2    
    53   25   27 1    
    54   27   28 1    
    55   27   29 1    
    56   27  150 1    
    57   28  151 1    
    58   28  152 1    
    59   28  153 1    
    60   29   30 am   BACKBONE|DICT|INTERRES
    61   29  154 1    
    62   30   31 2    
    63   30   32 1    
    64   32   33 1    
    65   32   34 1    
    66   32  155 1    
    67   33  156 1    
    68   33  157 1    
    69   33  158 1    
    70   34   35 am   BACKBONE|DICT|INTERRES
    71   34  159 1    
    72   35   36 2    
    73   35   37 1    
    74   37   38 1    
    75   37   39 1    
    76   37  160 1    
    77   38  161 1    
    78   38  162 1    
    79   38  163 1    
    80   39   40 am   BACKBONE|DICT|INTERRES
    81   39  164 1    
    82   40   41 2    
    83   40   42 1    
    84   42   43 1    
    85   42   44 1    
    86   42  165 1    
    87   43  166 1    
    88   43  167 1    
    89   43  168 1    
    90   44   45 am   BACKBONE|DICT|INTERRES
    91   44  169 1    
    92   45   46 2    
    93   45   47 1    
    94   47   48 1    
    95   47   49 1    
    96   47  170 1    
    97   48  171 1    
    98   48  172 1    
    99   48  173 1    
   100   49   50 am   BACKBONE|DICT|INTERRES
   101   49  174 1    
   102   50   51 2    
   103   50   52 1    
   104   52   53 1    
   105   52   54 1    
   106   52  175 1    
   107   53  176 1    
   108   53  177 1    
   109   53  178 1    
   110   54   55 am   BACKBONE|DICT|INTERRES
   111   54  179 1    
   112   55   56 2    
   113   55   57 1    
   114   57   58 1    
   115   57   59 1    
   116   57  180 1    
   117   58  181 1    
   118   58  182 1    
   119   58  183 1    
   120   59   60 am   BACKBONE|DICT|INTERRES
   121   59  184 1    
   122   60   61 2    
   123   60   62 1    
   124   62   63 1    
   125   62   64 1    
   126   62  185 1    
   127   63  186 1    
   128   63  187 1    
   129   63  188 1    
   130   64   65 am   BACKBONE|DICT|INTERRES
   131   64  189 1    
   132   65   66 2    
   133   67   68 2    
   134   67   69 am   BACKBONE|DICT|INTERRES
   135   69   70 1    
   136   69  190 1    
   137   70   71 1    
   138   70   72 1    
   139   70  191 1    
   140   71  192 1    
   141   71  193 1    
   142   71  194 1    
   143   72   73 2    
   144   72   74 am   BACKBONE|DICT|INTERRES
   145   74   75 1    
   146   74  195 1    
   147   75   76 1    
   148   75   77 1    
   149   75  196 1    
   150   76  197 1    
   151   76  198 1    
   152   76  199 1    
   153   77   78 2    
   154   77   79 am   BACKBONE|DICT|INTERRES
   155   79   80 1    
   156   79  200 1    
   157   80   81 1    
   158   80   82 1    
   159   80  201 1    
   160   81  202 1    
   161   81  203 1    
   162   81  204 1    
   163   82   83 2    
   164   82   84 am   BACKBONE|DICT|INTERRES
   165   84   85 1    
   166   84  205 1    
   167   85   86 1    
   168   85   87 1    
   169   85  206 1    
   170   86  207 1    
   171   86  208 1    
   172   86  209 1    
   173   87   88 2    
   174   87   89 am   BACKBONE|DICT|INTERRES
   175   89   90 1    
   176   89  210 1    
   177   90   91 1    
   178   90   92 1    
   179   90  211 1    
   180   91  212 1    
   181   91  213 1    
   182   91  214 1    
   183   92   93 2    
   184   92   94 am   BACKBONE|DICT|INTERRES
   185   94   95 1    
   186   94  215 1    
   187   95   96 1    
   188   95   97 1    
   189   95  216 1    
   190   96  217 1    
   191   96  218 1    
   192   96  219 1    
   193   97   98 2    
   194   97   99 am   BACKBONE|DICT|INTERRES
   195   99  100 1    
   196   99  220 1    
   197  100  101 1    
   198  100  102 1    
   199  100  221 1    
   200  101  222 1    
   201  101  223 1    
   202  101  224 1    
   203  102  103 2    
   204  102  104 am   BACKBONE|DICT|INTERRES
   205  104  105 1    
   206  104  225 1    
   207  105  106 1    
   208  105  107 1    
   209  105  226 1    
   210  106  227 1    
   211  106  228 1    
   212  106  229 1    
   213  107  108 2    
   214  107  109 am   BACKBONE|DICT|INTERRES
   215  109  110 1    
   216  109  230 1    
   217  110  111 1    
   218  110  112 1    
   219  110  231 1    
   220  111  232 1    
   221  111  233 1    
   222  111  234 1    
   223  112  113 2    
   224  112  114 am   BACKBONE|DICT|INTERRES
   225  114  115 1    
   226  114  235 1    
   227  115  116 1    
   228  115  117 1    
   229  115  236 1    
   230  116  237 1    
   231  116  238 1    
   232  116  239 1    
   233  117  118 2    
   234  117  119 am   BACKBONE|DICT|INTERRES
   235  119  120 1    
   236  119  240 1    
   237  120  121 1    
   238  120  124 1    
   239  120  241 1    
   240  121  122 am   BACKBONE|DICT|INTERRES
   241  121  123 2    
   242  122  242 1    
   243  122  243 1    
   244  124  125 1    
   245  124  244 1    
   246  124  245 1    
   247  125  126 1    
   248  126  246 1    
   249  126  247 1    
@<TRIPOS>SUBSTRUCTURE
     1 UNK         1 GROUP             0       ****    0 ROOT    
