@<TRIPOS>MOLECULE
3R540
247   249    1
SMALL
USER_CHARGES


@<TRIPOS>ATOM
      1 CA          1.9986  -11.5173  -50.5598 C.3       0 UNK        -0.1800 
      2 C           2.0221  -12.2139  -49.2071 C.2       0 UNK         0.5000 
      3 O           3.0983  -12.5149  -48.6886 O.2       0 UNK        -0.5000 
      4 N           0.8429  -12.4644  -48.6253 N.am      1 UNK        -0.5000 
      5 CA          0.6500  -13.1409  -47.3365 C.3       1 UNK         0.1400 
      6 C6         -0.7446  -13.8171  -47.2264 C.3       23 UNK        -0.0398 
      7 S7         -1.1092  -14.9111  -48.6387 S.3       23 UNK        -0.2404 
      8 C8         -0.6022  -16.5415  -48.0100 C.3       23 UNK        -0.0205 
      9 C9         -0.1685  -17.4463  -49.1548 C.ar      23 UNK        -0.0193 
     10 C10        -1.0696  -17.8020  -50.1646 C.ar      23 UNK        -0.1150 
     11 C11        -0.6469  -18.5480  -51.2690 C.ar      23 UNK        -0.0193 
     12 C12         0.6858  -18.9691  -51.3367 C.ar      23 UNK        -0.1150 
     13 C13         1.5907  -18.6524  -50.3180 C.ar      23 UNK        -0.0193 
     14 C14         1.1557  -17.8830  -49.2340 C.ar      23 UNK        -0.1150 
     15 C15         3.0498  -19.0851  -50.4370 C.3       23 UNK        -0.0205 
     16 S16         3.7600  -19.7233  -48.8825 S.3       23 UNK        -0.2404 
     17 C17         2.7509  -21.2174  -48.6193 C.3       23 UNK        -0.0398 
     18 CA          3.4793  -22.2579  -47.7343 C.3       11 UNK         0.1400 
     19 N           3.6523  -21.7695  -46.3610 N.am      11 UNK        -0.5000 
     20 C           4.5628  -22.2341  -45.4961 C.2       10 UNK         0.5000 
     21 O           5.4080  -23.0827  -45.7825 O.2       10 UNK        -0.5000 
     22 CA          4.4912  -21.6891  -44.0570 C.3       10 UNK         0.1400 
     23 CB          5.2579  -20.3633  -43.9392 C.3       10 UNK        -0.1800 
     24 N           3.1165  -21.5129  -43.5786 N.am      10 UNK        -0.5000 
     25 C           2.2419  -22.5139  -43.3972 C.2       9 UNK         0.5000 
     26 O           2.5137  -23.6993  -43.5859 O.2       9 UNK        -0.5000 
     27 CA          0.8106  -22.1370  -42.9741 C.3       9 UNK         0.1400 
     28 CB          0.7300  -21.9523  -41.4519 C.3       9 UNK        -0.1800 
     29 N           0.2990  -20.9421  -43.6470 N.am      9 UNK        -0.5000 
     30 C           0.1112  -20.8303  -44.9704 C.2       8 UNK         0.5000 
     31 O           0.3516  -21.7309  -45.7726 O.2       8 UNK        -0.5000 
     32 CA         -0.3585  -19.4599  -45.4931 C.3       8 UNK         0.1400 
     33 CB         -1.8495  -19.2390  -45.1989 C.3       8 UNK        -0.1800 
     34 N           0.4257  -18.3599  -44.9320 N.am      8 UNK        -0.5000 
     35 C           1.7519  -18.2246  -45.0820 C.2       7 UNK         0.5000 
     36 O           2.4460  -18.9732  -45.7689 O.2       7 UNK        -0.5000 
     37 CA          2.4203  -17.1023  -44.2724 C.3       7 UNK         0.1400 
     38 CB          2.2733  -15.7451  -44.9794 C.3       7 UNK        -0.1800 
     39 N           1.8810  -17.0360  -42.9117 N.am      7 UNK        -0.5000 
     40 C           2.1197  -17.9641  -41.9716 C.2       6 UNK         0.5000 
     41 O           2.8772  -18.9192  -42.1365 O.2       6 UNK        -0.5000 
     42 CA          1.3465  -17.8434  -40.6462 C.3       6 UNK         0.1400 
     43 CB          2.1272  -17.0146  -39.6182 C.3       6 UNK        -0.1800 
     44 N           0.0090  -17.2807  -40.8344 N.am      6 UNK        -0.5000 
     45 C          -1.0042  -17.9666  -41.3839 C.2       5 UNK         0.5000 
     46 O          -0.9077  -19.1369  -41.7493 O.2       5 UNK        -0.5000 
     47 CA         -2.3352  -17.2247  -41.6033 C.3       5 UNK         0.1400 
     48 CB         -3.2591  -17.4094  -40.3908 C.3       5 UNK        -0.1800 
     49 N          -2.1755  -15.7965  -41.8728 N.am      5 UNK        -0.5000 
     50 C          -1.5151  -15.2746  -42.9144 C.2       4 UNK         0.5000 
     51 O          -0.9565  -15.9554  -43.7774 O.2       4 UNK        -0.5000 
     52 CA         -1.4314  -13.7369  -42.9939 C.3       4 UNK         0.1400 
     53 CB         -2.3376  -12.9985  -41.9834 C.3       4 UNK        -0.1800 
     54 N          -0.0536  -13.2517  -42.8768 N.am      4 UNK        -0.5000 
     55 C           0.8205  -13.4945  -41.8863 C.2       3 UNK         0.5000 
     56 O           0.5729  -14.2329  -40.9319 O.2       3 UNK        -0.5000 
     57 CA          2.2024  -12.8099  -41.9738 C.3       3 UNK         0.1400 
     58 CB          3.3469  -13.7651  -41.5942 C.3       3 UNK        -0.1800 
     59 N           2.4641  -12.2666  -43.3086 N.am      3 UNK        -0.5000 
     60 C           2.3862  -10.9726  -43.6432 C.2       2 UNK         0.5000 
     61 O           2.1347  -10.0685  -42.8459 O.2       2 UNK        -0.5000 
     62 CA          2.5977  -10.6331  -45.1317 C.3       2 UNK         0.1400 
     63 CB          4.0749  -10.3125  -45.4048 C.3       2 UNK        -0.1800 
     64 N           2.1576  -11.6770  -46.0646 N.am      2 UNK        -0.5000 
     65 C           0.9113  -12.1562  -46.1755 C.2       1 UNK         0.5000 
     66 O          -0.0070  -11.8264  -45.4242 O.2       1 UNK        -0.5000 
     67 C           2.7406  -23.6147  -47.7922 C.2       11 UNK         0.5000 
     68 O           2.7724  -24.2625  -48.8388 O.2       11 UNK        -0.5000 
     69 N           2.0713  -24.0025  -46.6943 N.am      12 UNK        -0.5000 
     70 CA          1.1106  -25.1067  -46.5741 C.3       12 UNK         0.1400 
     71 CB          1.8058  -26.4733  -46.7427 C.3       12 UNK        -0.1800 
     72 C          -0.0986  -24.9086  -47.5151 C.2       12 UNK         0.5000 
     73 O          -0.5654  -25.8555  -48.1508 O.2       12 UNK        -0.5000 
     74 N          -0.5496  -23.6540  -47.6051 N.am      13 UNK        -0.5000 
     75 CA         -1.5632  -23.1662  -48.5265 C.3       13 UNK         0.1400 
     76 CB         -1.0615  -21.8289  -49.0975 C.3       13 UNK        -0.1800 
     77 C          -2.9004  -22.9413  -47.8117 C.2       13 UNK         0.5000 
     78 O          -2.9172  -22.6024  -46.6260 O.2       13 UNK        -0.5000 
     79 N          -3.9990  -23.0684  -48.5674 N.am      14 UNK        -0.5000 
     80 CA         -5.3382  -22.6685  -48.1290 C.3       14 UNK         0.1400 
     81 CB         -6.3847  -23.2634  -49.0800 C.3       14 UNK        -0.1800 
     82 C          -5.4917  -21.1369  -48.0621 C.2       14 UNK         0.5000 
     83 O          -6.1763  -20.6358  -47.1703 O.2       14 UNK        -0.5000 
     84 N          -4.8517  -20.4342  -49.0110 N.am      15 UNK        -0.5000 
     85 CA         -4.7122  -18.9788  -49.1723 C.3       15 UNK         0.1400 
     86 CB         -3.9363  -18.3737  -47.9909 C.3       15 UNK        -0.1800 
     87 C          -6.0113  -18.1901  -49.4398 C.2       15 UNK         0.5000 
     88 O          -5.9913  -17.2631  -50.2495 O.2       15 UNK        -0.5000 
     89 N          -7.1101  -18.5555  -48.7701 N.am      16 UNK        -0.5000 
     90 CA         -8.4442  -17.9818  -48.9623 C.3       16 UNK         0.1400 
     91 CB         -9.3076  -18.3089  -47.7344 C.3       16 UNK        -0.1800 
     92 C          -9.1222  -18.4885  -50.2504 C.2       16 UNK         0.5000 
     93 O          -9.9594  -17.7858  -50.8186 O.2       16 UNK        -0.5000 
     94 N          -8.7439  -19.6977  -50.6807 N.am      17 UNK        -0.5000 
     95 CA         -9.1420  -20.3168  -51.9421 C.3       17 UNK         0.1400 
     96 CB         -9.1272  -21.8428  -51.7449 C.3       17 UNK        -0.1800 
     97 C          -8.2144  -19.8777  -53.0953 C.2       17 UNK         0.5000 
     98 O          -7.2898  -19.0876  -52.8882 O.2       17 UNK        -0.5000 
     99 N          -8.4807  -20.4007  -54.2994 N.am      18 UNK        -0.5000 
    100 CA        -7.6758  -20.1935  -55.5066 C.3       18 UNK         0.1400 
    101 CB        -8.3911  -20.8641  -56.6905 C.3       18 UNK        -0.1800 
    102 C         -6.2405  -20.7425  -55.3734 C.2       18 UNK         0.5000 
    103 O         -5.9932  -21.6321  -54.5570 O.2       18 UNK        -0.5000 
    104 N         -5.3309  -20.2388  -56.2197 N.am      19 UNK        -0.5000 
    105 CA        -3.8953  -20.5534  -56.2267 C.3       19 UNK         0.1400 
    106 CB        -3.2052  -19.7176  -57.3147 C.3       19 UNK        -0.1800 
    107 C         -3.5461  -22.0471  -56.3940 C.2       19 UNK         0.5000 
    108 O         -2.4714  -22.4659  -55.9650 O.2       19 UNK        -0.5000 
    109 N         -4.4678  -22.8394  -56.9591 N.am      20 UNK        -0.5000 
    110 CA        -4.3871  -24.3013  -57.0263 C.3       20 UNK         0.1400 
    111 CB        -5.5658  -24.8280  -57.8584 C.3       20 UNK        -0.1800 
    112 C         -4.3614  -24.9779  -55.6380 C.2       20 UNK         0.5000 
    113 O         -3.7623  -26.0439  -55.4947 O.2       20 UNK        -0.5000 
    114 N         -4.9722  -24.3313  -54.6352 N.am      21 UNK        -0.5000 
    115 CA        -4.9822  -24.7546  -53.2347 C.3       21 UNK         0.1400 
    116 CB        -6.3292  -24.3581  -52.6147 C.3       21 UNK        -0.1800 
    117 C         -3.7984  -24.1747  -52.4295 C.2       21 UNK         0.5000 
    118 O         -3.7451  -24.3685  -51.2128 O.2       21 UNK        -0.5000 
    119 N         -2.8707  -23.4827  -53.1040 N.am      22 UNK        -0.5000 
    120 CA        -1.5794  -23.0436  -52.5540 C.3       22 UNK         0.1400 
    121 C         -0.4005  -23.9833  -52.9454 C.2       22 UNK         0.5000 
    122 N         -0.6202  -25.0708  -53.6764 N.am      22 UNK        -0.7600 
    123 O          0.7389  -23.7321  -52.5646 O.2       22 UNK        -0.5000 
    124 C124       -1.2608  -21.5670  -52.8970 C.3       23 UNK        -0.0398 
    125 S125       -2.5073  -20.3913  -52.2688 S.3       23 UNK        -0.2404 
    126 C126       -1.6080  -18.8149  -52.4240 C.3       23 UNK        -0.0205 
    127 H127        2.5343  -10.5697  -50.5030 H         1 UNK         0.0600 
    128 H128        0.9807  -11.3139  -50.8933 H         1 UNK         0.0600 
    129 H129        2.4842  -12.1407  -51.3106 H         1 UNK         0.0600 
    130 H130       -0.0064  -12.1858  -49.0958 H         1 UNK         0.3000 
    131 H131        1.3958  -13.9342  -47.2545 H         1 UNK         0.0600 
    132 H132       -0.8271  -14.3867  -46.2988 H         1 UNK         0.0800 
    133 H133       -1.5338  -13.0640  -47.1907 H         1 UNK         0.0800 
    134 H134        0.2130  -16.4188  -47.2959 H         1 UNK         0.0800 
    135 H135       -1.4259  -16.9957  -47.4620 H         1 UNK         0.0800 
    136 H136       -2.0882  -17.4454  -50.1173 H         1 UNK         0.1150 
    137 H137        1.0307  -19.5177  -52.2009 H         1 UNK         0.1150 
    138 H138        1.8583  -17.6054  -48.4608 H         1 UNK         0.1150 
    139 H139        3.1659  -19.8442  -51.2122 H         1 UNK         0.0800 
    140 H140        3.6375  -18.2248  -50.7591 H         1 UNK         0.0800 
    141 H141        1.8000  -20.9238  -48.1707 H         1 UNK         0.0800 
    142 H142        2.5135  -21.6399  -49.5979 H         1 UNK         0.0800 
    143 H143        4.4688  -22.4290  -48.1639 H         1 UNK         0.0600 
    144 H144        3.0332  -21.0213  -46.0667 H         1 UNK         0.3000 
    145 H145        4.9774  -22.4178  -43.4051 H         1 UNK         0.0600 
    146 H146        5.2953  -20.0202  -42.9053 H         1 UNK         0.0600 
    147 H147        4.7978  -19.5765  -44.5372 H         1 UNK         0.0600 
    148 H148        6.2875  -20.4755  -44.2810 H         1 UNK         0.0600 
    149 H149        2.8348  -20.5656  -43.3493 H         1 UNK         0.3000 
    150 H150        0.1580  -22.9687  -43.2476 H         1 UNK         0.0600 
    151 H151        1.0814  -22.8437  -40.9308 H         1 UNK         0.0600 
    152 H152       -0.2955  -21.7717  -41.1297 H         1 UNK         0.0600 
    153 H153        1.3407  -21.1141  -41.1167 H         1 UNK         0.0600 
    154 H154        0.0280  -20.1685  -43.0460 H         1 UNK         0.3000 
    155 H155       -0.2172  -19.4443  -46.5757 H         1 UNK         0.0600 
    156 H156       -2.4587  -19.9814  -45.7156 H         1 UNK         0.0600 
    157 H157       -2.1802  -18.2543  -45.5277 H         1 UNK         0.0600 
    158 H158       -2.0713  -19.3238  -44.1360 H         1 UNK         0.0600 
    159 H159       -0.0730  -17.6742  -44.3744 H         1 UNK         0.3000 
    160 H160        3.4864  -17.3310  -44.2089 H         1 UNK         0.0600 
    161 H161        1.2375  -15.4112  -45.0176 H         1 UNK         0.0600 
    162 H162        2.6360  -15.8042  -46.0065 H         1 UNK         0.0600 
    163 H163        2.8584  -14.9761  -44.4788 H         1 UNK         0.0600 
    164 H164        1.1884  -16.3254  -42.7241 H         1 UNK         0.3000 
    165 H165        1.2391  -18.8500  -40.2369 H         1 UNK         0.0600 
    166 H166        1.6118  -16.9912  -38.6580 H         1 UNK         0.0600 
    167 H167        3.1175  -17.4384  -39.4465 H         1 UNK         0.0600 
    168 H168        2.2639  -15.9875  -39.9485 H         1 UNK         0.0600 
    169 H169       -0.1152  -16.3010  -40.6057 H         1 UNK         0.3000 
    170 H170       -2.8206  -17.6714  -42.4730 H         1 UNK         0.0600 
    171 H171       -3.4180  -18.4677  -40.1789 H         1 UNK         0.0600 
    172 H172       -2.8403  -16.9538  -39.4926 H         1 UNK         0.0600 
    173 H173       -4.2384  -16.9648  -40.5688 H         1 UNK         0.0600 
    174 H174       -2.5779  -15.1632  -41.1975 H         1 UNK         0.3000 
    175 H175       -1.7711  -13.4698  -43.9954 H         1 UNK         0.0600 
    176 H176       -2.0412  -13.1824  -40.9500 H         1 UNK         0.0600 
    177 H177       -2.2981  -11.9214  -42.1469 H         1 UNK         0.0600 
    178 H178       -3.3807  -13.2977  -42.0939 H         1 UNK         0.0600 
    179 H179        0.2348  -12.6371  -43.6305 H         1 UNK         0.3000 
    180 H180        2.1945  -12.0033  -41.2382 H         1 UNK         0.0600 
    181 H181        3.2934  -14.0309  -40.5388 H         1 UNK         0.0600 
    182 H182        4.3192  -13.2983  -41.7525 H         1 UNK         0.0600 
    183 H183        3.3215  -14.6887  -42.1711 H         1 UNK         0.0600 
    184 H184        2.6785  -12.9318  -44.0363 H         1 UNK         0.3000 
    185 H185        2.0100   -9.7381  -45.3455 H         1 UNK         0.0600 
    186 H186        4.4315   -9.5179  -44.7479 H         1 UNK         0.0600 
    187 H187        4.7114  -11.1834  -45.2434 H         1 UNK         0.0600 
    188 H188        4.2221   -9.9748  -46.4309 H         1 UNK         0.0600 
    189 H189        2.8284  -11.9696  -46.7687 H         1 UNK         0.3000 
    190 H190        2.1117  -23.3864  -45.8930 H         1 UNK         0.3000 
    191 H191        0.7181  -25.0589  -45.5573 H         1 UNK         0.0600 
    192 H192        1.1178  -27.2893  -46.5193 H         1 UNK         0.0600 
    193 H193        2.6537  -26.5687  -46.0644 H         1 UNK         0.0600 
    194 H194        2.1698  -26.6236  -47.7593 H         1 UNK         0.0600 
    195 H195       -0.1683  -22.9561  -46.9676 H         1 UNK         0.3000 
    196 H196       -1.7101  -23.8813  -49.3374 H         1 UNK         0.0600 
    197 H197       -0.8079  -21.1209  -48.3080 H         1 UNK         0.0600 
    198 H198       -0.1761  -21.9680  -49.7181 H         1 UNK         0.0600 
    199 H199       -1.8234  -21.3536  -49.7117 H         1 UNK         0.0600 
    200 H200       -3.9117  -23.4173  -49.5189 H         1 UNK         0.3000 
    201 H201       -5.5139  -23.0711  -47.1291 H         1 UNK         0.0600 
    202 H202       -7.3963  -23.0097  -48.7604 H         1 UNK         0.0600 
    203 H203       -6.3155  -24.3508  -49.1127 H         1 UNK         0.0600 
    204 H204       -6.2549  -22.8863  -50.0939 H         1 UNK         0.0600 
    205 H205       -4.3578  -20.9730  -49.7079 H         1 UNK         0.3000 
    206 H206       -4.0960  -18.8495  -50.0632 H         1 UNK         0.0600 
    207 H207       -2.9576  -18.8433  -47.8958 H         1 UNK         0.0600 
    208 H208       -3.7752  -17.3047  -48.1354 H         1 UNK         0.0600 
    209 H209       -4.4652  -18.4994  -47.0459 H         1 UNK         0.0600 
    210 H210       -7.0130  -19.3034  -48.0866 H         1 UNK         0.3000 
    211 H211       -8.3521  -16.8963  -49.0378 H         1 UNK         0.0600 
    212 H212       -9.4221  -19.3852  -47.5983 H         1 UNK         0.0600 
    213 H213      -10.3061  -17.8812  -47.8333 H         1 UNK         0.0600 
    214 H214       -8.8681  -17.9009  -46.8241 H         1 UNK         0.0600 
    215 H215       -8.0102  -20.1623  -50.1688 H         1 UNK         0.3000 
    216 H216      -10.1587  -20.0092  -52.1953 H         1 UNK         0.0600 
    217 H217       -9.8167  -22.1414  -50.9550 H         1 UNK         0.0600 
    218 H218       -8.1359  -22.1973  -51.4681 H         1 UNK         0.0600 
    219 H219       -9.4281  -22.3734  -52.6486 H         1 UNK         0.0600 
    220 H220       -9.2435  -21.0557  -54.3844 H         1 UNK         0.3000 
    221 H221       -7.6166  -19.1188  -55.6907 H         1 UNK         0.0600 
    222 H222       -7.8517  -20.6988  -57.6239 H         1 UNK         0.0600 
    223 H223       -8.4782  -21.9423  -56.5488 H         1 UNK         0.0600 
    224 H224       -9.3952  -20.4611  -56.8248 H         1 UNK         0.0600 
    225 H225       -5.6275  -19.5331  -56.8784 H         1 UNK         0.3000 
    226 H226       -3.4960  -20.2447  -55.2585 H         1 UNK         0.0600 
    227 H227       -3.3454  -18.6504  -57.1420 H         1 UNK         0.0600 
    228 H228       -2.1302  -19.9031  -57.3283 H         1 UNK         0.0600 
    229 H229       -3.5918  -19.9526  -58.3071 H         1 UNK         0.0600 
    230 H230       -5.3246  -22.4162  -57.2830 H         1 UNK         0.3000 
    231 H231       -3.4588  -24.5632  -57.5382 H         1 UNK         0.0600 
    232 H232       -5.5251  -25.9143  -57.9494 H         1 UNK         0.0600 
    233 H233       -5.5509  -24.4179  -58.8684 H         1 UNK         0.0600 
    234 H234       -6.5243  -24.5719  -57.4049 H         1 UNK         0.0600 
    235 H235       -5.3965  -23.4242  -54.8145 H         1 UNK         0.3000 
    236 H236       -4.9014  -25.8422  -53.1857 H         1 UNK         0.0600 
    237 H237       -7.1653  -24.7173  -53.2147 H         1 UNK         0.0600 
    238 H238       -6.4410  -24.7850  -51.6182 H         1 UNK         0.0600 
    239 H239       -6.4180  -23.2760  -52.5284 H         1 UNK         0.0600 
    240 H240       -2.9895  -23.3343  -54.0984 H         1 UNK         0.3000 
    241 H241       -1.6247  -23.1060  -51.4701 H         1 UNK         0.0600 
    242 H242       -1.5462  -25.3019  -54.0003 H         1 UNK         0.3800 
    243 H243        0.1556  -25.6688  -53.9138 H         1 UNK         0.3800 
    244 H244       -1.1582  -21.4300  -53.9735 H         1 UNK         0.0800 
    245 H245       -0.2990  -21.2982  -52.4635 H         1 UNK         0.0800 
    246 H246       -2.3411  -18.0088  -52.4791 H         1 UNK         0.0800 
    247 H247       -1.0714  -18.7919  -53.3737 H         1 UNK         0.0800 
@<TRIPOS>BOND
     1    1    2 1    
     2    1  127 1    
     3    1  128 1    
     4    1  129 1    
     5    2    3 2    
     6    2    4 am   BACKBONE|DICT|INTERRES
     7    4    5 1    
     8    4  130 1    
     9    5    6 1    
    10    5   65 1    
    11    5  131 1    
    12    6    7 1    
    13    6  132 1    
    14    6  133 1    
    15    7    8 1    
    16    8    9 1    
    17    8  134 1    
    18    8  135 1    
    19    9   10 ar   
    20    9   14 ar   
    21   10   11 ar   
    22   10  136 1    
    23   11   12 ar   
    24   11  126 1    
    25   12   13 ar   
    26   12  137 1    
    27   13   14 ar   
    28   13   15 1    
    29   14  138 1    
    30   15   16 1    
    31   15  139 1    
    32   15  140 1    
    33   16   17 1    
    34   17   18 1    
    35   17  141 1    
    36   17  142 1    
    37   18   19 1    
    38   18   67 1    
    39   18  143 1    
    40   19   20 am   BACKBONE|DICT|INTERRES
    41   19  144 1    
    42   20   21 2    
    43   20   22 1    
    44   22   23 1    
    45   22   24 1    
    46   22  145 1    
    47   23  146 1    
    48   23  147 1    
    49   23  148 1    
    50   24   25 am   BACKBONE|DICT|INTERRES
    51   24  149 1    
    52   25   26 2    
    53   25   27 1    
    54   27   28 1    
    55   27   29 1    
    56   27  150 1    
    57   28  151 1    
    58   28  152 1    
    59   28  153 1    
    60   29   30 am   BACKBONE|DICT|INTERRES
    61   29  154 1    
    62   30   31 2    
    63   30   32 1    
    64   32   33 1    
    65   32   34 1    
    66   32  155 1    
    67   33  156 1    
    68   33  157 1    
    69   33  158 1    
    70   34   35 am   BACKBONE|DICT|INTERRES
    71   34  159 1    
    72   35   36 2    
    73   35   37 1    
    74   37   38 1    
    75   37   39 1    
    76   37  160 1    
    77   38  161 1    
    78   38  162 1    
    79   38  163 1    
    80   39   40 am   BACKBONE|DICT|INTERRES
    81   39  164 1    
    82   40   41 2    
    83   40   42 1    
    84   42   43 1    
    85   42   44 1    
    86   42  165 1    
    87   43  166 1    
    88   43  167 1    
    89   43  168 1    
    90   44   45 am   BACKBONE|DICT|INTERRES
    91   44  169 1    
    92   45   46 2    
    93   45   47 1    
    94   47   48 1    
    95   47   49 1    
    96   47  170 1    
    97   48  171 1    
    98   48  172 1    
    99   48  173 1    
   100   49   50 am   BACKBONE|DICT|INTERRES
   101   49  174 1    
   102   50   51 2    
   103   50   52 1    
   104   52   53 1    
   105   52   54 1    
   106   52  175 1    
   107   53  176 1    
   108   53  177 1    
   109   53  178 1    
   110   54   55 am   BACKBONE|DICT|INTERRES
   111   54  179 1    
   112   55   56 2    
   113   55   57 1    
   114   57   58 1    
   115   57   59 1    
   116   57  180 1    
   117   58  181 1    
   118   58  182 1    
   119   58  183 1    
   120   59   60 am   BACKBONE|DICT|INTERRES
   121   59  184 1    
   122   60   61 2    
   123   60   62 1    
   124   62   63 1    
   125   62   64 1    
   126   62  185 1    
   127   63  186 1    
   128   63  187 1    
   129   63  188 1    
   130   64   65 am   BACKBONE|DICT|INTERRES
   131   64  189 1    
   132   65   66 2    
   133   67   68 2    
   134   67   69 am   BACKBONE|DICT|INTERRES
   135   69   70 1    
   136   69  190 1    
   137   70   71 1    
   138   70   72 1    
   139   70  191 1    
   140   71  192 1    
   141   71  193 1    
   142   71  194 1    
   143   72   73 2    
   144   72   74 am   BACKBONE|DICT|INTERRES
   145   74   75 1    
   146   74  195 1    
   147   75   76 1    
   148   75   77 1    
   149   75  196 1    
   150   76  197 1    
   151   76  198 1    
   152   76  199 1    
   153   77   78 2    
   154   77   79 am   BACKBONE|DICT|INTERRES
   155   79   80 1    
   156   79  200 1    
   157   80   81 1    
   158   80   82 1    
   159   80  201 1    
   160   81  202 1    
   161   81  203 1    
   162   81  204 1    
   163   82   83 2    
   164   82   84 am   BACKBONE|DICT|INTERRES
   165   84   85 1    
   166   84  205 1    
   167   85   86 1    
   168   85   87 1    
   169   85  206 1    
   170   86  207 1    
   171   86  208 1    
   172   86  209 1    
   173   87   88 2    
   174   87   89 am   BACKBONE|DICT|INTERRES
   175   89   90 1    
   176   89  210 1    
   177   90   91 1    
   178   90   92 1    
   179   90  211 1    
   180   91  212 1    
   181   91  213 1    
   182   91  214 1    
   183   92   93 2    
   184   92   94 am   BACKBONE|DICT|INTERRES
   185   94   95 1    
   186   94  215 1    
   187   95   96 1    
   188   95   97 1    
   189   95  216 1    
   190   96  217 1    
   191   96  218 1    
   192   96  219 1    
   193   97   98 2    
   194   97   99 am   BACKBONE|DICT|INTERRES
   195   99  100 1    
   196   99  220 1    
   197  100  101 1    
   198  100  102 1    
   199  100  221 1    
   200  101  222 1    
   201  101  223 1    
   202  101  224 1    
   203  102  103 2    
   204  102  104 am   BACKBONE|DICT|INTERRES
   205  104  105 1    
   206  104  225 1    
   207  105  106 1    
   208  105  107 1    
   209  105  226 1    
   210  106  227 1    
   211  106  228 1    
   212  106  229 1    
   213  107  108 2    
   214  107  109 am   BACKBONE|DICT|INTERRES
   215  109  110 1    
   216  109  230 1    
   217  110  111 1    
   218  110  112 1    
   219  110  231 1    
   220  111  232 1    
   221  111  233 1    
   222  111  234 1    
   223  112  113 2    
   224  112  114 am   BACKBONE|DICT|INTERRES
   225  114  115 1    
   226  114  235 1    
   227  115  116 1    
   228  115  117 1    
   229  115  236 1    
   230  116  237 1    
   231  116  238 1    
   232  116  239 1    
   233  117  118 2    
   234  117  119 am   BACKBONE|DICT|INTERRES
   235  119  120 1    
   236  119  240 1    
   237  120  121 1    
   238  120  124 1    
   239  120  241 1    
   240  121  122 am   BACKBONE|DICT|INTERRES
   241  121  123 2    
   242  122  242 1    
   243  122  243 1    
   244  124  125 1    
   245  124  244 1    
   246  124  245 1    
   247  125  126 1    
   248  126  246 1    
   249  126  247 1    
@<TRIPOS>SUBSTRUCTURE
     1 UNK         1 GROUP             0       ****    0 ROOT    
