@<TRIPOS>MOLECULE
3R540
247   249    1
SMALL
USER_CHARGES


@<TRIPOS>ATOM
      1 CA          2.2952   -8.2935  -49.5793 C.3       0 UNK        -0.1800 
      2 C           2.0843   -9.4601  -48.6245 C.2       0 UNK         0.5000 
      3 O           2.4149   -9.3511  -47.4438 O.2       0 UNK        -0.5000 
      4 N           1.5402  -10.5742  -49.1325 N.am      1 UNK        -0.5000 
      5 CA          1.2324  -11.7867  -48.3643 C.3       1 UNK         0.1400 
      6 C6          0.9296  -12.9767  -49.3109 C.3       23 UNK        -0.0398 
      7 S7          0.9186  -14.5849  -48.4522 S.3       23 UNK        -0.2404 
      8 C8          2.5523  -15.2718  -48.8690 C.3       23 UNK        -0.0205 
      9 C9          2.4044  -16.4771  -49.7787 C.ar      23 UNK        -0.0193 
     10 C10         2.2507  -16.3074  -51.1571 C.ar      23 UNK        -0.1150 
     11 C11         2.0655  -17.4156  -51.9879 C.ar      23 UNK        -0.0193 
     12 C12         2.0317  -18.6974  -51.4311 C.ar      23 UNK        -0.1150 
     13 C13         2.1976  -18.8788  -50.0556 C.ar      23 UNK        -0.0193 
     14 C14         2.3968  -17.7651  -49.2361 C.ar      23 UNK        -0.1150 
     15 C15         2.1501  -20.2746  -49.4568 C.3       23 UNK        -0.0205 
     16 S16         0.5517  -20.5768  -48.6462 S.3       23 UNK        -0.2404 
     17 C17         0.5116  -22.4005  -48.6109 C.3       23 UNK        -0.0398 
     18 CA         -0.2994  -23.0115  -47.4445 C.3       11 UNK         0.1400 
     19 N           0.3312  -22.7927  -46.1395 N.am      11 UNK        -0.5000 
     20 C           0.0325  -23.4804  -45.0286 C.2       10 UNK         0.5000 
     21 O          -0.8319  -24.3570  -45.0043 O.2       10 UNK        -0.5000 
     22 CA          0.7466  -23.1042  -43.7167 C.3       10 UNK         0.1400 
     23 CB          1.3061  -24.3420  -42.9883 C.3       10 UNK        -0.1800 
     24 N           1.7595  -22.0542  -43.8539 N.am      10 UNK        -0.5000 
     25 C           2.9582  -22.1049  -44.4516 C.2       9 UNK         0.5000 
     26 O           3.4125  -23.1077  -45.0018 O.2       9 UNK        -0.5000 
     27 CA          3.7790  -20.7983  -44.4663 C.3       9 UNK         0.1400 
     28 CB          3.7825  -20.1968  -45.8803 C.3       9 UNK        -0.1800 
     29 N           3.2845  -19.7890  -43.5243 N.am      9 UNK        -0.5000 
     30 C           3.4184  -19.8518  -42.1915 C.2       8 UNK         0.5000 
     31 O           4.0490  -20.7346  -41.6092 O.2       8 UNK        -0.5000 
     32 CA          2.6876  -18.7720  -41.3702 C.3       8 UNK         0.1400 
     33 CB          3.5176  -17.4814  -41.3084 C.3       8 UNK        -0.1800 
     34 N           1.3474  -18.4747  -41.8853 N.am      8 UNK        -0.5000 
     35 C           0.3229  -19.3409  -41.8914 C.2       7 UNK         0.5000 
     36 O           0.3899  -20.4798  -41.4310 O.2       7 UNK        -0.5000 
     37 CA         -0.9790  -18.8841  -42.5734 C.3       7 UNK         0.1400 
     38 CB         -1.8263  -18.0077  -41.6396 C.3       7 UNK        -0.1800 
     39 N          -0.7174  -18.1696  -43.8210 N.am      7 UNK        -0.5000 
     40 C          -0.2449  -18.7407  -44.9368 C.2       6 UNK         0.5000 
     41 O          -0.1059  -19.9566  -45.0744 O.2       6 UNK        -0.5000 
     42 CA          0.1664  -17.7972  -46.0788 C.3       6 UNK         0.1400 
     43 CB         -1.0041  -17.5529  -47.0425 C.3       6 UNK        -0.1800 
     44 N           0.6926  -16.5223  -45.5822 N.am      6 UNK        -0.5000 
     45 C           1.8978  -16.3805  -45.0109 C.2       5 UNK         0.5000 
     46 O           2.7050  -17.3018  -44.9036 O.2       5 UNK        -0.5000 
     47 CA          2.2437  -15.0090  -44.3970 C.3       5 UNK         0.1400 
     48 CB          3.0160  -14.1120  -45.3716 C.3       5 UNK        -0.1800 
     49 N           1.0668  -14.2995  -43.8961 N.am      5 UNK        -0.5000 
     50 C           0.4220  -14.6617  -42.7789 C.2       4 UNK         0.5000 
     51 O           0.7640  -15.6132  -42.0770 O.2       4 UNK        -0.5000 
     52 CA         -0.8357  -13.8608  -42.4029 C.3       4 UNK         0.1400 
     53 CB         -0.4534  -12.5808  -41.6451 C.3       4 UNK        -0.1800 
     54 N          -1.6777  -13.5108  -43.5478 N.am      4 UNK        -0.5000 
     55 C          -2.2580  -14.3878  -44.3817 C.2       3 UNK         0.5000 
     56 O          -2.0858  -15.6044  -44.3219 O.2       3 UNK        -0.5000 
     57 CA         -3.1655  -13.7993  -45.4713 C.3       3 UNK         0.1400 
     58 CB         -4.5873  -13.6138  -44.9019 C.3       3 UNK        -0.1800 
     59 N          -2.5825  -12.5435  -45.9451 N.am      3 UNK        -0.5000 
     60 C          -3.0864  -11.6462  -46.7963 C.2       2 UNK         0.5000 
     61 O          -4.1859  -11.7396  -47.3419 O.2       2 UNK        -0.5000 
     62 CA         -2.1832  -10.4365  -47.1076 C.3       2 UNK         0.1400 
     63 CB         -1.9105   -9.5848  -45.8513 C.3       2 UNK        -0.1800 
     64 N          -0.9349  -10.7976  -47.7910 N.am      2 UNK        -0.5000 
     65 C           0.0853  -11.5538  -47.3528 C.2       1 UNK         0.5000 
     66 O           0.1497  -12.0496  -46.2235 O.2       1 UNK        -0.5000 
     67 C          -1.7863  -22.5933  -47.4627 C.2       11 UNK         0.5000 
     68 O          -2.5591  -23.1388  -48.2535 O.2       11 UNK        -0.5000 
     69 N          -2.1713  -21.6705  -46.5666 N.am      12 UNK        -0.5000 
     70 CA         -3.5614  -21.2931  -46.3052 C.3       12 UNK         0.1400 
     71 CB         -3.6025  -20.0413  -45.4185 C.3       12 UNK        -0.1800 
     72 C          -4.3902  -22.4241  -45.6692 C.2       12 UNK         0.5000 
     73 O          -5.6080  -22.4328  -45.8381 O.2       12 UNK        -0.5000 
     74 N          -3.7271  -23.3516  -44.9660 N.am      13 UNK        -0.5000 
     75 CA         -4.3450  -24.5265  -44.3579 C.3       13 UNK         0.1400 
     76 CB         -3.7002  -24.7906  -42.9874 C.3       13 UNK        -0.1800 
     77 C          -4.2058  -25.7522  -45.2737 C.2       13 UNK         0.5000 
     78 O          -5.1934  -26.4499  -45.5013 O.2       13 UNK        -0.5000 
     79 N          -2.9893  -25.9873  -45.7878 N.am      14 UNK        -0.5000 
     80 CA         -2.6250  -27.1709  -46.5688 C.3       14 UNK         0.1400 
     81 CB         -1.0995  -27.2210  -46.7429 C.3       14 UNK        -0.1800 
     82 C          -3.3320  -27.2557  -47.9322 C.2       14 UNK         0.5000 
     83 O          -3.8152  -28.3297  -48.2927 O.2       14 UNK        -0.5000 
     84 N          -3.3962  -26.1278  -48.6538 N.am      15 UNK        -0.5000 
     85 CA         -4.0996  -26.0211  -49.9366 C.3       15 UNK         0.1400 
     86 CB         -3.2665  -25.1564  -50.8934 C.3       15 UNK        -0.1800 
     87 C          -5.5131  -25.4320  -49.7741 C.2       15 UNK         0.5000 
     88 O          -6.2547  -25.3760  -50.7543 O.2       15 UNK        -0.5000 
     89 N          -5.8439  -24.9725  -48.5572 N.am      16 UNK        -0.5000 
     90 CA         -7.1097  -24.3678  -48.1202 C.3       16 UNK         0.1400 
     91 CB         -8.2778  -25.3604  -48.2945 C.3       16 UNK        -0.1800 
     92 C          -7.4285  -22.9921  -48.7502 C.2       16 UNK         0.5000 
     93 O          -8.4997  -22.4462  -48.4798 O.2       16 UNK        -0.5000 
     94 N          -6.5198  -22.4502  -49.5733 N.am      17 UNK        -0.5000 
     95 CA         -6.7346  -21.2418  -50.3700 C.3       17 UNK         0.1400 
     96 CB         -7.6489  -21.5604  -51.5734 C.3       17 UNK        -0.1800 
     97 C          -5.4042  -20.5937  -50.7945 C.2       17 UNK         0.5000 
     98 O          -5.3076  -20.0941  -51.9141 O.2       17 UNK        -0.5000 
     99 N          -4.3975  -20.6194  -49.9070 N.am      18 UNK        -0.5000 
    100 CA        -3.0788  -19.9790  -50.0526 C.3       18 UNK         0.1400 
    101 CB        -3.2109  -18.4447  -49.9712 C.3       18 UNK        -0.1800 
    102 C         -2.3324  -20.4450  -51.3189 C.2       18 UNK         0.5000 
    103 O         -2.1288  -19.6658  -52.2526 O.2       18 UNK        -0.5000 
    104 N         -2.0061  -21.7458  -51.3436 N.am      19 UNK        -0.5000 
    105 CA        -1.3739  -22.4601  -52.4627 C.3       19 UNK         0.1400 
    106 CB         0.0649  -21.9521  -52.6973 C.3       19 UNK        -0.1800 
    107 C         -2.2363  -22.4398  -53.7450 C.2       19 UNK         0.5000 
    108 O         -1.6997  -22.3255  -54.8479 O.2       19 UNK        -0.5000 
    109 N         -3.5641  -22.5262  -53.5625 N.am      20 UNK        -0.5000 
    110 CA        -4.6084  -22.4400  -54.5908 C.3       20 UNK         0.1400 
    111 CB        -4.5726  -23.6805  -55.5075 C.3       20 UNK        -0.1800 
    112 C         -4.5483  -21.1050  -55.3633 C.2       20 UNK         0.5000 
    113 O         -4.5012  -21.0981  -56.5946 O.2       20 UNK        -0.5000 
    114 N         -4.5192  -20.0035  -54.5994 N.am      21 UNK        -0.5000 
    115 CA        -4.3275  -18.6170  -55.0289 C.3       21 UNK         0.1400 
    116 CB        -5.5400  -18.1225  -55.8452 C.3       21 UNK        -0.1800 
    117 C         -2.9769  -18.4111  -55.7451 C.2       21 UNK         0.5000 
    118 O         -2.9295  -17.7949  -56.8121 O.2       21 UNK        -0.5000 
    119 N         -1.9066  -18.9391  -55.1351 N.am      22 UNK        -0.5000 
    120 CA        -0.5216  -18.9086  -55.6354 C.3       22 UNK         0.1400 
    121 C         -0.3410  -19.6397  -56.9993 C.2       22 UNK         0.5000 
    122 N         -0.8413  -20.8607  -57.1327 N.am      22 UNK        -0.7600 
    123 O          0.2573  -19.1175  -57.9371 O.2       22 UNK        -0.5000 
    124 C124        0.0957  -17.4817  -55.6103 C.3       23 UNK        -0.0398 
    125 S125        0.1815  -16.8195  -53.9126 S.3       23 UNK        -0.2404 
    126 C126        1.9001  -17.2336  -53.4863 C.3       23 UNK        -0.0205 
    127 H127        1.7373   -7.4224  -49.2357 H         1 UNK         0.0600 
    128 H128        3.3517   -8.0286  -49.6205 H         1 UNK         0.0600 
    129 H129        1.9648   -8.5314  -50.5907 H         1 UNK         0.0600 
    130 H130        1.3047  -10.5995  -50.1147 H         1 UNK         0.3000 
    131 H131        2.1282  -12.0320  -47.7904 H         1 UNK         0.0600 
    132 H132       -0.0358  -12.8453  -49.8027 H         1 UNK         0.0800 
    133 H133        1.6628  -13.0138  -50.1174 H         1 UNK         0.0800 
    134 H134        3.0542  -15.5665  -47.9471 H         1 UNK         0.0800 
    135 H135        3.1936  -14.5218  -49.3332 H         1 UNK         0.0800 
    136 H136        2.2564  -15.3130  -51.5810 H         1 UNK         0.1150 
    137 H137        1.8745  -19.5545  -52.0699 H         1 UNK         0.1150 
    138 H138        2.5268  -17.9003  -48.1724 H         1 UNK         0.1150 
    139 H139        2.3152  -21.0211  -50.2349 H         1 UNK         0.0800 
    140 H140        2.9571  -20.3982  -48.7347 H         1 UNK         0.0800 
    141 H141        1.5350  -22.7765  -48.5683 H         1 UNK         0.0800 
    142 H142        0.1109  -22.7507  -49.5626 H         1 UNK         0.0800 
    143 H143       -0.2971  -24.0900  -47.6094 H         1 UNK         0.0600 
    144 H144        0.9837  -22.0250  -46.0698 H         1 UNK         0.3000 
    145 H145       -0.0280  -22.6770  -43.0789 H         1 UNK         0.0600 
    146 H146        1.7893  -24.0627  -42.0519 H         1 UNK         0.0600 
    147 H147        0.5080  -25.0440  -42.7435 H         1 UNK         0.0600 
    148 H148        2.0335  -24.8795  -43.5966 H         1 UNK         0.0600 
    149 H149        1.4858  -21.1613  -43.4663 H         1 UNK         0.3000 
    150 H150        4.8065  -21.0506  -44.1965 H         1 UNK         0.0600 
    151 H151        4.1825  -20.9053  -46.6066 H         1 UNK         0.0600 
    152 H152        4.4017  -19.3009  -45.9278 H         1 UNK         0.0600 
    153 H153        2.7764  -19.9260  -46.2024 H         1 UNK         0.0600 
    154 H154        2.8276  -18.9786  -43.9332 H         1 UNK         0.3000 
    155 H155        2.5744  -19.1490  -40.3516 H         1 UNK         0.0600 
    156 H156        3.6884  -17.0650  -42.3007 H         1 UNK         0.0600 
    157 H157        4.4943  -17.6684  -40.8605 H         1 UNK         0.0600 
    158 H158        3.0228  -16.7206  -40.7045 H         1 UNK         0.0600 
    159 H159        1.1863  -17.5285  -42.2169 H         1 UNK         0.3000 
    160 H160       -1.5566  -19.7801  -42.8063 H         1 UNK         0.0600 
    161 H161       -2.7633  -17.7185  -42.1159 H         1 UNK         0.0600 
    162 H162       -1.3041  -17.0961  -41.3512 H         1 UNK         0.0600 
    163 H163       -2.0772  -18.5448  -40.7242 H         1 UNK         0.0600 
    164 H164       -0.8931  -17.1706  -43.8259 H         1 UNK         0.3000 
    165 H165        0.9548  -18.3022  -46.6361 H         1 UNK         0.0600 
    166 H166       -1.8236  -17.0162  -46.5654 H         1 UNK         0.0600 
    167 H167       -0.6856  -16.9805  -47.9126 H         1 UNK         0.0600 
    168 H168       -1.4009  -18.4972  -47.4159 H         1 UNK         0.0600 
    169 H169        0.0675  -15.7304  -45.6073 H         1 UNK         0.3000 
    170 H170        2.9079  -15.2001  -43.5520 H         1 UNK         0.0600 
    171 H171        3.8676  -14.6391  -45.8033 H         1 UNK         0.0600 
    172 H172        2.3846  -13.7692  -46.1865 H         1 UNK         0.0600 
    173 H173        3.4044  -13.2289  -44.8642 H         1 UNK         0.0600 
    174 H174        0.7275  -13.5167  -44.4408 H         1 UNK         0.3000 
    175 H175       -1.4331  -14.4857  -41.7358 H         1 UNK         0.0600 
    176 H176       -1.3383  -12.0575  -41.2825 H         1 UNK         0.0600 
    177 H177        0.1649  -12.8109  -40.7763 H         1 UNK         0.0600 
    178 H178        0.1096  -11.8919  -42.2763 H         1 UNK         0.0600 
    179 H179       -1.8969  -12.5317  -43.6568 H         1 UNK         0.3000 
    180 H180       -3.1961  -14.5024  -46.3056 H         1 UNK         0.0600 
    181 H181       -4.6222  -12.8189  -44.1562 H         1 UNK         0.0600 
    182 H182       -4.9390  -14.5288  -44.4229 H         1 UNK         0.0600 
    183 H183       -5.3081  -13.3747  -45.6829 H         1 UNK         0.0600 
    184 H184       -1.6073  -12.4017  -45.6910 H         1 UNK         0.3000 
    185 H185       -2.7347   -9.8075  -47.8084 H         1 UNK         0.0600 
    186 H186       -1.3349  -10.1241  -45.0990 H         1 UNK         0.0600 
    187 H187       -1.3573   -8.6806  -46.1055 H         1 UNK         0.0600 
    188 H188       -2.8451   -9.2726  -45.3837 H         1 UNK         0.0600 
    189 H189       -0.8642  -10.4507  -48.7370 H         1 UNK         0.3000 
    190 H190       -1.4597  -21.2386  -45.9852 H         1 UNK         0.3000 
    191 H191       -4.0328  -21.0449  -47.2551 H         1 UNK         0.0600 
    192 H192       -3.1142  -19.1962  -45.9000 H         1 UNK         0.0600 
    193 H193       -3.1157  -20.2152  -44.4599 H         1 UNK         0.0600 
    194 H194       -4.6306  -19.7405  -45.2126 H         1 UNK         0.0600 
    195 H195       -2.7190  -23.2959  -44.9107 H         1 UNK         0.3000 
    196 H196       -5.4101  -24.3489  -44.1934 H         1 UNK         0.0600 
    197 H197       -4.1517  -25.6589  -42.5059 H         1 UNK         0.0600 
    198 H198       -3.8385  -23.9405  -42.3192 H         1 UNK         0.0600 
    199 H199       -2.6294  -24.9805  -43.0672 H         1 UNK         0.0600 
    200 H200       -2.2203  -25.3751  -45.5220 H         1 UNK         0.3000 
    201 H201       -2.9229  -28.0480  -45.9903 H         1 UNK         0.0600 
    202 H202       -0.5921  -27.2234  -45.7779 H         1 UNK         0.0600 
    203 H203       -0.7295  -26.3693  -47.3126 H         1 UNK         0.0600 
    204 H204       -0.7966  -28.1255  -47.2719 H         1 UNK         0.0600 
    205 H205       -2.9762  -25.2779  -48.2962 H         1 UNK         0.3000 
    206 H206       -4.2091  -27.0072  -50.3925 H         1 UNK         0.0600 
    207 H207       -2.2475  -25.5337  -50.9805 H         1 UNK         0.0600 
    208 H208       -3.6991  -25.1545  -51.8948 H         1 UNK         0.0600 
    209 H209       -3.2191  -24.1234  -50.5556 H         1 UNK         0.0600 
    210 H210       -5.1529  -25.0819  -47.8296 H         1 UNK         0.3000 
    211 H211       -7.0030  -24.1957  -47.0498 H         1 UNK         0.0600 
    212 H212       -8.5108  -25.5356  -49.3450 H         1 UNK         0.0600 
    213 H213       -9.1848  -24.9843  -47.8201 H         1 UNK         0.0600 
    214 H214       -8.0491  -26.3220  -47.8349 H         1 UNK         0.0600 
    215 H215       -5.6748  -22.9710  -49.7554 H         1 UNK         0.3000 
    216 H216       -7.2379  -20.4989  -49.7480 H         1 UNK         0.0600 
    217 H217       -7.8328  -20.6735  -52.1811 H         1 UNK         0.0600 
    218 H218       -8.6225  -21.9271  -51.2487 H         1 UNK         0.0600 
    219 H219       -7.2070  -22.3200  -52.2185 H         1 UNK         0.0600 
    220 H220       -4.5673  -21.0793  -49.0254 H         1 UNK         0.3000 
    221 H221       -2.4747  -20.2922  -49.2015 H         1 UNK         0.0600 
    222 H222       -3.8120  -18.0431  -50.7876 H         1 UNK         0.0600 
    223 H223       -3.6716  -18.1386  -49.0321 H         1 UNK         0.0600 
    224 H224       -2.2308  -17.9682  -50.0226 H         1 UNK         0.0600 
    225 H225       -2.2363  -22.3053  -50.5334 H         1 UNK         0.3000 
    226 H226       -1.2993  -23.5062  -52.1660 H         1 UNK         0.0600 
    227 H227        0.6589  -22.0116  -51.7869 H         1 UNK         0.0600 
    228 H228        0.5744  -22.5501  -53.4536 H         1 UNK         0.0600 
    229 H229        0.0795  -20.9170  -53.0359 H         1 UNK         0.0600 
    230 H230       -3.8971  -22.5719  -52.6120 H         1 UNK         0.3000 
    231 H231       -5.5644  -22.4476  -54.0659 H         1 UNK         0.0600 
    232 H232       -4.6453  -24.6003  -54.9272 H         1 UNK         0.0600 
    233 H233       -3.6554  -23.7265  -56.0953 H         1 UNK         0.0600 
    234 H234       -5.4088  -23.6713  -56.2074 H         1 UNK         0.0600 
    235 H235       -4.6051  -20.1198  -53.5909 H         1 UNK         0.3000 
    236 H236       -4.2814  -18.0224  -54.1152 H         1 UNK         0.0600 
    237 H237       -5.4544  -17.0573  -56.0626 H         1 UNK         0.0600 
    238 H238       -5.6291  -18.6443  -56.7984 H         1 UNK         0.0600 
    239 H239       -6.4697  -18.2673  -55.2949 H         1 UNK         0.0600 
    240 H240       -2.0379  -19.3841  -54.2315 H         1 UNK         0.3000 
    241 H241        0.0569  -19.5094  -54.9340 H         1 UNK         0.0600 
    242 H242       -0.7383  -21.3475  -58.0081 H         1 UNK         0.3800 
    243 H243       -1.2872  -21.3299  -56.3458 H         1 UNK         0.3800 
    244 H244        1.0995  -17.4817  -56.0382 H         1 UNK         0.0800 
    245 H245       -0.4887  -16.7966  -56.2253 H         1 UNK         0.0800 
    246 H246        2.2019  -18.1483  -53.9991 H         1 UNK         0.0800 
    247 H247        2.5631  -16.4456  -53.8465 H         1 UNK         0.0800 
@<TRIPOS>BOND
     1    1    2 1    
     2    1  127 1    
     3    1  128 1    
     4    1  129 1    
     5    2    3 2    
     6    2    4 am   BACKBONE|DICT|INTERRES
     7    4    5 1    
     8    4  130 1    
     9    5    6 1    
    10    5   65 1    
    11    5  131 1    
    12    6    7 1    
    13    6  132 1    
    14    6  133 1    
    15    7    8 1    
    16    8    9 1    
    17    8  134 1    
    18    8  135 1    
    19    9   10 ar   
    20    9   14 ar   
    21   10   11 ar   
    22   10  136 1    
    23   11   12 ar   
    24   11  126 1    
    25   12   13 ar   
    26   12  137 1    
    27   13   14 ar   
    28   13   15 1    
    29   14  138 1    
    30   15   16 1    
    31   15  139 1    
    32   15  140 1    
    33   16   17 1    
    34   17   18 1    
    35   17  141 1    
    36   17  142 1    
    37   18   19 1    
    38   18   67 1    
    39   18  143 1    
    40   19   20 am   BACKBONE|DICT|INTERRES
    41   19  144 1    
    42   20   21 2    
    43   20   22 1    
    44   22   23 1    
    45   22   24 1    
    46   22  145 1    
    47   23  146 1    
    48   23  147 1    
    49   23  148 1    
    50   24   25 am   BACKBONE|DICT|INTERRES
    51   24  149 1    
    52   25   26 2    
    53   25   27 1    
    54   27   28 1    
    55   27   29 1    
    56   27  150 1    
    57   28  151 1    
    58   28  152 1    
    59   28  153 1    
    60   29   30 am   BACKBONE|DICT|INTERRES
    61   29  154 1    
    62   30   31 2    
    63   30   32 1    
    64   32   33 1    
    65   32   34 1    
    66   32  155 1    
    67   33  156 1    
    68   33  157 1    
    69   33  158 1    
    70   34   35 am   BACKBONE|DICT|INTERRES
    71   34  159 1    
    72   35   36 2    
    73   35   37 1    
    74   37   38 1    
    75   37   39 1    
    76   37  160 1    
    77   38  161 1    
    78   38  162 1    
    79   38  163 1    
    80   39   40 am   BACKBONE|DICT|INTERRES
    81   39  164 1    
    82   40   41 2    
    83   40   42 1    
    84   42   43 1    
    85   42   44 1    
    86   42  165 1    
    87   43  166 1    
    88   43  167 1    
    89   43  168 1    
    90   44   45 am   BACKBONE|DICT|INTERRES
    91   44  169 1    
    92   45   46 2    
    93   45   47 1    
    94   47   48 1    
    95   47   49 1    
    96   47  170 1    
    97   48  171 1    
    98   48  172 1    
    99   48  173 1    
   100   49   50 am   BACKBONE|DICT|INTERRES
   101   49  174 1    
   102   50   51 2    
   103   50   52 1    
   104   52   53 1    
   105   52   54 1    
   106   52  175 1    
   107   53  176 1    
   108   53  177 1    
   109   53  178 1    
   110   54   55 am   BACKBONE|DICT|INTERRES
   111   54  179 1    
   112   55   56 2    
   113   55   57 1    
   114   57   58 1    
   115   57   59 1    
   116   57  180 1    
   117   58  181 1    
   118   58  182 1    
   119   58  183 1    
   120   59   60 am   BACKBONE|DICT|INTERRES
   121   59  184 1    
   122   60   61 2    
   123   60   62 1    
   124   62   63 1    
   125   62   64 1    
   126   62  185 1    
   127   63  186 1    
   128   63  187 1    
   129   63  188 1    
   130   64   65 am   BACKBONE|DICT|INTERRES
   131   64  189 1    
   132   65   66 2    
   133   67   68 2    
   134   67   69 am   BACKBONE|DICT|INTERRES
   135   69   70 1    
   136   69  190 1    
   137   70   71 1    
   138   70   72 1    
   139   70  191 1    
   140   71  192 1    
   141   71  193 1    
   142   71  194 1    
   143   72   73 2    
   144   72   74 am   BACKBONE|DICT|INTERRES
   145   74   75 1    
   146   74  195 1    
   147   75   76 1    
   148   75   77 1    
   149   75  196 1    
   150   76  197 1    
   151   76  198 1    
   152   76  199 1    
   153   77   78 2    
   154   77   79 am   BACKBONE|DICT|INTERRES
   155   79   80 1    
   156   79  200 1    
   157   80   81 1    
   158   80   82 1    
   159   80  201 1    
   160   81  202 1    
   161   81  203 1    
   162   81  204 1    
   163   82   83 2    
   164   82   84 am   BACKBONE|DICT|INTERRES
   165   84   85 1    
   166   84  205 1    
   167   85   86 1    
   168   85   87 1    
   169   85  206 1    
   170   86  207 1    
   171   86  208 1    
   172   86  209 1    
   173   87   88 2    
   174   87   89 am   BACKBONE|DICT|INTERRES
   175   89   90 1    
   176   89  210 1    
   177   90   91 1    
   178   90   92 1    
   179   90  211 1    
   180   91  212 1    
   181   91  213 1    
   182   91  214 1    
   183   92   93 2    
   184   92   94 am   BACKBONE|DICT|INTERRES
   185   94   95 1    
   186   94  215 1    
   187   95   96 1    
   188   95   97 1    
   189   95  216 1    
   190   96  217 1    
   191   96  218 1    
   192   96  219 1    
   193   97   98 2    
   194   97   99 am   BACKBONE|DICT|INTERRES
   195   99  100 1    
   196   99  220 1    
   197  100  101 1    
   198  100  102 1    
   199  100  221 1    
   200  101  222 1    
   201  101  223 1    
   202  101  224 1    
   203  102  103 2    
   204  102  104 am   BACKBONE|DICT|INTERRES
   205  104  105 1    
   206  104  225 1    
   207  105  106 1    
   208  105  107 1    
   209  105  226 1    
   210  106  227 1    
   211  106  228 1    
   212  106  229 1    
   213  107  108 2    
   214  107  109 am   BACKBONE|DICT|INTERRES
   215  109  110 1    
   216  109  230 1    
   217  110  111 1    
   218  110  112 1    
   219  110  231 1    
   220  111  232 1    
   221  111  233 1    
   222  111  234 1    
   223  112  113 2    
   224  112  114 am   BACKBONE|DICT|INTERRES
   225  114  115 1    
   226  114  235 1    
   227  115  116 1    
   228  115  117 1    
   229  115  236 1    
   230  116  237 1    
   231  116  238 1    
   232  116  239 1    
   233  117  118 2    
   234  117  119 am   BACKBONE|DICT|INTERRES
   235  119  120 1    
   236  119  240 1    
   237  120  121 1    
   238  120  124 1    
   239  120  241 1    
   240  121  122 am   BACKBONE|DICT|INTERRES
   241  121  123 2    
   242  122  242 1    
   243  122  243 1    
   244  124  125 1    
   245  124  244 1    
   246  124  245 1    
   247  125  126 1    
   248  126  246 1    
   249  126  247 1    
@<TRIPOS>SUBSTRUCTURE
     1 UNK         1 GROUP             0       ****    0 ROOT    
