@<TRIPOS>MOLECULE
3R540
247   249    1
SMALL
USER_CHARGES


@<TRIPOS>ATOM
      1 CA         -1.1531  -14.8481  -47.1717 C.3       0 UNK        -0.1800 
      2 C           0.2909  -14.3715  -47.1925 C.2       0 UNK         0.5000 
      3 O           0.9893  -14.4989  -46.1866 O.2       0 UNK        -0.5000 
      4 N           0.7379  -13.8228  -48.3319 N.am      1 UNK        -0.5000 
      5 CA          2.0724  -13.2555  -48.5708 C.3       1 UNK         0.1400 
      6 C6          3.2265  -14.2950  -48.4778 C.3       23 UNK        -0.0398 
      7 S7          3.1578  -15.5873  -49.7651 S.3       23 UNK        -0.2404 
      8 C8          2.0422  -16.8011  -48.9974 C.3       23 UNK        -0.0205 
      9 C9          2.1931  -18.1809  -49.6133 C.ar      23 UNK        -0.0193 
     10 C10         1.5300  -18.5010  -50.8006 C.ar      23 UNK        -0.1150 
     11 C11         1.6566  -19.7739  -51.3651 C.ar      23 UNK        -0.0193 
     12 C12         2.4604  -20.7284  -50.7284 C.ar      23 UNK        -0.1150 
     13 C13         3.1446  -20.4122  -49.5486 C.ar      23 UNK        -0.0193 
     14 C14         2.9971  -19.1388  -48.9925 C.ar      23 UNK        -0.1150 
     15 C15         4.1076  -21.4096  -48.9144 C.3       23 UNK        -0.0205 
     16 S16         3.2833  -22.7466  -47.9933 S.3       23 UNK        -0.2404 
     17 C17         2.5304  -21.8621  -46.5809 C.3       23 UNK        -0.0398 
     18 CA          1.0589  -22.2782  -46.3468 C.3       11 UNK         0.1400 
     19 N           0.5315  -21.8029  -45.0658 N.am      11 UNK        -0.5000 
     20 C          -0.6604  -22.1564  -44.5595 C.2       10 UNK         0.5000 
     21 O          -1.4130  -22.9772  -45.0852 O.2       10 UNK        -0.5000 
     22 CA         -1.1115  -21.4410  -43.2748 C.3       10 UNK         0.1400 
     23 CB         -0.4554  -22.0762  -42.0401 C.3       10 UNK        -0.1800 
     24 N          -0.8326  -20.0047  -43.3049 N.am      10 UNK        -0.5000 
     25 C          -1.3876  -19.1395  -44.1663 C.2       9 UNK         0.5000 
     26 O          -2.2404  -19.4562  -44.9960 O.2       9 UNK        -0.5000 
     27 CA         -0.8679  -17.6893  -44.1300 C.3       9 UNK         0.1400 
     28 CB         -1.5070  -16.8946  -42.9821 C.3       9 UNK        -0.1800 
     29 N           0.5886  -17.6166  -44.0227 N.am      9 UNK        -0.5000 
     30 C           1.4416  -18.0805  -44.9469 C.2       8 UNK         0.5000 
     31 O           1.0946  -18.5875  -46.0126 O.2       8 UNK        -0.5000 
     32 CA          2.9347  -18.0293  -44.5886 C.3       8 UNK         0.1400 
     33 CB          3.5127  -16.6284  -44.8332 C.3       8 UNK        -0.1800 
     34 N           3.1657  -18.4303  -43.2009 N.am      8 UNK        -0.5000 
     35 C           3.0262  -19.6856  -42.7508 C.2       7 UNK         0.5000 
     36 O           2.7174  -20.6369  -43.4682 O.2       7 UNK        -0.5000 
     37 CA          3.2295  -19.9098  -41.2411 C.3       7 UNK         0.1400 
     38 CB          4.7207  -20.0807  -40.9156 C.3       7 UNK        -0.1800 
     39 N           2.6761  -18.8260  -40.4283 N.am      7 UNK        -0.5000 
     40 C           1.3694  -18.5425  -40.3333 C.2       6 UNK         0.5000 
     41 O           0.4881  -19.1874  -40.8980 O.2       6 UNK        -0.5000 
     42 CA          0.9848  -17.3015  -39.5081 C.3       6 UNK         0.1400 
     43 CB          0.7986  -17.6727  -38.0296 C.3       6 UNK        -0.1800 
     44 N           1.9484  -16.2032  -39.6161 N.am      6 UNK        -0.5000 
     45 C           2.2744  -15.5832  -40.7571 C.2       5 UNK         0.5000 
     46 O           1.8262  -15.8970  -41.8625 O.2       5 UNK        -0.5000 
     47 CA          3.2585  -14.4087  -40.6403 C.3       5 UNK         0.1400 
     48 CB          4.3802  -14.5082  -41.6867 C.3       5 UNK        -0.1800 
     49 N           2.5364  -13.1561  -40.8265 N.am      5 UNK        -0.5000 
     50 C           1.7610  -12.5739  -39.9015 C.2       4 UNK         0.5000 
     51 O           1.6734  -12.9660  -38.7371 O.2       4 UNK        -0.5000 
     52 CA          0.9351  -11.3561  -40.3589 C.3       4 UNK         0.1400 
     53 CB          1.6780  -10.0500  -40.0398 C.3       4 UNK        -0.1800 
     54 N           0.6282  -11.3902  -41.7895 N.am      4 UNK        -0.5000 
     55 C          -0.2228  -12.2366  -42.3810 C.2       3 UNK         0.5000 
     56 O          -0.9148  -13.0452  -41.7623 O.2       3 UNK        -0.5000 
     57 CA         -0.3017  -12.1983  -43.9199 C.3       3 UNK         0.1400 
     58 CB         -1.3042  -11.1349  -44.4038 C.3       3 UNK        -0.1800 
     59 N           0.9919  -12.0649  -44.6066 N.am      3 UNK        -0.5000 
     60 C           1.8537  -11.0348  -44.6245 C.2       2 UNK         0.5000 
     61 O           1.6932   -9.9954  -43.9841 O.2       2 UNK        -0.5000 
     62 CA          3.1274  -11.1967  -45.4790 C.3       2 UNK         0.1400 
     63 CB          4.3200  -11.5801  -44.5896 C.3       2 UNK        -0.1800 
     64 N           2.9818  -12.2012  -46.5335 N.am      2 UNK        -0.5000 
     65 C           2.2757  -12.0248  -47.6593 C.2       1 UNK         0.5000 
     66 O           1.7561  -10.9530  -47.9753 O.2       1 UNK        -0.5000 
     67 C           0.1449  -21.8681  -47.5162 C.2       11 UNK         0.5000 
     68 O          -0.2259  -22.7331  -48.3070 O.2       11 UNK        -0.5000 
     69 N          -0.2524  -20.5881  -47.5642 N.am      12 UNK        -0.5000 
     70 CA         -1.1692  -20.0454  -48.5655 C.3       12 UNK         0.1400 
     71 CB         -1.3543  -18.5386  -48.3429 C.3       12 UNK        -0.1800 
     72 C          -2.5325  -20.7539  -48.5701 C.2       12 UNK         0.5000 
     73 O          -3.0193  -21.1123  -49.6389 O.2       12 UNK        -0.5000 
     74 N          -3.1048  -20.9755  -47.3784 N.am      13 UNK        -0.5000 
     75 CA         -4.3671  -21.6901  -47.1893 C.3       13 UNK         0.1400 
     76 CB         -4.7905  -21.5979  -45.7156 C.3       13 UNK        -0.1800 
     77 C          -4.3077  -23.1587  -47.6510 C.2       13 UNK         0.5000 
     78 O          -5.2588  -23.6368  -48.2705 O.2       13 UNK        -0.5000 
     79 N          -3.1929  -23.8404  -47.3557 N.am      14 UNK        -0.5000 
     80 CA         -2.9421  -25.2233  -47.7548 C.3       14 UNK         0.1400 
     81 CB         -1.7727  -25.7898  -46.9336 C.3       14 UNK        -0.1800 
     82 C          -2.6748  -25.3571  -49.2642 C.2       14 UNK         0.5000 
     83 O          -3.3520  -26.1343  -49.9394 O.2       14 UNK        -0.5000 
     84 N          -1.7000  -24.5902  -49.7701 N.am      15 UNK        -0.5000 
     85 CA         -1.2287  -24.6405  -51.1552 C.3       15 UNK         0.1400 
     86 CB          0.1374  -23.9454  -51.2570 C.3       15 UNK        -0.1800 
     87 C          -2.2332  -24.0819  -52.1806 C.2       15 UNK         0.5000 
     88 O          -2.1250  -24.4163  -53.3611 O.2       15 UNK        -0.5000 
     89 N          -3.2180  -23.2920  -51.7231 N.am      16 UNK        -0.5000 
     90 CA         -4.3590  -22.8392  -52.5203 C.3       16 UNK         0.1400 
     91 CB         -5.1928  -21.8243  -51.7250 C.3       16 UNK        -0.1800 
     92 C          -5.2639  -23.9814  -53.0173 C.2       16 UNK         0.5000 
     93 O          -5.9633  -23.7867  -54.0129 O.2       16 UNK        -0.5000 
     94 N          -5.2508  -25.1253  -52.3115 N.am      17 UNK        -0.5000 
     95 CA         -5.9131  -26.3943  -52.6441 C.3       17 UNK         0.1400 
     96 CB         -5.2291  -27.0295  -53.8722 C.3       17 UNK        -0.1800 
     97 C          -7.4451  -26.2900  -52.8163 C.2       17 UNK         0.5000 
     98 O          -8.0330  -27.0746  -53.5620 O.2       17 UNK        -0.5000 
     99 N          -8.0543  -25.2959  -52.1504 N.am      18 UNK        -0.5000 
    100 CA        -9.4557  -24.8646  -52.2623 C.3       18 UNK         0.1400 
    101 CB       -10.4200  -25.9759  -51.7978 C.3       18 UNK        -0.1800 
    102 C         -9.8347  -24.2980  -53.6526 C.2       18 UNK         0.5000 
    103 O        -11.0194  -24.0935  -53.9214 O.2       18 UNK        -0.5000 
    104 N         -8.8317  -24.0262  -54.4981 N.am      19 UNK        -0.5000 
    105 CA        -8.9647  -23.4656  -55.8433 C.3       19 UNK         0.1400 
    106 CB        -8.1218  -24.3229  -56.8031 C.3       19 UNK        -0.1800 
    107 C         -8.5138  -21.9925  -55.8979 C.2       19 UNK         0.5000 
    108 O         -8.5651  -21.3893  -56.9704 O.2       19 UNK        -0.5000 
    109 N         -8.0644  -21.4490  -54.7544 N.am      20 UNK        -0.5000 
    110 CA        -7.5049  -20.1059  -54.5596 C.3       20 UNK         0.1400 
    111 CB        -8.5594  -19.0162  -54.8461 C.3       20 UNK        -0.1800 
    112 C         -6.1844  -19.8845  -55.3291 C.2       20 UNK         0.5000 
    113 O         -5.8858  -18.7557  -55.7228 O.2       20 UNK        -0.5000 
    114 N         -5.4029  -20.9601  -55.5187 N.am      21 UNK        -0.5000 
    115 CA        -4.1784  -20.9763  -56.3293 C.3       21 UNK         0.1400 
    116 CB        -3.6790  -22.4233  -56.4698 C.3       21 UNK        -0.1800 
    117 C         -3.0505  -20.0475  -55.8284 C.2       21 UNK         0.5000 
    118 O         -2.2272  -19.6186  -56.6379 O.2       21 UNK        -0.5000 
    119 N         -3.0474  -19.7318  -54.5267 N.am      22 UNK        -0.5000 
    120 CA        -2.1524  -18.7394  -53.9041 C.3       22 UNK         0.1400 
    121 C         -2.7292  -17.2915  -53.8999 C.2       22 UNK         0.5000 
    122 N         -3.9107  -17.0279  -54.4465 N.am      22 UNK        -0.7600 
    123 O         -2.0813  -16.3754  -53.4015 O.2       22 UNK        -0.5000 
    124 C124       -1.6983  -19.1729  -52.4846 C.3       23 UNK        -0.0398 
    125 S125       -0.7183  -20.7094  -52.5163 S.3       23 UNK        -0.2404 
    126 C126        0.9871  -20.0938  -52.6968 C.3       23 UNK        -0.0205 
    127 H127       -1.6789  -14.5928  -48.0919 H         1 UNK         0.0600 
    128 H128       -1.6868  -14.3950  -46.3363 H         1 UNK         0.0600 
    129 H129       -1.1837  -15.9295  -47.0514 H         1 UNK         0.0600 
    130 H130        0.0978  -13.7282  -49.1076 H         1 UNK         0.3000 
    131 H131        2.0621  -12.8725  -49.5926 H         1 UNK         0.0600 
    132 H132        4.1871  -13.7913  -48.5998 H         1 UNK         0.0800 
    133 H133        3.2630  -14.7694  -47.4986 H         1 UNK         0.0800 
    134 H134        2.2168  -16.8528  -47.9224 H         1 UNK         0.0800 
    135 H135        1.0166  -16.4593  -49.1293 H         1 UNK         0.0800 
    136 H136        0.9316  -17.7477  -51.2917 H         1 UNK         0.1150 
    137 H137        2.5795  -21.7092  -51.1671 H         1 UNK         0.1150 
    138 H138        3.5237  -18.8833  -48.0839 H         1 UNK         0.1150 
    139 H139        4.7173  -21.8578  -49.7001 H         1 UNK         0.0800 
    140 H140        4.8066  -20.8996  -48.2496 H         1 UNK         0.0800 
    141 H141        2.6114  -20.7833  -46.7127 H         1 UNK         0.0800 
    142 H142        3.1251  -22.1015  -45.6988 H         1 UNK         0.0800 
    143 H143        1.0365  -23.3692  -46.2941 H         1 UNK         0.0600 
    144 H144        1.1157  -21.1557  -44.5465 H         1 UNK         0.3000 
    145 H145       -2.1924  -21.5682  -43.1870 H         1 UNK         0.0600 
    146 H146       -0.8419  -21.6377  -41.1200 H         1 UNK         0.0600 
    147 H147       -0.6558  -23.1475  -41.9984 H         1 UNK         0.0600 
    148 H148        0.6267  -21.9434  -42.0454 H         1 UNK         0.0600 
    149 H149       -0.1844  -19.6550  -42.6040 H         1 UNK         0.3000 
    150 H150       -1.1534  -17.2139  -45.0693 H         1 UNK         0.0600 
    151 H151       -2.5941  -16.8916  -43.0682 H         1 UNK         0.0600 
    152 H152       -1.1756  -15.8556  -42.9899 H         1 UNK         0.0600 
    153 H153       -1.2551  -17.3176  -42.0097 H         1 UNK         0.0600 
    154 H154        0.9682  -17.1787  -43.1894 H         1 UNK         0.3000 
    155 H155        3.4638  -18.7308  -45.2374 H         1 UNK         0.0600 
    156 H156        2.9369  -15.8559  -44.3232 H         1 UNK         0.0600 
    157 H157        4.5480  -16.5581  -44.4994 H         1 UNK         0.0600 
    158 H158        3.4983  -16.3940  -45.8962 H         1 UNK         0.0600 
    159 H159        3.3507  -17.6912  -42.5389 H         1 UNK         0.3000 
    160 H160        2.7134  -20.8333  -40.9702 H         1 UNK         0.0600 
    161 H161        5.2897  -19.1776  -41.1399 H         1 UNK         0.0600 
    162 H162        5.1554  -20.8955  -41.4962 H         1 UNK         0.0600 
    163 H163        4.8694  -20.3189  -39.8622 H         1 UNK         0.0600 
    164 H164        3.3328  -18.2436  -39.9301 H         1 UNK         0.3000 
    165 H165        0.0289  -16.9378  -39.8904 H         1 UNK         0.0600 
    166 H166        0.4349  -16.8224  -37.4523 H         1 UNK         0.0600 
    167 H167        0.0686  -18.4756  -37.9177 H         1 UNK         0.0600 
    168 H168        1.7317  -18.0118  -37.5782 H         1 UNK         0.0600 
    169 H169        2.3360  -15.8595  -38.7489 H         1 UNK         0.3000 
    170 H170        3.7189  -14.4172  -39.6499 H         1 UNK         0.0600 
    171 H171        3.9904  -14.4702  -42.7033 H         1 UNK         0.0600 
    172 H172        5.0962  -13.6939  -41.5742 H         1 UNK         0.0600 
    173 H173        4.9313  -15.4434  -41.5811 H         1 UNK         0.0600 
    174 H174        2.5081  -12.7881  -41.7649 H         1 UNK         0.3000 
    175 H175       -0.0053  -11.3633  -39.8039 H         1 UNK         0.0600 
    176 H176        1.0746   -9.1801  -40.2997 H         1 UNK         0.0600 
    177 H177        2.6202   -9.9797  -40.5851 H         1 UNK         0.0600 
    178 H178        1.9071   -9.9802  -38.9756 H         1 UNK         0.0600 
    179 H179        1.1267  -10.7380  -42.3903 H         1 UNK         0.3000 
    180 H180       -0.6891  -13.1710  -44.2273 H         1 UNK         0.0600 
    181 H181       -0.9974  -10.1267  -44.1243 H         1 UNK         0.0600 
    182 H182       -2.2907  -11.3061  -43.9714 H         1 UNK         0.0600 
    183 H183       -1.4147  -11.1641  -45.4879 H         1 UNK         0.0600 
    184 H184        1.2402  -12.8836  -45.1562 H         1 UNK         0.3000 
    185 H185        3.3409  -10.2303  -45.9406 H         1 UNK         0.0600 
    186 H186        4.4677  -10.8488  -43.7936 H         1 UNK         0.0600 
    187 H187        4.1749  -12.5526  -44.1197 H         1 UNK         0.0600 
    188 H188        5.2442  -11.6212  -45.1663 H         1 UNK         0.0600 
    189 H189        3.3391  -13.1218  -46.3250 H         1 UNK         0.3000 
    190 H190        0.1248  -19.9269  -46.8894 H         1 UNK         0.3000 
    191 H191       -0.7053  -20.1959  -49.5414 H         1 UNK         0.0600 
    192 H192       -0.3950  -18.0315  -48.2853 H         1 UNK         0.0600 
    193 H193       -1.9168  -18.0895  -49.1621 H         1 UNK         0.0600 
    194 H194       -1.8916  -18.3282  -47.4183 H         1 UNK         0.0600 
    195 H195       -2.6530  -20.6129  -46.5437 H         1 UNK         0.3000 
    196 H196       -5.1249  -21.1859  -47.7925 H         1 UNK         0.0600 
    197 H197       -5.7413  -22.1056  -45.5489 H         1 UNK         0.0600 
    198 H198       -4.9166  -20.5601  -45.4064 H         1 UNK         0.0600 
    199 H199       -4.0526  -22.0549  -45.0556 H         1 UNK         0.0600 
    200 H200       -2.4665  -23.3818  -46.8152 H         1 UNK         0.3000 
    201 H201       -3.8308  -25.8133  -47.5206 H         1 UNK         0.0600 
    202 H202       -2.0016  -25.7809  -45.8678 H         1 UNK         0.0600 
    203 H203       -0.8577  -25.2145  -47.0803 H         1 UNK         0.0600 
    204 H204       -1.5616  -26.8226  -47.2133 H         1 UNK         0.0600 
    205 H205       -1.2095  -23.9383  -49.1570 H         1 UNK         0.3000 
    206 H206       -1.0787  -25.6910  -51.4126 H         1 UNK         0.0600 
    207 H207        0.8859  -24.4601  -50.6545 H         1 UNK         0.0600 
    208 H208        0.4994  -23.9289  -52.2856 H         1 UNK         0.0600 
    209 H209        0.0893  -22.9150  -50.9080 H         1 UNK         0.0600 
    210 H210       -3.1847  -22.9799  -50.7596 H         1 UNK         0.3000 
    211 H211       -3.9633  -22.3325  -53.3992 H         1 UNK         0.0600 
    212 H212       -5.4292  -22.1928  -50.7262 H         1 UNK         0.0600 
    213 H213       -6.1381  -21.6067  -52.2202 H         1 UNK         0.0600 
    214 H214       -4.6636  -20.8779  -51.6202 H         1 UNK         0.0600 
    215 H215       -4.6490  -25.1634  -51.4968 H         1 UNK         0.3000 
    216 H216       -5.7481  -27.0556  -51.7924 H         1 UNK         0.0600 
    217 H217       -5.5996  -28.0391  -54.0529 H         1 UNK         0.0600 
    218 H218       -4.1510  -27.1026  -53.7278 H         1 UNK         0.0600 
    219 H219       -5.4064  -26.4472  -54.7774 H         1 UNK         0.0600 
    220 H220       -7.4709  -24.7196  -51.5601 H         1 UNK         0.3000 
    221 H221       -9.5637  -24.0313  -51.5668 H         1 UNK         0.0600 
    222 H222      -10.4417  -26.8143  -52.4942 H         1 UNK         0.0600 
    223 H223      -10.1371  -26.3599  -50.8177 H         1 UNK         0.0600 
    224 H224      -11.4399  -25.5987  -51.7141 H         1 UNK         0.0600 
    225 H225       -7.8782  -24.2109  -54.2008 H         1 UNK         0.3000 
    226 H226      -10.0049  -23.5015  -56.1725 H         1 UNK         0.0600 
    227 H227       -8.4384  -25.3658  -56.7792 H         1 UNK         0.0600 
    228 H228       -8.2225  -23.9771  -57.8326 H         1 UNK         0.0600 
    229 H229       -7.0619  -24.2901  -56.5469 H         1 UNK         0.0600 
    230 H230       -8.0649  -22.0458  -53.9404 H         1 UNK         0.3000 
    231 H231       -7.2510  -20.0293  -53.5026 H         1 UNK         0.0600 
    232 H232       -8.8083  -18.9580  -55.9060 H         1 UNK         0.0600 
    233 H233       -8.1970  -18.0330  -54.5438 H         1 UNK         0.0600 
    234 H234       -9.4806  -19.2038  -54.2946 H         1 UNK         0.0600 
    235 H235       -5.7259  -21.8550  -55.1727 H         1 UNK         0.3000 
    236 H236       -4.4557  -20.6250  -57.3254 H         1 UNK         0.0600 
    237 H237       -4.4600  -23.0763  -56.8603 H         1 UNK         0.0600 
    238 H238       -2.8371  -22.4766  -57.1610 H         1 UNK         0.0600 
    239 H239       -3.3416  -22.8361  -55.5199 H         1 UNK         0.0600 
    240 H240       -3.7691  -20.1132  -53.9364 H         1 UNK         0.3000 
    241 H241       -1.2474  -18.6673  -54.5098 H         1 UNK         0.0600 
    242 H242       -4.4681  -17.7459  -54.8992 H         1 UNK         0.3800 
    243 H243       -4.2510  -16.0797  -54.4345 H         1 UNK         0.3800 
    244 H244       -1.1102  -18.3942  -52.0006 H         1 UNK         0.0800 
    245 H245       -2.5650  -19.3338  -51.8418 H         1 UNK         0.0800 
    246 H246        1.5683  -20.8544  -53.2202 H         1 UNK         0.0800 
    247 H247        0.9972  -19.2159  -53.3444 H         1 UNK         0.0800 
@<TRIPOS>BOND
     1    1    2 1    
     2    1  127 1    
     3    1  128 1    
     4    1  129 1    
     5    2    3 2    
     6    2    4 am   BACKBONE|DICT|INTERRES
     7    4    5 1    
     8    4  130 1    
     9    5    6 1    
    10    5   65 1    
    11    5  131 1    
    12    6    7 1    
    13    6  132 1    
    14    6  133 1    
    15    7    8 1    
    16    8    9 1    
    17    8  134 1    
    18    8  135 1    
    19    9   10 ar   
    20    9   14 ar   
    21   10   11 ar   
    22   10  136 1    
    23   11   12 ar   
    24   11  126 1    
    25   12   13 ar   
    26   12  137 1    
    27   13   14 ar   
    28   13   15 1    
    29   14  138 1    
    30   15   16 1    
    31   15  139 1    
    32   15  140 1    
    33   16   17 1    
    34   17   18 1    
    35   17  141 1    
    36   17  142 1    
    37   18   19 1    
    38   18   67 1    
    39   18  143 1    
    40   19   20 am   BACKBONE|DICT|INTERRES
    41   19  144 1    
    42   20   21 2    
    43   20   22 1    
    44   22   23 1    
    45   22   24 1    
    46   22  145 1    
    47   23  146 1    
    48   23  147 1    
    49   23  148 1    
    50   24   25 am   BACKBONE|DICT|INTERRES
    51   24  149 1    
    52   25   26 2    
    53   25   27 1    
    54   27   28 1    
    55   27   29 1    
    56   27  150 1    
    57   28  151 1    
    58   28  152 1    
    59   28  153 1    
    60   29   30 am   BACKBONE|DICT|INTERRES
    61   29  154 1    
    62   30   31 2    
    63   30   32 1    
    64   32   33 1    
    65   32   34 1    
    66   32  155 1    
    67   33  156 1    
    68   33  157 1    
    69   33  158 1    
    70   34   35 am   BACKBONE|DICT|INTERRES
    71   34  159 1    
    72   35   36 2    
    73   35   37 1    
    74   37   38 1    
    75   37   39 1    
    76   37  160 1    
    77   38  161 1    
    78   38  162 1    
    79   38  163 1    
    80   39   40 am   BACKBONE|DICT|INTERRES
    81   39  164 1    
    82   40   41 2    
    83   40   42 1    
    84   42   43 1    
    85   42   44 1    
    86   42  165 1    
    87   43  166 1    
    88   43  167 1    
    89   43  168 1    
    90   44   45 am   BACKBONE|DICT|INTERRES
    91   44  169 1    
    92   45   46 2    
    93   45   47 1    
    94   47   48 1    
    95   47   49 1    
    96   47  170 1    
    97   48  171 1    
    98   48  172 1    
    99   48  173 1    
   100   49   50 am   BACKBONE|DICT|INTERRES
   101   49  174 1    
   102   50   51 2    
   103   50   52 1    
   104   52   53 1    
   105   52   54 1    
   106   52  175 1    
   107   53  176 1    
   108   53  177 1    
   109   53  178 1    
   110   54   55 am   BACKBONE|DICT|INTERRES
   111   54  179 1    
   112   55   56 2    
   113   55   57 1    
   114   57   58 1    
   115   57   59 1    
   116   57  180 1    
   117   58  181 1    
   118   58  182 1    
   119   58  183 1    
   120   59   60 am   BACKBONE|DICT|INTERRES
   121   59  184 1    
   122   60   61 2    
   123   60   62 1    
   124   62   63 1    
   125   62   64 1    
   126   62  185 1    
   127   63  186 1    
   128   63  187 1    
   129   63  188 1    
   130   64   65 am   BACKBONE|DICT|INTERRES
   131   64  189 1    
   132   65   66 2    
   133   67   68 2    
   134   67   69 am   BACKBONE|DICT|INTERRES
   135   69   70 1    
   136   69  190 1    
   137   70   71 1    
   138   70   72 1    
   139   70  191 1    
   140   71  192 1    
   141   71  193 1    
   142   71  194 1    
   143   72   73 2    
   144   72   74 am   BACKBONE|DICT|INTERRES
   145   74   75 1    
   146   74  195 1    
   147   75   76 1    
   148   75   77 1    
   149   75  196 1    
   150   76  197 1    
   151   76  198 1    
   152   76  199 1    
   153   77   78 2    
   154   77   79 am   BACKBONE|DICT|INTERRES
   155   79   80 1    
   156   79  200 1    
   157   80   81 1    
   158   80   82 1    
   159   80  201 1    
   160   81  202 1    
   161   81  203 1    
   162   81  204 1    
   163   82   83 2    
   164   82   84 am   BACKBONE|DICT|INTERRES
   165   84   85 1    
   166   84  205 1    
   167   85   86 1    
   168   85   87 1    
   169   85  206 1    
   170   86  207 1    
   171   86  208 1    
   172   86  209 1    
   173   87   88 2    
   174   87   89 am   BACKBONE|DICT|INTERRES
   175   89   90 1    
   176   89  210 1    
   177   90   91 1    
   178   90   92 1    
   179   90  211 1    
   180   91  212 1    
   181   91  213 1    
   182   91  214 1    
   183   92   93 2    
   184   92   94 am   BACKBONE|DICT|INTERRES
   185   94   95 1    
   186   94  215 1    
   187   95   96 1    
   188   95   97 1    
   189   95  216 1    
   190   96  217 1    
   191   96  218 1    
   192   96  219 1    
   193   97   98 2    
   194   97   99 am   BACKBONE|DICT|INTERRES
   195   99  100 1    
   196   99  220 1    
   197  100  101 1    
   198  100  102 1    
   199  100  221 1    
   200  101  222 1    
   201  101  223 1    
   202  101  224 1    
   203  102  103 2    
   204  102  104 am   BACKBONE|DICT|INTERRES
   205  104  105 1    
   206  104  225 1    
   207  105  106 1    
   208  105  107 1    
   209  105  226 1    
   210  106  227 1    
   211  106  228 1    
   212  106  229 1    
   213  107  108 2    
   214  107  109 am   BACKBONE|DICT|INTERRES
   215  109  110 1    
   216  109  230 1    
   217  110  111 1    
   218  110  112 1    
   219  110  231 1    
   220  111  232 1    
   221  111  233 1    
   222  111  234 1    
   223  112  113 2    
   224  112  114 am   BACKBONE|DICT|INTERRES
   225  114  115 1    
   226  114  235 1    
   227  115  116 1    
   228  115  117 1    
   229  115  236 1    
   230  116  237 1    
   231  116  238 1    
   232  116  239 1    
   233  117  118 2    
   234  117  119 am   BACKBONE|DICT|INTERRES
   235  119  120 1    
   236  119  240 1    
   237  120  121 1    
   238  120  124 1    
   239  120  241 1    
   240  121  122 am   BACKBONE|DICT|INTERRES
   241  121  123 2    
   242  122  242 1    
   243  122  243 1    
   244  124  125 1    
   245  124  244 1    
   246  124  245 1    
   247  125  126 1    
   248  126  246 1    
   249  126  247 1    
@<TRIPOS>SUBSTRUCTURE
     1 UNK         1 GROUP             0       ****    0 ROOT    
