@<TRIPOS>MOLECULE
3R540
247   249    1
SMALL
USER_CHARGES


@<TRIPOS>ATOM
      1 CA         -1.3532  -12.5226  -44.2375 C.3       0 UNK        -0.1800 
      2 C          -0.4378  -12.3049  -45.4344 C.2       0 UNK         0.5000 
      3 O          -0.9128  -12.2741  -46.5696 O.2       0 UNK        -0.5000 
      4 N           0.8648  -12.1602  -45.1763 N.am      1 UNK        -0.5000 
      5 CA          1.9151  -11.9189  -46.1634 C.3       1 UNK         0.1400 
      6 C6          2.9220  -13.0999  -46.2471 C.3       23 UNK        -0.0398 
      7 S7          2.1377  -14.6631  -46.7560 S.3       23 UNK        -0.2404 
      8 C8          2.5238  -14.6845  -48.5324 C.3       23 UNK        -0.0205 
      9 C9          1.9366  -15.9090  -49.2176 C.ar      23 UNK        -0.0193 
     10 C10         0.6808  -15.8435  -49.8289 C.ar      23 UNK        -0.1150 
     11 C11         0.1350  -16.9588  -50.4745 C.ar      23 UNK        -0.0193 
     12 C12         0.8773  -18.1453  -50.5144 C.ar      23 UNK        -0.1150 
     13 C13         2.1297  -18.2287  -49.8974 C.ar      23 UNK        -0.0193 
     14 C14         2.6535  -17.1073  -49.2496 C.ar      23 UNK        -0.1150 
     15 C15         2.9185  -19.5301  -49.9325 C.3       23 UNK        -0.0205 
     16 S16         2.5169  -20.6073  -48.5199 S.3       23 UNK        -0.2404 
     17 C17         0.7939  -21.0470  -48.9166 C.3       23 UNK        -0.0398 
     18 CA          0.2964  -22.3160  -48.1946 C.3       11 UNK         0.1400 
     19 N           0.2555  -22.1547  -46.7405 N.am      11 UNK        -0.5000 
     20 C          -0.0431  -23.1262  -45.8673 C.2       10 UNK         0.5000 
     21 O          -0.2607  -24.2958  -46.1853 O.2       10 UNK        -0.5000 
     22 CA         -0.1746  -22.7031  -44.3955 C.3       10 UNK         0.1400 
     23 CB          1.2022  -22.6215  -43.7189 C.3       10 UNK        -0.1800 
     24 N          -0.8675  -21.4214  -44.2631 N.am      10 UNK        -0.5000 
     25 C          -2.1754  -21.2437  -44.4938 C.2       9 UNK         0.5000 
     26 O          -2.9429  -22.1518  -44.8140 O.2       9 UNK        -0.5000 
     27 CA         -2.7056  -19.8025  -44.3826 C.3       9 UNK         0.1400 
     28 CB         -2.9341  -19.4170  -42.9135 C.3       9 UNK        -0.1800 
     29 N          -1.8166  -18.8221  -45.0061 N.am      9 UNK        -0.5000 
     30 C          -1.5752  -18.7513  -46.3229 C.2       8 UNK         0.5000 
     31 O          -2.0822  -19.5009  -47.1537 O.2       8 UNK        -0.5000 
     32 CA         -0.5739  -17.6853  -46.7957 C.3       8 UNK         0.1400 
     33 CB         -1.2965  -16.3381  -46.9578 C.3       8 UNK        -0.1800 
     34 N           0.5817  -17.5041  -45.9179 N.am      8 UNK        -0.5000 
     35 C           1.3737  -18.4573  -45.4042 C.2       7 UNK         0.5000 
     36 O           1.2139  -19.6628  -45.5897 O.2       7 UNK        -0.5000 
     37 CA          2.5126  -17.9836  -44.4803 C.3       7 UNK         0.1400 
     38 CB          3.8312  -17.8969  -45.2636 C.3       7 UNK        -0.1800 
     39 N           2.2482  -16.6934  -43.8323 N.am      7 UNK        -0.5000 
     40 C           1.2306  -16.4450  -42.9945 C.2       6 UNK         0.5000 
     41 O           0.4199  -17.2999  -42.6330 O.2       6 UNK        -0.5000 
     42 CA          1.1060  -14.9953  -42.5029 C.3       6 UNK         0.1400 
     43 CB          0.0553  -14.8106  -41.3912 C.3       6 UNK        -0.1800 
     44 N           2.4055  -14.4961  -42.0554 N.am      6 UNK        -0.5000 
     45 C           2.7970  -13.2214  -42.1416 C.2       5 UNK         0.5000 
     46 O           2.1302  -12.3360  -42.6814 O.2       5 UNK        -0.5000 
     47 CA          4.1785  -12.8809  -41.5573 C.3       5 UNK         0.1400 
     48 CB          5.2410  -12.8487  -42.6653 C.3       5 UNK        -0.1800 
     49 N           4.1441  -11.5853  -40.8809 N.am      5 UNK        -0.5000 
     50 C           3.5541  -11.3764  -39.6948 C.2       4 UNK         0.5000 
     51 O           3.0830  -12.2793  -39.0013 O.2       4 UNK        -0.5000 
     52 CA          3.4716   -9.9233  -39.1885 C.3       4 UNK         0.1400 
     53 CB          4.6286   -9.6228  -38.2232 C.3       4 UNK        -0.1800 
     54 N           3.4853   -8.9353  -40.2663 N.am      4 UNK        -0.5000 
     55 C           2.4783   -8.7108  -41.1205 C.2       3 UNK         0.5000 
     56 O           1.3887   -9.2814  -41.0616 O.2       3 UNK        -0.5000 
     57 CA          2.7254   -7.6635  -42.2244 C.3       3 UNK         0.1400 
     58 CB          3.6410   -6.5046  -41.7718 C.3       3 UNK        -0.1800 
     59 N           3.2247   -8.2556  -43.4690 N.am      3 UNK        -0.5000 
     60 C           4.3362   -8.9808  -43.6518 C.2       2 UNK         0.5000 
     61 O           5.0891   -9.3368  -42.7424 O.2       2 UNK        -0.5000 
     62 CA          4.6437   -9.3834  -45.1080 C.3       2 UNK         0.1400 
     63 CB          6.1383   -9.6791  -45.3268 C.3       2 UNK        -0.1800 
     64 N           3.8717  -10.5557  -45.5131 N.am      2 UNK        -0.5000 
     65 C           2.5635  -10.5657  -45.8034 C.2       1 UNK         0.5000 
     66 O           1.8672   -9.5473  -45.7969 O.2       1 UNK        -0.5000 
     67 C          -1.0756  -22.7465  -48.7503 C.2       11 UNK         0.5000 
     68 O          -1.1431  -23.7258  -49.4901 O.2       11 UNK        -0.5000 
     69 N          -2.1484  -22.0506  -48.3422 N.am      12 UNK        -0.5000 
     70 CA         -3.5297  -22.3728  -48.6962 C.3       12 UNK         0.1400 
     71 CB         -4.4850  -21.3035  -48.1480 C.3       12 UNK        -0.1800 
     72 C          -3.9567  -23.7697  -48.2227 C.2       12 UNK         0.5000 
     73 O          -4.5721  -24.4949  -49.0016 O.2       12 UNK        -0.5000 
     74 N          -3.5974  -24.1402  -46.9852 N.am      13 UNK        -0.5000 
     75 CA         -3.8475  -25.4675  -46.4189 C.3       13 UNK         0.1400 
     76 CB         -3.4360  -25.4917  -44.9395 C.3       13 UNK        -0.1800 
     77 C          -3.1498  -26.5919  -47.2073 C.2       13 UNK         0.5000 
     78 O          -3.7898  -27.5965  -47.5216 O.2       13 UNK        -0.5000 
     79 N          -1.8739  -26.3796  -47.5621 N.am      14 UNK        -0.5000 
     80 CA         -1.0873  -27.2770  -48.4135 C.3       14 UNK         0.1400 
     81 CB          0.3772  -26.8138  -48.4283 C.3       14 UNK        -0.1800 
     82 C          -1.6439  -27.3855  -49.8478 C.2       14 UNK         0.5000 
     83 O          -1.6164  -28.4680  -50.4331 O.2       14 UNK        -0.5000 
     84 N          -2.1833  -26.2749  -50.3646 N.am      15 UNK        -0.5000 
     85 CA         -2.8528  -26.1574  -51.6602 C.3       15 UNK         0.1400 
     86 CB         -2.6750  -24.7186  -52.1757 C.3       15 UNK        -0.1800 
     87 C          -4.3408  -26.5755  -51.6306 C.2       15 UNK         0.5000 
     88 O          -5.0836  -26.1939  -52.5349 O.2       15 UNK        -0.5000 
     89 N          -4.7587  -27.3426  -50.6112 N.am      16 UNK        -0.5000 
     90 CA         -6.0904  -27.9335  -50.4310 C.3       16 UNK         0.1400 
     91 CB         -6.3581  -29.0014  -51.5128 C.3       16 UNK        -0.1800 
     92 C          -7.2100  -26.8765  -50.3351 C.2       16 UNK         0.5000 
     93 O          -8.1962  -26.9419  -51.0710 O.2       16 UNK        -0.5000 
     94 N          -7.0102  -25.9129  -49.4259 N.am      17 UNK        -0.5000 
     95 CA         -7.8304  -24.7195  -49.1898 C.3       17 UNK         0.1400 
     96 CB         -9.2691  -25.0856  -48.7668 C.3       17 UNK        -0.1800 
     97 C          -7.7613  -23.7342  -50.3745 C.2       17 UNK         0.5000 
     98 O          -8.7780  -23.1574  -50.7641 O.2       17 UNK        -0.5000 
     99 N          -6.5419  -23.5678  -50.9090 N.am      18 UNK        -0.5000 
    100 CA        -6.1634  -22.7298  -52.0493 C.3       18 UNK         0.1400 
    101 CB        -6.2281  -21.2354  -51.6710 C.3       18 UNK        -0.1800 
    102 C         -6.9615  -23.0680  -53.3240 C.2       18 UNK         0.5000 
    103 O         -7.6316  -22.1994  -53.8873 O.2       18 UNK        -0.5000 
    104 N         -6.8891  -24.3385  -53.7438 N.am      19 UNK        -0.5000 
    105 CA        -7.4934  -24.8519  -54.9713 C.3       19 UNK         0.1400 
    106 CB        -7.3461  -26.3815  -55.0082 C.3       19 UNK        -0.1800 
    107 C         -6.8513  -24.1892  -56.2042 C.2       19 UNK         0.5000 
    108 O         -5.6758  -24.4294  -56.4844 O.2       19 UNK        -0.5000 
    109 N         -7.6207  -23.3171  -56.8687 N.am      20 UNK        -0.5000 
    110 CA        -7.2560  -22.4124  -57.9684 C.3       20 UNK         0.1400 
    111 CB        -6.6715  -23.1698  -59.1767 C.3       20 UNK        -0.1800 
    112 C         -6.3501  -21.2362  -57.5454 C.2       20 UNK         0.5000 
    113 O         -6.5755  -20.1160  -58.0056 O.2       20 UNK        -0.5000 
    114 N         -5.3697  -21.4858  -56.6718 N.am      21 UNK        -0.5000 
    115 CA        -4.4568  -20.5031  -56.0972 C.3       21 UNK         0.1400 
    116 CB        -3.3655  -20.1362  -57.1215 C.3       21 UNK        -0.1800 
    117 C         -3.8348  -21.0780  -54.8160 C.2       21 UNK         0.5000 
    118 O         -3.9030  -22.2870  -54.5873 O.2       21 UNK        -0.5000 
    119 N         -3.2167  -20.2043  -54.0134 N.am      22 UNK        -0.5000 
    120 CA        -2.4455  -20.5659  -52.8102 C.3       22 UNK         0.1400 
    121 C         -1.0590  -21.2216  -53.0905 C.2       22 UNK         0.5000 
    122 N         -0.5791  -21.2801  -54.3269 N.am      22 UNK        -0.7600 
    123 O         -0.4083  -21.6949  -52.1667 O.2       22 UNK        -0.5000 
    124 C124       -2.3346  -19.3734  -51.8215 C.3       23 UNK        -0.0398 
    125 S125       -1.5677  -17.8805  -52.5530 S.3       23 UNK        -0.2404 
    126 C126       -1.2696  -16.8528  -51.0720 C.3       23 UNK        -0.0205 
    127 H127       -2.1877  -11.8222  -44.2692 H         1 UNK         0.0600 
    128 H128       -0.8258  -12.3761  -43.2942 H         1 UNK         0.0600 
    129 H129       -1.7546  -13.5359  -44.2517 H         1 UNK         0.0600 
    130 H130        1.1902  -12.1545  -44.2100 H         1 UNK         0.3000 
    131 H131        1.4797  -11.7840  -47.1555 H         1 UNK         0.0600 
    132 H132        3.3906  -13.2754  -45.2777 H         1 UNK         0.0800 
    133 H133        3.7285  -12.8746  -46.9471 H         1 UNK         0.0800 
    134 H134        3.6061  -14.6690  -48.6702 H         1 UNK         0.0800 
    135 H135        2.1389  -13.7753  -48.9969 H         1 UNK         0.0800 
    136 H136        0.1197  -14.9202  -49.7876 H         1 UNK         0.1150 
    137 H137        0.4799  -19.0168  -51.0123 H         1 UNK         0.1150 
    138 H138        3.6202  -17.1669  -48.7694 H         1 UNK         0.1150 
    139 H139        2.7316  -20.0617  -50.8669 H         1 UNK         0.0800 
    140 H140        3.9879  -19.3149  -49.9161 H         1 UNK         0.0800 
    141 H141        0.7385  -21.1922  -49.9942 H         1 UNK         0.0800 
    142 H142        0.1526  -20.1973  -48.6821 H         1 UNK         0.0800 
    143 H143        0.9984  -23.1242  -48.4110 H         1 UNK         0.0600 
    144 H144        0.4762  -21.2293  -46.3805 H         1 UNK         0.3000 
    145 H145       -0.7614  -23.4653  -43.8783 H         1 UNK         0.0600 
    146 H146        1.1081  -22.3645  -42.6638 H         1 UNK         0.0600 
    147 H147        1.7195  -23.5800  -43.7755 H         1 UNK         0.0600 
    148 H148        1.8435  -21.8759  -44.1899 H         1 UNK         0.0600 
    149 H149       -0.2893  -20.6095  -44.0960 H         1 UNK         0.3000 
    150 H150       -3.6674  -19.7628  -44.8986 H         1 UNK         0.0600 
    151 H151       -3.5977  -20.1291  -42.4211 H         1 UNK         0.0600 
    152 H152       -3.3962  -18.4330  -42.8322 H         1 UNK         0.0600 
    153 H153       -1.9991  -19.3947  -42.3519 H         1 UNK         0.0600 
    154 H154       -1.3267  -18.1891  -44.3889 H         1 UNK         0.3000 
    155 H155       -0.1914  -17.9957  -47.7681 H         1 UNK         0.0600 
    156 H156       -1.6872  -15.9733  -46.0071 H         1 UNK         0.0600 
    157 H157       -2.1370  -16.4265  -47.6474 H         1 UNK         0.0600 
    158 H158       -0.6345  -15.5711  -47.3564 H         1 UNK         0.0600 
    159 H159        0.8410  -16.5460  -45.7327 H         1 UNK         0.3000 
    160 H160        2.6278  -18.7338  -43.6953 H         1 UNK         0.0600 
    161 H161        4.6650  -17.6431  -44.6091 H         1 UNK         0.0600 
    162 H162        4.0672  -18.8521  -45.7352 H         1 UNK         0.0600 
    163 H163        3.7826  -17.1477  -46.0544 H         1 UNK         0.0600 
    164 H164        2.8615  -15.9322  -44.0846 H         1 UNK         0.3000 
    165 H165        0.7805  -14.4242  -43.3735 H         1 UNK         0.0600 
    166 H166       -0.0418  -13.7619  -41.1098 H         1 UNK         0.0600 
    167 H167       -0.9285  -15.1480  -41.7198 H         1 UNK         0.0600 
    168 H168        0.3177  -15.3746  -40.4956 H         1 UNK         0.0600 
    169 H169        3.0134  -15.1777  -41.6212 H         1 UNK         0.3000 
    170 H170        4.4600  -13.6471  -40.8317 H         1 UNK         0.0600 
    171 H171        5.0090  -12.0991  -43.4202 H         1 UNK         0.0600 
    172 H172        6.2265  -12.6189  -42.2599 H         1 UNK         0.0600 
    173 H173        5.3122  -13.8134  -43.1692 H         1 UNK         0.0600 
    174 H174        4.4695  -10.7844  -41.4122 H         1 UNK         0.3000 
    175 H175        2.5331   -9.8183  -38.6401 H         1 UNK         0.0600 
    176 H176        5.5966   -9.6966  -38.7206 H         1 UNK         0.0600 
    177 H177        4.5417   -8.6209  -37.8026 H         1 UNK         0.0600 
    178 H178        4.6336  -10.3253  -37.3887 H         1 UNK         0.0600 
    179 H179        4.3581   -8.4528  -40.4265 H         1 UNK         0.3000 
    180 H180        1.7511   -7.2324  -42.4598 H         1 UNK         0.0600 
    181 H181        4.6706   -6.8241  -41.6087 H         1 UNK         0.0600 
    182 H182        3.2810   -6.0613  -40.8424 H         1 UNK         0.0600 
    183 H183        3.6597   -5.7115  -42.5194 H         1 UNK         0.0600 
    184 H184        2.6242   -8.1336  -44.2761 H         1 UNK         0.3000 
    185 H185        4.3768   -8.5437  -45.7534 H         1 UNK         0.0600 
    186 H186        6.7505   -8.8253  -45.0337 H         1 UNK         0.0600 
    187 H187        6.4746  -10.5378  -44.7445 H         1 UNK         0.0600 
    188 H188        6.3498   -9.8834  -46.3765 H         1 UNK         0.0600 
    189 H189        4.3806  -11.4258  -45.5250 H         1 UNK         0.3000 
    190 H190       -2.0198  -21.2288  -47.7553 H         1 UNK         0.3000 
    191 H191       -3.5998  -22.3582  -49.7852 H         1 UNK         0.0600 
    192 H192       -4.4051  -21.2094  -47.0646 H         1 UNK         0.0600 
    193 H193       -5.5226  -21.5468  -48.3808 H         1 UNK         0.0600 
    194 H194       -4.2749  -20.3274  -48.5854 H         1 UNK         0.0600 
    195 H195       -3.1289  -23.4691  -46.3856 H         1 UNK         0.3000 
    196 H196       -4.9231  -25.6485  -46.4705 H         1 UNK         0.0600 
    197 H197       -3.6349  -26.4676  -44.4949 H         1 UNK         0.0600 
    198 H198       -3.9937  -24.7527  -44.3641 H         1 UNK         0.0600 
    199 H199       -2.3742  -25.2826  -44.8109 H         1 UNK         0.0600 
    200 H200       -1.4096  -25.5351  -47.2399 H         1 UNK         0.3000 
    201 H201       -1.1233  -28.2738  -47.9693 H         1 UNK         0.0600 
    202 H202        0.7969  -26.8031  -47.4222 H         1 UNK         0.0600 
    203 H203        0.4787  -25.8102  -48.8420 H         1 UNK         0.0600 
    204 H204        0.9927  -27.4822  -49.0316 H         1 UNK         0.0600 
    205 H205       -2.1014  -25.4139  -49.8318 H         1 UNK         0.3000 
    206 H206       -2.3584  -26.8238  -52.3694 H         1 UNK         0.0600 
    207 H207       -1.6197  -24.4567  -52.2552 H         1 UNK         0.0600 
    208 H208       -3.1124  -24.5889  -53.1665 H         1 UNK         0.0600 
    209 H209       -3.1436  -23.9966  -51.5086 H         1 UNK         0.0600 
    210 H210       -4.0898  -27.5539  -49.8825 H         1 UNK         0.3000 
    211 H211       -6.0691  -28.4438  -49.4668 H         1 UNK         0.0600 
    212 H212       -6.4234  -28.5637  -52.5095 H         1 UNK         0.0600 
    213 H213       -7.2975  -29.5217  -51.3229 H         1 UNK         0.0600 
    214 H214       -5.5687  -29.7528  -51.5281 H         1 UNK         0.0600 
    215 H215       -6.1109  -25.9008  -48.9582 H         1 UNK         0.3000 
    216 H216       -7.3700  -24.2035  -48.3460 H         1 UNK         0.0600 
    217 H217       -9.8137  -24.1993  -48.4397 H         1 UNK         0.0600 
    218 H218       -9.2686  -25.7907  -47.9357 H         1 UNK         0.0600 
    219 H219       -9.8366  -25.5296  -49.5848 H         1 UNK         0.0600 
    220 H220       -5.7875  -24.0964  -50.4821 H         1 UNK         0.3000 
    221 H221       -5.1232  -22.9644  -52.2722 H         1 UNK         0.0600 
    222 H222       -7.2391  -20.9280  -51.4024 H         1 UNK         0.0600 
    223 H223       -5.5741  -21.0117  -50.8300 H         1 UNK         0.0600 
    224 H224       -5.9062  -20.6077  -52.5024 H         1 UNK         0.0600 
    225 H225       -6.2883  -24.9891  -53.2405 H         1 UNK         0.3000 
    226 H226       -8.5594  -24.6165  -54.9483 H         1 UNK         0.0600 
    227 H227       -7.8217  -26.8433  -54.1423 H         1 UNK         0.0600 
    228 H228       -7.8146  -26.7972  -55.9008 H         1 UNK         0.0600 
    229 H229       -6.2988  -26.6862  -55.0131 H         1 UNK         0.0600 
    230 H230       -8.5500  -23.1615  -56.5023 H         1 UNK         0.3000 
    231 H231       -8.1982  -21.9699  -58.2957 H         1 UNK         0.0600 
    232 H232       -7.3288  -23.9805  -59.4909 H         1 UNK         0.0600 
    233 H233       -5.6911  -23.5946  -58.9609 H         1 UNK         0.0600 
    234 H234       -6.5506  -22.5001  -60.0290 H         1 UNK         0.0600 
    235 H235       -5.2467  -22.4341  -56.3253 H         1 UNK         0.3000 
    236 H236       -5.0229  -19.6095  -55.8264 H         1 UNK         0.0600 
    237 H237       -2.6683  -19.4040  -56.7129 H         1 UNK         0.0600 
    238 H238       -2.7878  -21.0120  -57.4200 H         1 UNK         0.0600 
    239 H239       -3.7953  -19.6982  -58.0223 H         1 UNK         0.0600 
    240 H240       -3.1848  -19.2279  -54.2704 H         1 UNK         0.3000 
    241 H241       -3.0151  -21.3398  -52.2918 H         1 UNK         0.0600 
    242 H242        0.3165  -21.7130  -54.4864 H         1 UNK         0.3800 
    243 H243       -1.0959  -20.8955  -55.0996 H         1 UNK         0.3800 
    244 H244       -3.3328  -19.1001  -51.4767 H         1 UNK         0.0800 
    245 H245       -1.7882  -19.6665  -50.9231 H         1 UNK         0.0800 
    246 H246       -2.0011  -17.0960  -50.3003 H         1 UNK         0.0800 
    247 H247       -1.4619  -15.8170  -51.3557 H         1 UNK         0.0800 
@<TRIPOS>BOND
     1    1    2 1    
     2    1  127 1    
     3    1  128 1    
     4    1  129 1    
     5    2    3 2    
     6    2    4 am   BACKBONE|DICT|INTERRES
     7    4    5 1    
     8    4  130 1    
     9    5    6 1    
    10    5   65 1    
    11    5  131 1    
    12    6    7 1    
    13    6  132 1    
    14    6  133 1    
    15    7    8 1    
    16    8    9 1    
    17    8  134 1    
    18    8  135 1    
    19    9   10 ar   
    20    9   14 ar   
    21   10   11 ar   
    22   10  136 1    
    23   11   12 ar   
    24   11  126 1    
    25   12   13 ar   
    26   12  137 1    
    27   13   14 ar   
    28   13   15 1    
    29   14  138 1    
    30   15   16 1    
    31   15  139 1    
    32   15  140 1    
    33   16   17 1    
    34   17   18 1    
    35   17  141 1    
    36   17  142 1    
    37   18   19 1    
    38   18   67 1    
    39   18  143 1    
    40   19   20 am   BACKBONE|DICT|INTERRES
    41   19  144 1    
    42   20   21 2    
    43   20   22 1    
    44   22   23 1    
    45   22   24 1    
    46   22  145 1    
    47   23  146 1    
    48   23  147 1    
    49   23  148 1    
    50   24   25 am   BACKBONE|DICT|INTERRES
    51   24  149 1    
    52   25   26 2    
    53   25   27 1    
    54   27   28 1    
    55   27   29 1    
    56   27  150 1    
    57   28  151 1    
    58   28  152 1    
    59   28  153 1    
    60   29   30 am   BACKBONE|DICT|INTERRES
    61   29  154 1    
    62   30   31 2    
    63   30   32 1    
    64   32   33 1    
    65   32   34 1    
    66   32  155 1    
    67   33  156 1    
    68   33  157 1    
    69   33  158 1    
    70   34   35 am   BACKBONE|DICT|INTERRES
    71   34  159 1    
    72   35   36 2    
    73   35   37 1    
    74   37   38 1    
    75   37   39 1    
    76   37  160 1    
    77   38  161 1    
    78   38  162 1    
    79   38  163 1    
    80   39   40 am   BACKBONE|DICT|INTERRES
    81   39  164 1    
    82   40   41 2    
    83   40   42 1    
    84   42   43 1    
    85   42   44 1    
    86   42  165 1    
    87   43  166 1    
    88   43  167 1    
    89   43  168 1    
    90   44   45 am   BACKBONE|DICT|INTERRES
    91   44  169 1    
    92   45   46 2    
    93   45   47 1    
    94   47   48 1    
    95   47   49 1    
    96   47  170 1    
    97   48  171 1    
    98   48  172 1    
    99   48  173 1    
   100   49   50 am   BACKBONE|DICT|INTERRES
   101   49  174 1    
   102   50   51 2    
   103   50   52 1    
   104   52   53 1    
   105   52   54 1    
   106   52  175 1    
   107   53  176 1    
   108   53  177 1    
   109   53  178 1    
   110   54   55 am   BACKBONE|DICT|INTERRES
   111   54  179 1    
   112   55   56 2    
   113   55   57 1    
   114   57   58 1    
   115   57   59 1    
   116   57  180 1    
   117   58  181 1    
   118   58  182 1    
   119   58  183 1    
   120   59   60 am   BACKBONE|DICT|INTERRES
   121   59  184 1    
   122   60   61 2    
   123   60   62 1    
   124   62   63 1    
   125   62   64 1    
   126   62  185 1    
   127   63  186 1    
   128   63  187 1    
   129   63  188 1    
   130   64   65 am   BACKBONE|DICT|INTERRES
   131   64  189 1    
   132   65   66 2    
   133   67   68 2    
   134   67   69 am   BACKBONE|DICT|INTERRES
   135   69   70 1    
   136   69  190 1    
   137   70   71 1    
   138   70   72 1    
   139   70  191 1    
   140   71  192 1    
   141   71  193 1    
   142   71  194 1    
   143   72   73 2    
   144   72   74 am   BACKBONE|DICT|INTERRES
   145   74   75 1    
   146   74  195 1    
   147   75   76 1    
   148   75   77 1    
   149   75  196 1    
   150   76  197 1    
   151   76  198 1    
   152   76  199 1    
   153   77   78 2    
   154   77   79 am   BACKBONE|DICT|INTERRES
   155   79   80 1    
   156   79  200 1    
   157   80   81 1    
   158   80   82 1    
   159   80  201 1    
   160   81  202 1    
   161   81  203 1    
   162   81  204 1    
   163   82   83 2    
   164   82   84 am   BACKBONE|DICT|INTERRES
   165   84   85 1    
   166   84  205 1    
   167   85   86 1    
   168   85   87 1    
   169   85  206 1    
   170   86  207 1    
   171   86  208 1    
   172   86  209 1    
   173   87   88 2    
   174   87   89 am   BACKBONE|DICT|INTERRES
   175   89   90 1    
   176   89  210 1    
   177   90   91 1    
   178   90   92 1    
   179   90  211 1    
   180   91  212 1    
   181   91  213 1    
   182   91  214 1    
   183   92   93 2    
   184   92   94 am   BACKBONE|DICT|INTERRES
   185   94   95 1    
   186   94  215 1    
   187   95   96 1    
   188   95   97 1    
   189   95  216 1    
   190   96  217 1    
   191   96  218 1    
   192   96  219 1    
   193   97   98 2    
   194   97   99 am   BACKBONE|DICT|INTERRES
   195   99  100 1    
   196   99  220 1    
   197  100  101 1    
   198  100  102 1    
   199  100  221 1    
   200  101  222 1    
   201  101  223 1    
   202  101  224 1    
   203  102  103 2    
   204  102  104 am   BACKBONE|DICT|INTERRES
   205  104  105 1    
   206  104  225 1    
   207  105  106 1    
   208  105  107 1    
   209  105  226 1    
   210  106  227 1    
   211  106  228 1    
   212  106  229 1    
   213  107  108 2    
   214  107  109 am   BACKBONE|DICT|INTERRES
   215  109  110 1    
   216  109  230 1    
   217  110  111 1    
   218  110  112 1    
   219  110  231 1    
   220  111  232 1    
   221  111  233 1    
   222  111  234 1    
   223  112  113 2    
   224  112  114 am   BACKBONE|DICT|INTERRES
   225  114  115 1    
   226  114  235 1    
   227  115  116 1    
   228  115  117 1    
   229  115  236 1    
   230  116  237 1    
   231  116  238 1    
   232  116  239 1    
   233  117  118 2    
   234  117  119 am   BACKBONE|DICT|INTERRES
   235  119  120 1    
   236  119  240 1    
   237  120  121 1    
   238  120  124 1    
   239  120  241 1    
   240  121  122 am   BACKBONE|DICT|INTERRES
   241  121  123 2    
   242  122  242 1    
   243  122  243 1    
   244  124  125 1    
   245  124  244 1    
   246  124  245 1    
   247  125  126 1    
   248  126  246 1    
   249  126  247 1    
@<TRIPOS>SUBSTRUCTURE
     1 UNK         1 GROUP             0       ****    0 ROOT    
