@<TRIPOS>MOLECULE
3R540
247   249    1
SMALL
USER_CHARGES


@<TRIPOS>ATOM
      1 CA         -0.3360   -8.6880  -52.2530 C.3       0 UNK        -0.1800 
      2 C           0.2403   -9.2114  -50.9449 C.2       0 UNK         0.5000 
      3 O           0.6310   -8.4192  -50.0870 O.2       0 UNK        -0.5000 
      4 N           0.3006  -10.5399  -50.7917 N.am      1 UNK        -0.5000 
      5 CA          0.7584  -11.2257  -49.5824 C.3       1 UNK         0.1400 
      6 C6          1.1518  -12.6901  -49.8889 C.3       23 UNK        -0.0398 
      7 S7          2.1421  -13.4434  -48.5557 S.3       23 UNK        -0.2404 
      8 C8          3.1307  -14.6656  -49.4744 C.3       23 UNK        -0.0205 
      9 C9          2.2640  -15.7585  -50.0826 C.ar      23 UNK        -0.0193 
     10 C10         1.8449  -15.6668  -51.4136 C.ar      23 UNK        -0.1150 
     11 C11         1.0415  -16.6624  -51.9749 C.ar      23 UNK        -0.0193 
     12 C12         0.6711  -17.7634  -51.1978 C.ar      23 UNK        -0.1150 
     13 C13         1.0808  -17.8686  -49.8651 C.ar      23 UNK        -0.0193 
     14 C14         1.8803  -16.8623  -49.3149 C.ar      23 UNK        -0.1150 
     15 C15         0.6377  -19.0469  -49.0086 C.3       23 UNK        -0.0205 
     16 S16         1.8352  -20.4134  -49.0599 S.3       23 UNK        -0.2404 
     17 C17         0.8434  -21.8005  -49.7275 C.3       23 UNK        -0.0398 
     18 CA          0.2738  -22.7720  -48.6575 C.3       11 UNK         0.1400 
     19 N           1.2516  -23.1009  -47.6190 N.am      11 UNK        -0.5000 
     20 C           1.1271  -24.0899  -46.7252 C.2       10 UNK         0.5000 
     21 O           0.1819  -24.8781  -46.7022 O.2       10 UNK        -0.5000 
     22 CA          2.2279  -24.1806  -45.6513 C.3       10 UNK         0.1400 
     23 CB          3.3945  -25.0463  -46.1493 C.3       10 UNK        -0.1800 
     24 N           2.7413  -22.8741  -45.2228 N.am      10 UNK        -0.5000 
     25 C           2.0034  -21.9216  -44.6375 C.2       9 UNK         0.5000 
     26 O           0.7879  -22.0165  -44.4557 O.2       9 UNK        -0.5000 
     27 CA          2.7338  -20.6359  -44.2193 C.3       9 UNK         0.1400 
     28 CB          2.4057  -19.4885  -45.1860 C.3       9 UNK        -0.1800 
     29 N           2.3382  -20.2543  -42.8665 N.am      9 UNK        -0.5000 
     30 C           2.8226  -20.8219  -41.7514 C.2       8 UNK         0.5000 
     31 O           3.7339  -21.6510  -41.7524 O.2       8 UNK        -0.5000 
     32 CA          2.1878  -20.4079  -40.4066 C.3       8 UNK         0.1400 
     33 CB          2.9863  -19.2634  -39.7641 C.3       8 UNK        -0.1800 
     34 N           0.7941  -19.9913  -40.5442 N.am      8 UNK        -0.5000 
     35 C          -0.2197  -20.8009  -40.8770 C.2       7 UNK         0.5000 
     36 O          -0.1210  -22.0273  -40.9035 O.2       7 UNK        -0.5000 
     37 CA         -1.5663  -20.1422  -41.2549 C.3       7 UNK         0.1400 
     38 CB         -2.6752  -20.5691  -40.2798 C.3       7 UNK        -0.1800 
     39 N          -1.5548  -18.6742  -41.3381 N.am      7 UNK        -0.5000 
     40 C          -0.8315  -17.9375  -42.1932 C.2       6 UNK         0.5000 
     41 O          -0.0228  -18.4296  -42.9805 O.2       6 UNK        -0.5000 
     42 CA         -1.0541  -16.4122  -42.1292 C.3       6 UNK         0.1400 
     43 CB         -0.7581  -15.8399  -40.7263 C.3       6 UNK        -0.1800 
     44 N          -0.3205  -15.6753  -43.1624 N.am      6 UNK        -0.5000 
     45 C           1.0073  -15.5272  -43.3043 C.2       5 UNK         0.5000 
     46 O           1.8370  -15.9444  -42.4936 O.2       5 UNK        -0.5000 
     47 CA          1.4902  -14.7357  -44.5418 C.3       5 UNK         0.1400 
     48 CB          2.8364  -15.2449  -45.0996 C.3       5 UNK        -0.1800 
     49 N           0.4829  -14.6170  -45.6020 N.am      5 UNK        -0.5000 
     50 C          -0.0301  -15.6006  -46.3598 C.2       4 UNK         0.5000 
     51 O           0.3362  -16.7724  -46.2973 O.2       4 UNK        -0.5000 
     52 CA         -1.1768  -15.2004  -47.3186 C.3       4 UNK         0.1400 
     53 CB         -2.0398  -16.4005  -47.7615 C.3       4 UNK        -0.1800 
     54 N          -2.0236  -14.1284  -46.7784 N.am      4 UNK        -0.5000 
     55 C          -2.6830  -14.1393  -45.6071 C.2       3 UNK         0.5000 
     56 O          -2.7396  -15.1242  -44.8694 O.2       3 UNK        -0.5000 
     57 CA         -3.3369  -12.8131  -45.1555 C.3       3 UNK         0.1400 
     58 CB         -3.4225  -12.7001  -43.6185 C.3       3 UNK        -0.1800 
     59 N          -2.6973  -11.6145  -45.7156 N.am      3 UNK        -0.5000 
     60 C          -1.4101  -11.2535  -45.6056 C.2       2 UNK         0.5000 
     61 O          -0.5548  -11.8991  -44.9954 O.2       2 UNK        -0.5000 
     62 CA         -0.9987   -9.9850  -46.3734 C.3       2 UNK         0.1400 
     63 CB         -0.3333   -8.9646  -45.4365 C.3       2 UNK        -0.1800 
     64 N          -0.0900  -10.2818  -47.4824 N.am      2 UNK        -0.5000 
     65 C          -0.3319  -11.1253  -48.4957 C.2       1 UNK         0.5000 
     66 O          -1.3697  -11.7828  -48.6146 O.2       1 UNK        -0.5000 
     67 C          -1.0698  -22.2862  -48.0703 C.2       11 UNK         0.5000 
     68 O          -2.1268  -22.6509  -48.5869 O.2       11 UNK        -0.5000 
     69 N          -1.0116  -21.5039  -46.9841 N.am      12 UNK        -0.5000 
     70 CA         -2.1852  -21.0423  -46.2446 C.3       12 UNK         0.1400 
     71 CB         -1.8061  -19.8276  -45.3903 C.3       12 UNK        -0.1800 
     72 C          -2.7879  -22.1611  -45.3796 C.2       12 UNK         0.5000 
     73 O          -4.0100  -22.3075  -45.3494 O.2       12 UNK        -0.5000 
     74 N          -1.9212  -22.9495  -44.7251 N.am      13 UNK        -0.5000 
     75 CA         -2.2833  -24.0889  -43.8769 C.3       13 UNK         0.1400 
     76 CB         -1.0157  -24.6835  -43.2475 C.3       13 UNK        -0.1800 
     77 C          -3.0700  -25.1854  -44.6194 C.2       13 UNK         0.5000 
     78 O          -3.9600  -25.7988  -44.0285 O.2       13 UNK        -0.5000 
     79 N          -2.7702  -25.3803  -45.9108 N.am      14 UNK        -0.5000 
     80 CA         -3.4666  -26.2769  -46.8370 C.3       14 UNK         0.1400 
     81 CB         -2.5341  -26.5629  -48.0259 C.3       14 UNK        -0.1800 
     82 C          -4.8421  -25.7252  -47.2820 C.2       14 UNK         0.5000 
     83 O          -5.1107  -25.6158  -48.4809 O.2       14 UNK        -0.5000 
     84 N          -5.6794  -25.3564  -46.3000 N.am      15 UNK        -0.5000 
     85 CA         -7.0530  -24.8426  -46.4093 C.3       15 UNK         0.1400 
     86 CB         -7.9965  -25.9777  -46.8573 C.3       15 UNK        -0.1800 
     87 C          -7.2006  -23.5842  -47.2953 C.2       15 UNK         0.5000 
     88 O          -8.2849  -23.3316  -47.8225 O.2       15 UNK        -0.5000 
     89 N          -6.0957  -22.8464  -47.4789 N.am      16 UNK        -0.5000 
     90 CA         -5.8916  -21.7395  -48.4186 C.3       16 UNK         0.1400 
     91 CB         -6.7341  -20.5137  -48.0155 C.3       16 UNK        -0.1800 
     92 C          -6.0742  -22.1121  -49.9099 C.2       16 UNK         0.5000 
     93 O          -6.0818  -21.2177  -50.7567 O.2       16 UNK        -0.5000 
     94 N          -6.1734  -23.4098  -50.2333 N.am      17 UNK        -0.5000 
     95 CA         -6.3292  -23.9086  -51.6005 C.3       17 UNK         0.1400 
     96 CB         -6.7913  -25.3729  -51.5642 C.3       17 UNK        -0.1800 
     97 C          -5.0231  -23.7590  -52.3937 C.2       17 UNK         0.5000 
     98 O          -5.0379  -23.2898  -53.5325 O.2       17 UNK        -0.5000 
     99 N          -3.9039  -24.0964  -51.7402 N.am      18 UNK        -0.5000 
    100 CA        -2.5592  -23.8733  -52.2628 C.3       18 UNK         0.1400 
    101 CB        -1.5589  -24.7355  -51.4850 C.3       18 UNK        -0.1800 
    102 C         -2.1560  -22.3878  -52.2373 C.2       18 UNK         0.5000 
    103 O         -1.2982  -21.9962  -53.0257 O.2       18 UNK        -0.5000 
    104 N         -2.7809  -21.5799  -51.3662 N.am      19 UNK        -0.5000 
    105 CA        -2.5990  -20.1282  -51.3162 C.3       19 UNK         0.1400 
    106 CB        -3.1206  -19.5470  -49.9943 C.3       19 UNK        -0.1800 
    107 C         -3.2539  -19.4217  -52.5105 C.2       19 UNK         0.5000 
    108 O         -2.6475  -18.5134  -53.0756 O.2       19 UNK        -0.5000 
    109 N         -4.4525  -19.8802  -52.8991 N.am      20 UNK        -0.5000 
    110 CA        -5.1774  -19.4116  -54.0819 C.3       20 UNK         0.1400 
    111 CB        -6.5878  -20.0199  -54.0894 C.3       20 UNK        -0.1800 
    112 C         -4.4343  -19.7261  -55.3948 C.2       20 UNK         0.5000 
    113 O         -4.4268  -18.8964  -56.3048 O.2       20 UNK        -0.5000 
    114 N         -3.7935  -20.9019  -55.4520 N.am      21 UNK        -0.5000 
    115 CA        -2.9095  -21.3120  -56.5458 C.3       21 UNK         0.1400 
    116 CB        -2.7402  -22.8381  -56.4921 C.3       21 UNK        -0.1800 
    117 C         -1.5292  -20.6218  -56.4995 C.2       21 UNK         0.5000 
    118 O         -0.8724  -20.5093  -57.5350 O.2       21 UNK        -0.5000 
    119 N         -1.1152  -20.1932  -55.3010 N.am      22 UNK        -0.5000 
    120 CA         0.2205  -19.6930  -54.9501 C.3       22 UNK         0.1400 
    121 C          1.3279  -20.7786  -55.1015 C.2       22 UNK         0.5000 
    122 N          1.0927  -21.9765  -54.5814 N.am      22 UNK        -0.7600 
    123 O          2.3849  -20.5559  -55.6864 O.2       22 UNK        -0.5000 
    124 C124        0.5474  -18.3212  -55.6010 C.3       23 UNK        -0.0398 
    125 S125        1.6987  -17.3376  -54.5777 S.3       23 UNK        -0.2404 
    126 C126        0.5524  -16.5381  -53.4105 C.3       23 UNK        -0.0205 
    127 H127       -0.6320   -9.4986  -52.9193 H         1 UNK         0.0600 
    128 H128        0.4028   -8.0758  -52.7702 H         1 UNK         0.0600 
    129 H129       -1.2134   -8.0721  -52.0563 H         1 UNK         0.0600 
    130 H130       -0.0670  -11.1352  -51.5202 H         1 UNK         0.3000 
    131 H131        1.6554  -10.7107  -49.2301 H         1 UNK         0.0600 
    132 H132        0.2773  -13.3120  -50.0890 H         1 UNK         0.0800 
    133 H133        1.7520  -12.7119  -50.7993 H         1 UNK         0.0800 
    134 H134        3.8558  -15.1128  -48.7928 H         1 UNK         0.0800 
    135 H135        3.7124  -14.1612  -50.2474 H         1 UNK         0.0800 
    136 H136        2.1380  -14.8170  -52.0135 H         1 UNK         0.1150 
    137 H137        0.0598  -18.5334  -51.6378 H         1 UNK         0.1150 
    138 H138        2.1969  -16.9341  -48.2834 H         1 UNK         0.1150 
    139 H139        0.5273  -18.7324  -47.9708 H         1 UNK         0.0800 
    140 H140       -0.3487  -19.3848  -49.3187 H         1 UNK         0.0800 
    141 H141        1.5095  -22.3641  -50.3821 H         1 UNK         0.0800 
    142 H142        0.0615  -21.4250  -50.3871 H         1 UNK         0.0800 
    143 H143        0.0556  -23.7097  -49.1692 H         1 UNK         0.0600 
    144 H144        2.0558  -22.4926  -47.5614 H         1 UNK         0.3000 
    145 H145        1.7957  -24.6673  -44.7756 H         1 UNK         0.0600 
    146 H146        4.1377  -25.1957  -45.3659 H         1 UNK         0.0600 
    147 H147        3.0450  -26.0333  -46.4556 H         1 UNK         0.0600 
    148 H148        3.8951  -24.5945  -47.0066 H         1 UNK         0.0600 
    149 H149        3.7321  -22.7208  -45.3439 H         1 UNK         0.3000 
    150 H150        3.8124  -20.8048  -44.2418 H         1 UNK         0.0600 
    151 H151        2.7415  -19.7182  -46.1973 H         1 UNK         0.0600 
    152 H152        2.9005  -18.5673  -44.8803 H         1 UNK         0.0600 
    153 H153        1.3344  -19.2880  -45.2326 H         1 UNK         0.0600 
    154 H154        1.5505  -19.6154  -42.7994 H         1 UNK         0.3000 
    155 H155        2.2243  -21.2718  -39.7396 H         1 UNK         0.0600 
    156 H156        2.9672  -18.3643  -40.3820 H         1 UNK         0.0600 
    157 H157        4.0309  -19.5455  -39.6261 H         1 UNK         0.0600 
    158 H158        2.5874  -19.0057  -38.7828 H         1 UNK         0.0600 
    159 H159        0.6216  -18.9973  -40.5565 H         1 UNK         0.3000 
    160 H160       -1.8253  -20.5218  -42.2455 H         1 UNK         0.0600 
    161 H161       -2.4830  -20.2041  -39.2702 H         1 UNK         0.0600 
    162 H162       -2.7559  -21.6557  -40.2265 H         1 UNK         0.0600 
    163 H163       -3.6473  -20.1908  -40.5964 H         1 UNK         0.0600 
    164 H164       -2.1849  -18.1980  -40.7091 H         1 UNK         0.3000 
    165 H165       -2.1099  -16.2431  -42.3448 H         1 UNK         0.0600 
    166 H166        0.2513  -16.0801  -40.3913 H         1 UNK         0.0600 
    167 H167       -0.8653  -14.7551  -40.7139 H         1 UNK         0.0600 
    168 H168       -1.4488  -16.2366  -39.9820 H         1 UNK         0.0600 
    169 H169       -0.9059  -15.3369  -43.9176 H         1 UNK         0.3000 
    170 H170        1.6556  -13.7180  -44.1861 H         1 UNK         0.0600 
    171 H171        3.6149  -15.2158  -44.3367 H         1 UNK         0.0600 
    172 H172        2.7677  -16.2721  -45.4549 H         1 UNK         0.0600 
    173 H173        3.1774  -14.6269  -45.9296 H         1 UNK         0.0600 
    174 H174        0.0781  -13.6898  -45.6863 H         1 UNK         0.3000 
    175 H175       -0.6971  -14.7942  -48.2098 H         1 UNK         0.0600 
    176 H176       -2.5057  -16.9007  -46.9121 H         1 UNK         0.0600 
    177 H177       -2.8306  -16.0877  -48.4429 H         1 UNK         0.0600 
    178 H178       -1.4373  -17.1410  -48.2862 H         1 UNK         0.0600 
    179 H179       -2.0133  -13.2637  -47.3105 H         1 UNK         0.3000 
    180 H180       -4.3554  -12.8305  -45.5455 H         1 UNK         0.0600 
    181 H181       -2.4369  -12.7499  -43.1540 H         1 UNK         0.0600 
    182 H182       -4.0229  -13.5073  -43.1971 H         1 UNK         0.0600 
    183 H183       -3.8883  -11.7620  -43.3170 H         1 UNK         0.0600 
    184 H184       -3.3012  -11.0363  -46.2837 H         1 UNK         0.3000 
    185 H185       -1.8922   -9.5211  -46.7960 H         1 UNK         0.0600 
    186 H186       -0.9892   -8.7165  -44.6011 H         1 UNK         0.0600 
    187 H187        0.5988   -9.3481  -45.0192 H         1 UNK         0.0600 
    188 H188       -0.1093   -8.0349  -45.9600 H         1 UNK         0.0600 
    189 H189        0.7837   -9.7756  -47.4808 H         1 UNK         0.3000 
    190 H190       -0.1108  -21.2989  -46.5757 H         1 UNK         0.3000 
    191 H191       -2.9499  -20.7233  -46.9538 H         1 UNK         0.0600 
    192 H192       -2.6708  -19.4368  -44.8529 H         1 UNK         0.0600 
    193 H193       -1.4077  -19.0184  -46.0024 H         1 UNK         0.0600 
    194 H194       -1.0499  -20.0877  -44.6515 H         1 UNK         0.0600 
    195 H195       -0.9320  -22.7154  -44.7651 H         1 UNK         0.3000 
    196 H196       -2.9178  -23.7070  -43.0747 H         1 UNK         0.0600 
    197 H197       -0.3783  -25.1509  -43.9972 H         1 UNK         0.0600 
    198 H198       -0.4281  -23.9217  -42.7367 H         1 UNK         0.0600 
    199 H199       -1.2688  -25.4478  -42.5119 H         1 UNK         0.0600 
    200 H200       -1.9952  -24.8555  -46.2985 H         1 UNK         0.3000 
    201 H201       -3.6545  -27.2237  -46.3271 H         1 UNK         0.0600 
    202 H202       -2.2811  -25.6450  -48.5545 H         1 UNK         0.0600 
    203 H203       -2.9969  -27.2441  -48.7410 H         1 UNK         0.0600 
    204 H204       -1.6029  -27.0229  -47.6946 H         1 UNK         0.0600 
    205 H205       -5.3283  -25.4622  -45.3522 H         1 UNK         0.3000 
    206 H206       -7.3469  -24.5400  -45.4035 H         1 UNK         0.0600 
    207 H207       -7.8949  -26.8519  -46.2142 H         1 UNK         0.0600 
    208 H208       -9.0404  -25.6653  -46.8119 H         1 UNK         0.0600 
    209 H209       -7.7916  -26.2897  -47.8821 H         1 UNK         0.0600 
    210 H210       -5.2757  -23.1073  -46.9436 H         1 UNK         0.3000 
    211 H211       -4.8421  -21.4643  -48.3139 H         1 UNK         0.0600 
    212 H212       -6.4781  -19.6437  -48.6212 H         1 UNK         0.0600 
    213 H213       -6.5606  -20.2434  -46.9738 H         1 UNK         0.0600 
    214 H214       -7.8013  -20.6960  -48.1429 H         1 UNK         0.0600 
    215 H215       -6.0880  -24.1063  -49.5005 H         1 UNK         0.3000 
    216 H216       -7.0997  -23.3185  -52.1015 H         1 UNK         0.0600 
    217 H217       -6.0619  -26.0168  -51.0712 H         1 UNK         0.0600 
    218 H218       -6.9422  -25.7589  -52.5730 H         1 UNK         0.0600 
    219 H219       -7.7374  -25.4729  -51.0317 H         1 UNK         0.0600 
    220 H220       -3.9806  -24.4666  -50.8027 H         1 UNK         0.3000 
    221 H221       -2.5352  -24.1957  -53.3058 H         1 UNK         0.0600 
    222 H222       -1.7587  -25.7971  -51.6312 H         1 UNK         0.0600 
    223 H223       -1.6126  -24.5326  -50.4188 H         1 UNK         0.0600 
    224 H224       -0.5348  -24.5477  -51.8107 H         1 UNK         0.0600 
    225 H225       -3.4389  -21.9866  -50.7189 H         1 UNK         0.3000 
    226 H226       -1.5294  -19.9372  -51.3657 H         1 UNK         0.0600 
    227 H227       -4.2012  -19.6375  -49.9027 H         1 UNK         0.0600 
    228 H228       -2.6656  -20.0351  -49.1367 H         1 UNK         0.0600 
    229 H229       -2.8825  -18.4852  -49.9235 H         1 UNK         0.0600 
    230 H230       -4.9131  -20.5856  -52.3338 H         1 UNK         0.3000 
    231 H231       -5.2743  -18.3265  -54.0064 H         1 UNK         0.0600 
    232 H232       -6.5582  -21.1082  -54.1481 H         1 UNK         0.0600 
    233 H233       -7.1638  -19.6600  -54.9428 H         1 UNK         0.0600 
    234 H234       -7.1378  -19.7499  -53.1875 H         1 UNK         0.0600 
    235 H235       -3.9032  -21.5488  -54.6819 H         1 UNK         0.3000 
    236 H236       -3.3822  -21.0525  -57.4954 H         1 UNK         0.0600 
    237 H237       -3.7029  -23.3457  -56.5550 H         1 UNK         0.0600 
    238 H238       -2.1295  -23.1926  -57.3234 H         1 UNK         0.0600 
    239 H239       -2.2532  -23.1555  -55.5694 H         1 UNK         0.0600 
    240 H240       -1.7178  -20.3734  -54.5106 H         1 UNK         0.3000 
    241 H241        0.1536  -19.5241  -53.8750 H         1 UNK         0.0600 
    242 H242        1.7815  -22.7066  -54.6643 H         1 UNK         0.3800 
    243 H243        0.2298  -22.1388  -54.0676 H         1 UNK         0.3800 
    244 H244       -0.3648  -17.7397  -55.7421 H         1 UNK         0.0800 
    245 H245        0.9691  -18.4519  -56.5988 H         1 UNK         0.0800 
    246 H246        0.4423  -15.4875  -53.6832 H         1 UNK         0.0800 
    247 H247       -0.4438  -16.9752  -53.4907 H         1 UNK         0.0800 
@<TRIPOS>BOND
     1    1    2 1    
     2    1  127 1    
     3    1  128 1    
     4    1  129 1    
     5    2    3 2    
     6    2    4 am   BACKBONE|DICT|INTERRES
     7    4    5 1    
     8    4  130 1    
     9    5    6 1    
    10    5   65 1    
    11    5  131 1    
    12    6    7 1    
    13    6  132 1    
    14    6  133 1    
    15    7    8 1    
    16    8    9 1    
    17    8  134 1    
    18    8  135 1    
    19    9   10 ar   
    20    9   14 ar   
    21   10   11 ar   
    22   10  136 1    
    23   11   12 ar   
    24   11  126 1    
    25   12   13 ar   
    26   12  137 1    
    27   13   14 ar   
    28   13   15 1    
    29   14  138 1    
    30   15   16 1    
    31   15  139 1    
    32   15  140 1    
    33   16   17 1    
    34   17   18 1    
    35   17  141 1    
    36   17  142 1    
    37   18   19 1    
    38   18   67 1    
    39   18  143 1    
    40   19   20 am   BACKBONE|DICT|INTERRES
    41   19  144 1    
    42   20   21 2    
    43   20   22 1    
    44   22   23 1    
    45   22   24 1    
    46   22  145 1    
    47   23  146 1    
    48   23  147 1    
    49   23  148 1    
    50   24   25 am   BACKBONE|DICT|INTERRES
    51   24  149 1    
    52   25   26 2    
    53   25   27 1    
    54   27   28 1    
    55   27   29 1    
    56   27  150 1    
    57   28  151 1    
    58   28  152 1    
    59   28  153 1    
    60   29   30 am   BACKBONE|DICT|INTERRES
    61   29  154 1    
    62   30   31 2    
    63   30   32 1    
    64   32   33 1    
    65   32   34 1    
    66   32  155 1    
    67   33  156 1    
    68   33  157 1    
    69   33  158 1    
    70   34   35 am   BACKBONE|DICT|INTERRES
    71   34  159 1    
    72   35   36 2    
    73   35   37 1    
    74   37   38 1    
    75   37   39 1    
    76   37  160 1    
    77   38  161 1    
    78   38  162 1    
    79   38  163 1    
    80   39   40 am   BACKBONE|DICT|INTERRES
    81   39  164 1    
    82   40   41 2    
    83   40   42 1    
    84   42   43 1    
    85   42   44 1    
    86   42  165 1    
    87   43  166 1    
    88   43  167 1    
    89   43  168 1    
    90   44   45 am   BACKBONE|DICT|INTERRES
    91   44  169 1    
    92   45   46 2    
    93   45   47 1    
    94   47   48 1    
    95   47   49 1    
    96   47  170 1    
    97   48  171 1    
    98   48  172 1    
    99   48  173 1    
   100   49   50 am   BACKBONE|DICT|INTERRES
   101   49  174 1    
   102   50   51 2    
   103   50   52 1    
   104   52   53 1    
   105   52   54 1    
   106   52  175 1    
   107   53  176 1    
   108   53  177 1    
   109   53  178 1    
   110   54   55 am   BACKBONE|DICT|INTERRES
   111   54  179 1    
   112   55   56 2    
   113   55   57 1    
   114   57   58 1    
   115   57   59 1    
   116   57  180 1    
   117   58  181 1    
   118   58  182 1    
   119   58  183 1    
   120   59   60 am   BACKBONE|DICT|INTERRES
   121   59  184 1    
   122   60   61 2    
   123   60   62 1    
   124   62   63 1    
   125   62   64 1    
   126   62  185 1    
   127   63  186 1    
   128   63  187 1    
   129   63  188 1    
   130   64   65 am   BACKBONE|DICT|INTERRES
   131   64  189 1    
   132   65   66 2    
   133   67   68 2    
   134   67   69 am   BACKBONE|DICT|INTERRES
   135   69   70 1    
   136   69  190 1    
   137   70   71 1    
   138   70   72 1    
   139   70  191 1    
   140   71  192 1    
   141   71  193 1    
   142   71  194 1    
   143   72   73 2    
   144   72   74 am   BACKBONE|DICT|INTERRES
   145   74   75 1    
   146   74  195 1    
   147   75   76 1    
   148   75   77 1    
   149   75  196 1    
   150   76  197 1    
   151   76  198 1    
   152   76  199 1    
   153   77   78 2    
   154   77   79 am   BACKBONE|DICT|INTERRES
   155   79   80 1    
   156   79  200 1    
   157   80   81 1    
   158   80   82 1    
   159   80  201 1    
   160   81  202 1    
   161   81  203 1    
   162   81  204 1    
   163   82   83 2    
   164   82   84 am   BACKBONE|DICT|INTERRES
   165   84   85 1    
   166   84  205 1    
   167   85   86 1    
   168   85   87 1    
   169   85  206 1    
   170   86  207 1    
   171   86  208 1    
   172   86  209 1    
   173   87   88 2    
   174   87   89 am   BACKBONE|DICT|INTERRES
   175   89   90 1    
   176   89  210 1    
   177   90   91 1    
   178   90   92 1    
   179   90  211 1    
   180   91  212 1    
   181   91  213 1    
   182   91  214 1    
   183   92   93 2    
   184   92   94 am   BACKBONE|DICT|INTERRES
   185   94   95 1    
   186   94  215 1    
   187   95   96 1    
   188   95   97 1    
   189   95  216 1    
   190   96  217 1    
   191   96  218 1    
   192   96  219 1    
   193   97   98 2    
   194   97   99 am   BACKBONE|DICT|INTERRES
   195   99  100 1    
   196   99  220 1    
   197  100  101 1    
   198  100  102 1    
   199  100  221 1    
   200  101  222 1    
   201  101  223 1    
   202  101  224 1    
   203  102  103 2    
   204  102  104 am   BACKBONE|DICT|INTERRES
   205  104  105 1    
   206  104  225 1    
   207  105  106 1    
   208  105  107 1    
   209  105  226 1    
   210  106  227 1    
   211  106  228 1    
   212  106  229 1    
   213  107  108 2    
   214  107  109 am   BACKBONE|DICT|INTERRES
   215  109  110 1    
   216  109  230 1    
   217  110  111 1    
   218  110  112 1    
   219  110  231 1    
   220  111  232 1    
   221  111  233 1    
   222  111  234 1    
   223  112  113 2    
   224  112  114 am   BACKBONE|DICT|INTERRES
   225  114  115 1    
   226  114  235 1    
   227  115  116 1    
   228  115  117 1    
   229  115  236 1    
   230  116  237 1    
   231  116  238 1    
   232  116  239 1    
   233  117  118 2    
   234  117  119 am   BACKBONE|DICT|INTERRES
   235  119  120 1    
   236  119  240 1    
   237  120  121 1    
   238  120  124 1    
   239  120  241 1    
   240  121  122 am   BACKBONE|DICT|INTERRES
   241  121  123 2    
   242  122  242 1    
   243  122  243 1    
   244  124  125 1    
   245  124  244 1    
   246  124  245 1    
   247  125  126 1    
   248  126  246 1    
   249  126  247 1    
@<TRIPOS>SUBSTRUCTURE
     1 UNK         1 GROUP             0       ****    0 ROOT    
