@<TRIPOS>MOLECULE
3R540
247   249    1
SMALL
USER_CHARGES


@<TRIPOS>ATOM
      1 CA          4.6461   -9.4185  -53.6065 C.3       0 UNK        -0.1800 
      2 C           5.1746  -10.1277  -52.3674 C.2       0 UNK         0.5000 
      3 O           6.0071   -9.5709  -51.6511 O.2       0 UNK        -0.5000 
      4 N           4.7014  -11.3547  -52.1169 N.am      1 UNK        -0.5000 
      5 CA          5.0378  -12.1612  -50.9419 C.3       1 UNK         0.1400 
      6 C6          4.6555  -13.6468  -51.1608 C.3       23 UNK        -0.0398 
      7 S7          5.5078  -14.7868  -50.0164 S.3       23 UNK        -0.2404 
      8 C8          4.1668  -15.2543  -48.8774 C.3       23 UNK        -0.0205 
      9 C9          3.2036  -16.2636  -49.4875 C.ar      23 UNK        -0.0193 
     10 C10         1.9935  -15.8411  -50.0442 C.ar      23 UNK        -0.1150 
     11 C11         1.0946  -16.7638  -50.5881 C.ar      23 UNK        -0.0193 
     12 C12         1.4212  -18.1234  -50.5817 C.ar      23 UNK        -0.1150 
     13 C13         2.6351  -18.5597  -50.0414 C.ar      23 UNK        -0.0193 
     14 C14         3.5165  -17.6259  -49.4864 C.ar      23 UNK        -0.1150 
     15 C15         3.0202  -20.0311  -50.0970 C.3       23 UNK        -0.0205 
     16 S16         2.5348  -20.9300  -48.5923 S.3       23 UNK        -0.2404 
     17 C17         0.7593  -21.2228  -48.8965 C.3       23 UNK        -0.0398 
     18 CA          0.2082  -22.3636  -48.0109 C.3       11 UNK         0.1400 
     19 N           0.1914  -22.0201  -46.5880 N.am      11 UNK        -0.5000 
     20 C           0.0042  -22.9040  -45.5994 C.2       10 UNK         0.5000 
     21 O          -0.1603  -24.1105  -45.7858 O.2       10 UNK        -0.5000 
     22 CA         -0.0449  -22.3432  -44.1664 C.3       10 UNK         0.1400 
     23 CB          1.3651  -22.0029  -43.6613 C.3       10 UNK        -0.1800 
     24 N          -0.9112  -21.1691  -44.0455 N.am      10 UNK        -0.5000 
     25 C          -2.2358  -21.1835  -44.2545 C.2       9 UNK         0.5000 
     26 O          -2.8695  -22.1951  -44.5536 O.2       9 UNK        -0.5000 
     27 CA         -2.9751  -19.8372  -44.1489 C.3       9 UNK         0.1400 
     28 CB         -3.2159  -19.4558  -42.6807 C.3       9 UNK        -0.1800 
     29 N          -2.2706  -18.7504  -44.8262 N.am      9 UNK        -0.5000 
     30 C          -2.0094  -18.7142  -46.1409 C.2       8 UNK         0.5000 
     31 O          -2.3705  -19.5774  -46.9364 O.2       8 UNK        -0.5000 
     32 CA         -1.1398  -17.5480  -46.6348 C.3       8 UNK         0.1400 
     33 CB         -1.9642  -16.2549  -46.7234 C.3       8 UNK        -0.1800 
     34 N           0.0258  -17.3465  -45.7734 N.am      8 UNK        -0.5000 
     35 C           0.9963  -18.2556  -45.5959 C.2       7 UNK         0.5000 
     36 O           1.0185  -19.3496  -46.1520 O.2       7 UNK        -0.5000 
     37 CA          2.0989  -17.9110  -44.5838 C.3       7 UNK         0.1400 
     38 CB          3.2301  -17.1358  -45.2696 C.3       7 UNK        -0.1800 
     39 N           1.5746  -17.1603  -43.4403 N.am      7 UNK        -0.5000 
     40 C           0.7945  -17.7220  -42.5038 C.2       6 UNK         0.5000 
     41 O           0.4506  -18.9051  -42.5240 O.2       6 UNK        -0.5000 
     42 CA          0.2845  -16.8115  -41.3746 C.3       6 UNK         0.1400 
     43 CB          1.4009  -16.5262  -40.3588 C.3       6 UNK        -0.1800 
     44 N          -0.2701  -15.5444  -41.8463 N.am      6 UNK        -0.5000 
     45 C          -1.3046  -15.3940  -42.6812 C.2       5 UNK         0.5000 
     46 O          -1.8914  -16.3389  -43.2083 O.2       5 UNK        -0.5000 
     47 CA         -1.7575  -13.9531  -43.0031 C.3       5 UNK         0.1400 
     48 CB         -2.8029  -13.4616  -41.9848 C.3       5 UNK        -0.1800 
     49 N          -0.6609  -12.9859  -43.1630 N.am      5 UNK        -0.5000 
     50 C           0.2239  -12.5391  -42.2570 C.2       4 UNK         0.5000 
     51 O           0.1830  -12.8301  -41.0605 O.2       4 UNK        -0.5000 
     52 CA          1.3862  -11.6786  -42.8064 C.3       4 UNK         0.1400 
     53 CB          2.6122  -11.6731  -41.8700 C.3       4 UNK        -0.1800 
     54 N           1.7946  -12.0548  -44.1683 N.am      4 UNK        -0.5000 
     55 C           2.1763  -13.2713  -44.5904 C.2       3 UNK         0.5000 
     56 O           2.2379  -14.2714  -43.8720 O.2       3 UNK        -0.5000 
     57 CA          2.4839  -13.4086  -46.0897 C.3       3 UNK         0.1400 
     58 CB          1.2135  -13.8321  -46.8422 C.3       3 UNK        -0.1800 
     59 N           3.0309  -12.2064  -46.7169 N.am      3 UNK        -0.5000 
     60 C           4.2590  -11.7256  -46.4892 C.2       2 UNK         0.5000 
     61 O           5.0292  -12.1835  -45.6434 O.2       2 UNK        -0.5000 
     62 CA          4.7209  -10.5936  -47.4254 C.3       2 UNK         0.1400 
     63 CB          5.8634   -9.7596  -46.8194 C.3       2 UNK        -0.1800 
     64 N           5.1672  -11.1488  -48.7039 N.am      2 UNK        -0.5000 
     65 C           4.3609  -11.5630  -49.6897 C.2       1 UNK         0.5000 
     66 O           3.1307  -11.4832  -49.6441 O.2       1 UNK        -0.5000 
     67 C          -1.1719  -22.8458  -48.4986 C.2       11 UNK         0.5000 
     68 O          -1.2272  -23.8153  -49.2544 O.2       11 UNK        -0.5000 
     69 N          -2.2593  -22.2157  -48.0287 N.am      12 UNK        -0.5000 
     70 CA         -3.6310  -22.6468  -48.2994 C.3       12 UNK         0.1400 
     71 CB         -4.6346  -21.6131  -47.7748 C.3       12 UNK        -0.1800 
     72 C          -3.9381  -24.0341  -47.7173 C.2       12 UNK         0.5000 
     73 O          -4.5445  -24.8487  -48.4089 O.2       12 UNK        -0.5000 
     74 N          -3.4872  -24.2995  -46.4827 N.am      13 UNK        -0.5000 
     75 CA         -3.6074  -25.6023  -45.8262 C.3       13 UNK         0.1400 
     76 CB         -3.1518  -25.4987  -44.3632 C.3       13 UNK        -0.1800 
     77 C          -2.8387  -26.7098  -46.5694 C.2       13 UNK         0.5000 
     78 O          -3.3861  -27.7948  -46.7677 O.2       13 UNK        -0.5000 
     79 N          -1.6140  -26.4010  -47.0207 N.am      14 UNK        -0.5000 
     80 CA         -0.7864  -27.2825  -47.8498 C.3       14 UNK         0.1400 
     81 CB          0.6134  -26.6702  -48.0079 C.3       14 UNK        -0.1800 
     82 C          -1.4142  -27.5808  -49.2272 C.2       14 UNK         0.5000 
     83 O          -1.3075  -28.7063  -49.7147 O.2       14 UNK        -0.5000 
     84 N          -2.0914  -26.5811  -49.8060 N.am      15 UNK        -0.5000 
     85 CA         -2.8536  -26.6756  -51.0525 C.3       15 UNK         0.1400 
     86 CB         -2.9325  -25.2748  -51.6815 C.3       15 UNK        -0.1800 
     87 C          -4.2678  -27.2704  -50.8728 C.2       15 UNK         0.5000 
     88 O          -5.0116  -27.3372  -51.8518 O.2       15 UNK        -0.5000 
     89 N          -4.6395  -27.6577  -49.6418 N.am      16 UNK        -0.5000 
     90 CA         -5.9414  -28.2040  -49.2351 C.3       16 UNK         0.1400 
     91 CB         -6.1404  -29.6154  -49.8248 C.3       16 UNK        -0.1800 
     92 C          -7.1253  -27.2554  -49.5336 C.2       16 UNK         0.5000 
     93 O          -8.2205  -27.7136  -49.8631 O.2       16 UNK        -0.5000 
     94 N          -6.8641  -25.9442  -49.4323 N.am      17 UNK        -0.5000 
     95 CA         -7.7460  -24.8066  -49.7095 C.3       17 UNK         0.1400 
     96 CB         -8.9497  -24.7963  -48.7455 C.3       17 UNK        -0.1800 
     97 C          -8.1720  -24.6646  -51.1877 C.2       17 UNK         0.5000 
     98 O          -9.0572  -23.8594  -51.4816 O.2       17 UNK        -0.5000 
     99 N          -7.5372  -25.4137  -52.1014 N.am      18 UNK        -0.5000 
    100 CA        -7.8160  -25.3687  -53.5390 C.3       18 UNK         0.1400 
    101 CB        -7.3817  -26.6982  -54.1749 C.3       18 UNK        -0.1800 
    102 C         -7.1284  -24.1853  -54.2471 C.2       18 UNK         0.5000 
    103 O         -7.5334  -23.8268  -55.3539 O.2       18 UNK        -0.5000 
    104 N         -6.1035  -23.6076  -53.6114 N.am      19 UNK        -0.5000 
    105 CA        -5.2874  -22.5057  -54.1065 C.3       19 UNK         0.1400 
    106 CB        -4.3014  -23.0282  -55.1723 C.3       19 UNK        -0.1800 
    107 C         -4.5445  -21.8677  -52.9212 C.2       19 UNK         0.5000 
    108 O         -4.6788  -22.3375  -51.7893 O.2       19 UNK        -0.5000 
    109 N         -3.7655  -20.8167  -53.2137 N.am      20 UNK        -0.5000 
    110 CA        -2.7945  -20.1426  -52.3380 C.3       20 UNK         0.1400 
    111 CB        -1.6904  -21.1228  -51.8978 C.3       20 UNK        -0.1800 
    112 C         -3.3835  -19.3671  -51.1401 C.2       20 UNK         0.5000 
    113 O         -2.6194  -18.8467  -50.3266 O.2       20 UNK        -0.5000 
    114 N         -4.7144  -19.2451  -51.0694 N.am      21 UNK        -0.5000 
    115 CA        -5.4480  -18.4912  -50.0526 C.3       21 UNK         0.1400 
    116 CB        -6.8661  -19.0779  -49.9345 C.3       21 UNK        -0.1800 
    117 C         -5.4422  -16.9800  -50.3602 C.2       21 UNK         0.5000 
    118 O         -6.4941  -16.3892  -50.6106 O.2       21 UNK        -0.5000 
    119 N         -4.2430  -16.3888  -50.3601 N.am      22 UNK        -0.5000 
    120 CA        -3.9891  -14.9650  -50.6327 C.3       22 UNK         0.1400 
    121 C         -4.3430  -13.9845  -49.4728 C.2       22 UNK         0.5000 
    122 N         -4.7687  -14.4513  -48.3053 N.am      22 UNK        -0.7600 
    123 O         -4.2507  -12.7718  -49.6436 O.2       22 UNK        -0.5000 
    124 C124       -2.5568  -14.7384  -51.1833 C.3       23 UNK        -0.0398 
    125 S125       -1.2275  -15.3212  -50.0722 S.3       23 UNK        -0.2404 
    126 C126       -0.2020  -16.2846  -51.2271 C.3       23 UNK        -0.0205 
    127 H127        5.4676   -9.1831  -54.2832 H         1 UNK         0.0600 
    128 H128        3.9245  -10.0309  -54.1480 H         1 UNK         0.0600 
    129 H129        4.1569   -8.4860  -53.3247 H         1 UNK         0.0600 
    130 H130        3.9957  -11.7422  -52.7268 H         1 UNK         0.3000 
    131 H131        6.1217  -12.1105  -50.8147 H         1 UNK         0.0600 
    132 H132        4.9494  -13.9531  -52.1658 H         1 UNK         0.0800 
    133 H133        3.5754  -13.7868  -51.1205 H         1 UNK         0.0800 
    134 H134        4.6041  -15.6733  -47.9699 H         1 UNK         0.0800 
    135 H135        3.6350  -14.3545  -48.5729 H         1 UNK         0.0800 
    136 H136        1.7437  -14.7899  -50.0574 H         1 UNK         0.1150 
    137 H137        0.7397  -18.8411  -51.0150 H         1 UNK         0.1150 
    138 H138        4.4548  -17.9586  -49.0651 H         1 UNK         0.1150 
    139 H139        2.5850  -20.5084  -50.9762 H         1 UNK         0.0800 
    140 H140        4.1012  -20.1176  -50.2164 H         1 UNK         0.0800 
    141 H141        0.6470  -21.4830  -49.9492 H         1 UNK         0.0800 
    142 H142        0.2036  -20.2966  -48.7357 H         1 UNK         0.0800 
    143 H143        0.8829  -23.2154  -48.1232 H         1 UNK         0.0600 
    144 H144        0.3667  -21.0425  -46.3611 H         1 UNK         0.3000 
    145 H145       -0.4541  -23.1232  -43.5210 H         1 UNK         0.0600 
    146 H146        1.3422  -21.6668  -42.6245 H         1 UNK         0.0600 
    147 H147        2.0167  -22.8762  -43.7070 H         1 UNK         0.0600 
    148 H148        1.8283  -21.2167  -44.2574 H         1 UNK         0.0600 
    149 H149       -0.4668  -20.2989  -43.7731 H         1 UNK         0.3000 
    150 H150       -3.9466  -19.9540  -44.6333 H         1 UNK         0.0600 
    151 H151       -3.7546  -20.2450  -42.1548 H         1 UNK         0.0600 
    152 H152       -3.8122  -18.5464  -42.6035 H         1 UNK         0.0600 
    153 H153       -2.2791  -19.2850  -42.1492 H         1 UNK         0.0600 
    154 H154       -1.9603  -17.9773  -44.2440 H         1 UNK         0.3000 
    155 H155       -0.7791  -17.7931  -47.6368 H         1 UNK         0.0600 
    156 H156       -1.3626  -15.4200  -47.0794 H         1 UNK         0.0600 
    157 H157       -2.3945  -15.9720  -45.7636 H         1 UNK         0.0600 
    158 H158       -2.7883  -16.3791  -47.4261 H         1 UNK         0.0600 
    159 H159        0.0512  -16.5027  -45.2228 H         1 UNK         0.3000 
    160 H160        2.5198  -18.8460  -44.2082 H         1 UNK         0.0600 
    161 H161        2.8396  -16.2929  -45.8331 H         1 UNK         0.0600 
    162 H162        3.7594  -17.7746  -45.9779 H         1 UNK         0.0600 
    163 H163        3.9601  -16.7629  -44.5510 H         1 UNK         0.0600 
    164 H164        1.8023  -16.1713  -43.3860 H         1 UNK         0.3000 
    165 H165       -0.5162  -17.3459  -40.8593 H         1 UNK         0.0600 
    166 H166        2.2085  -15.9421  -40.8025 H         1 UNK         0.0600 
    167 H167        1.0201  -15.9716  -39.5010 H         1 UNK         0.0600 
    168 H168        1.8331  -17.4536  -39.9806 H         1 UNK         0.0600 
    169 H169        0.1298  -14.6964  -41.4560 H         1 UNK         0.3000 
    170 H170       -2.2496  -13.9979  -43.9760 H         1 UNK         0.0600 
    171 H171       -2.4012  -13.4202  -40.9722 H         1 UNK         0.0600 
    172 H172       -3.6654  -14.1290  -41.9634 H         1 UNK         0.0600 
    173 H173       -3.1677  -12.4675  -42.2428 H         1 UNK         0.0600 
    174 H174       -0.5049  -12.6881  -44.1152 H         1 UNK         0.3000 
    175 H175        1.0073  -10.6574  -42.8651 H         1 UNK         0.0600 
    176 H176        3.4134  -11.0542  -42.2740 H         1 UNK         0.0600 
    177 H177        2.3564  -11.2711  -40.8890 H         1 UNK         0.0600 
    178 H178        3.0091  -12.6778  -41.7197 H         1 UNK         0.0600 
    179 H179        1.7684  -11.3134  -44.8544 H         1 UNK         0.3000 
    180 H180        3.2366  -14.1888  -46.1973 H         1 UNK         0.0600 
    181 H181        0.4064  -13.1098  -46.7140 H         1 UNK         0.0600 
    182 H182        0.8550  -14.7946  -46.4812 H         1 UNK         0.0600 
    183 H183        1.3924  -13.9357  -47.9106 H         1 UNK         0.0600 
    184 H184        2.5010  -11.8100  -47.4833 H         1 UNK         0.3000 
    185 H185        3.8749   -9.9245  -47.5972 H         1 UNK         0.0600 
    186 H186        6.1289   -8.9262  -47.4702 H         1 UNK         0.0600 
    187 H187        5.5704   -9.3389  -45.8567 H         1 UNK         0.0600 
    188 H188        6.7620  -10.3565  -46.6579 H         1 UNK         0.0600 
    189 H189        6.1652  -11.2570  -48.8141 H         1 UNK         0.3000 
    190 H190       -2.1527  -21.3819  -47.4556 H         1 UNK         0.3000 
    191 H191       -3.7480  -22.7087  -49.3819 H         1 UNK         0.0600 
    192 H192       -4.4692  -20.6464  -48.2444 H         1 UNK         0.0600 
    193 H193       -5.6592  -21.9129  -47.9979 H         1 UNK         0.0600 
    194 H194       -4.5537  -21.4805  -46.6957 H         1 UNK         0.0600 
    195 H195       -3.0409  -23.5590  -45.9488 H         1 UNK         0.3000 
    196 H196       -4.6644  -25.8766  -45.8299 H         1 UNK         0.0600 
    197 H197       -3.2466  -26.4593  -43.8555 H         1 UNK         0.0600 
    198 H198       -3.7583  -24.7792  -43.8131 H         1 UNK         0.0600 
    199 H199       -2.1106  -25.1864  -44.2839 H         1 UNK         0.0600 
    200 H200       -1.2190  -25.4973  -46.7775 H         1 UNK         0.3000 
    201 H201       -0.6830  -28.2325  -47.3216 H         1 UNK         0.0600 
    202 H202        1.0850  -26.5083  -47.0385 H         1 UNK         0.0600 
    203 H203        0.5781  -25.7120  -48.5262 H         1 UNK         0.0600 
    204 H204        1.2652  -27.3298  -48.5819 H         1 UNK         0.0600 
    205 H205       -2.0728  -25.6671  -49.3647 H         1 UNK         0.3000 
    206 H206       -2.3174  -27.3270  -51.7452 H         1 UNK         0.0600 
    207 H207       -1.9390  -24.8658  -51.8651 H         1 UNK         0.0600 
    208 H208       -3.4565  -25.2946  -52.6378 H         1 UNK         0.0600 
    209 H209       -3.4621  -24.5799  -51.0302 H         1 UNK         0.0600 
    210 H210       -3.9761  -27.5261  -48.8884 H         1 UNK         0.3000 
    211 H211       -5.9017  -28.3024  -48.1494 H         1 UNK         0.0600 
    212 H212       -6.2471  -29.5894  -50.9097 H         1 UNK         0.0600 
    213 H213       -7.0361  -30.0872  -49.4191 H         1 UNK         0.0600 
    214 H214       -5.2976  -30.2640  -49.5859 H         1 UNK         0.0600 
    215 H215       -5.9247  -25.6773  -49.1352 H         1 UNK         0.3000 
    216 H216       -7.1492  -23.9193  -49.4927 H         1 UNK         0.0600 
    217 H217       -8.6241  -24.8742  -47.7082 H         1 UNK         0.0600 
    218 H218       -9.6367  -25.6189  -48.9455 H         1 UNK         0.0600 
    219 H219       -9.5172  -23.8694  -48.8360 H         1 UNK         0.0600 
    220 H220       -6.8152  -26.0578  -51.7994 H         1 UNK         0.3000 
    221 H221       -8.8929  -25.2627  -53.6864 H         1 UNK         0.0600 
    222 H222       -6.3007  -26.8330  -54.1277 H         1 UNK         0.0600 
    223 H223       -7.8488  -27.5478  -53.6762 H         1 UNK         0.0600 
    224 H224       -7.6691  -26.7389  -55.2263 H         1 UNK         0.0600 
    225 H225       -5.8642  -23.9091  -52.6752 H         1 UNK         0.3000 
    226 H226       -5.9390  -21.7473  -54.5448 H         1 UNK         0.0600 
    227 H227       -4.8250  -23.4927  -56.0078 H         1 UNK         0.0600 
    228 H228       -3.6966  -22.2222  -55.5885 H         1 UNK         0.0600 
    229 H229       -3.6188  -23.7694  -54.7548 H         1 UNK         0.0600 
    230 H230       -3.7650  -20.4879  -54.1695 H         1 UNK         0.3000 
    231 H231       -2.3184  -19.3845  -52.9615 H         1 UNK         0.0600 
    232 H232       -0.8907  -20.5930  -51.3831 H         1 UNK         0.0600 
    233 H233       -1.2442  -21.6291  -52.7535 H         1 UNK         0.0600 
    234 H234       -2.0726  -21.8849  -51.2188 H         1 UNK         0.0600 
    235 H235       -5.2664  -19.6872  -51.7886 H         1 UNK         0.3000 
    236 H236       -4.9549  -18.6144  -49.0870 H         1 UNK         0.0600 
    237 H237       -7.4392  -18.5636  -49.1620 H         1 UNK         0.0600 
    238 H238       -7.4193  -18.9895  -50.8703 H         1 UNK         0.0600 
    239 H239       -6.8332  -20.1337  -49.6644 H         1 UNK         0.0600 
    240 H240       -3.4268  -16.9604  -50.1662 H         1 UNK         0.3000 
    241 H241       -4.6674  -14.6792  -51.4390 H         1 UNK         0.0600 
    242 H242       -4.8724  -15.4406  -48.1568 H         1 UNK         0.3800 
    243 H243       -5.0042  -13.8035  -47.5705 H         1 UNK         0.3800 
    244 H244       -2.4668  -15.2479  -52.1434 H         1 UNK         0.0800 
    245 H245       -2.3869  -13.6827  -51.4012 H         1 UNK         0.0800 
    246 H246        0.0439  -15.6682  -52.0927 H         1 UNK         0.0800 
    247 H247       -0.7859  -17.1287  -51.5972 H         1 UNK         0.0800 
@<TRIPOS>BOND
     1    1    2 1    
     2    1  127 1    
     3    1  128 1    
     4    1  129 1    
     5    2    3 2    
     6    2    4 am   BACKBONE|DICT|INTERRES
     7    4    5 1    
     8    4  130 1    
     9    5    6 1    
    10    5   65 1    
    11    5  131 1    
    12    6    7 1    
    13    6  132 1    
    14    6  133 1    
    15    7    8 1    
    16    8    9 1    
    17    8  134 1    
    18    8  135 1    
    19    9   10 ar   
    20    9   14 ar   
    21   10   11 ar   
    22   10  136 1    
    23   11   12 ar   
    24   11  126 1    
    25   12   13 ar   
    26   12  137 1    
    27   13   14 ar   
    28   13   15 1    
    29   14  138 1    
    30   15   16 1    
    31   15  139 1    
    32   15  140 1    
    33   16   17 1    
    34   17   18 1    
    35   17  141 1    
    36   17  142 1    
    37   18   19 1    
    38   18   67 1    
    39   18  143 1    
    40   19   20 am   BACKBONE|DICT|INTERRES
    41   19  144 1    
    42   20   21 2    
    43   20   22 1    
    44   22   23 1    
    45   22   24 1    
    46   22  145 1    
    47   23  146 1    
    48   23  147 1    
    49   23  148 1    
    50   24   25 am   BACKBONE|DICT|INTERRES
    51   24  149 1    
    52   25   26 2    
    53   25   27 1    
    54   27   28 1    
    55   27   29 1    
    56   27  150 1    
    57   28  151 1    
    58   28  152 1    
    59   28  153 1    
    60   29   30 am   BACKBONE|DICT|INTERRES
    61   29  154 1    
    62   30   31 2    
    63   30   32 1    
    64   32   33 1    
    65   32   34 1    
    66   32  155 1    
    67   33  156 1    
    68   33  157 1    
    69   33  158 1    
    70   34   35 am   BACKBONE|DICT|INTERRES
    71   34  159 1    
    72   35   36 2    
    73   35   37 1    
    74   37   38 1    
    75   37   39 1    
    76   37  160 1    
    77   38  161 1    
    78   38  162 1    
    79   38  163 1    
    80   39   40 am   BACKBONE|DICT|INTERRES
    81   39  164 1    
    82   40   41 2    
    83   40   42 1    
    84   42   43 1    
    85   42   44 1    
    86   42  165 1    
    87   43  166 1    
    88   43  167 1    
    89   43  168 1    
    90   44   45 am   BACKBONE|DICT|INTERRES
    91   44  169 1    
    92   45   46 2    
    93   45   47 1    
    94   47   48 1    
    95   47   49 1    
    96   47  170 1    
    97   48  171 1    
    98   48  172 1    
    99   48  173 1    
   100   49   50 am   BACKBONE|DICT|INTERRES
   101   49  174 1    
   102   50   51 2    
   103   50   52 1    
   104   52   53 1    
   105   52   54 1    
   106   52  175 1    
   107   53  176 1    
   108   53  177 1    
   109   53  178 1    
   110   54   55 am   BACKBONE|DICT|INTERRES
   111   54  179 1    
   112   55   56 2    
   113   55   57 1    
   114   57   58 1    
   115   57   59 1    
   116   57  180 1    
   117   58  181 1    
   118   58  182 1    
   119   58  183 1    
   120   59   60 am   BACKBONE|DICT|INTERRES
   121   59  184 1    
   122   60   61 2    
   123   60   62 1    
   124   62   63 1    
   125   62   64 1    
   126   62  185 1    
   127   63  186 1    
   128   63  187 1    
   129   63  188 1    
   130   64   65 am   BACKBONE|DICT|INTERRES
   131   64  189 1    
   132   65   66 2    
   133   67   68 2    
   134   67   69 am   BACKBONE|DICT|INTERRES
   135   69   70 1    
   136   69  190 1    
   137   70   71 1    
   138   70   72 1    
   139   70  191 1    
   140   71  192 1    
   141   71  193 1    
   142   71  194 1    
   143   72   73 2    
   144   72   74 am   BACKBONE|DICT|INTERRES
   145   74   75 1    
   146   74  195 1    
   147   75   76 1    
   148   75   77 1    
   149   75  196 1    
   150   76  197 1    
   151   76  198 1    
   152   76  199 1    
   153   77   78 2    
   154   77   79 am   BACKBONE|DICT|INTERRES
   155   79   80 1    
   156   79  200 1    
   157   80   81 1    
   158   80   82 1    
   159   80  201 1    
   160   81  202 1    
   161   81  203 1    
   162   81  204 1    
   163   82   83 2    
   164   82   84 am   BACKBONE|DICT|INTERRES
   165   84   85 1    
   166   84  205 1    
   167   85   86 1    
   168   85   87 1    
   169   85  206 1    
   170   86  207 1    
   171   86  208 1    
   172   86  209 1    
   173   87   88 2    
   174   87   89 am   BACKBONE|DICT|INTERRES
   175   89   90 1    
   176   89  210 1    
   177   90   91 1    
   178   90   92 1    
   179   90  211 1    
   180   91  212 1    
   181   91  213 1    
   182   91  214 1    
   183   92   93 2    
   184   92   94 am   BACKBONE|DICT|INTERRES
   185   94   95 1    
   186   94  215 1    
   187   95   96 1    
   188   95   97 1    
   189   95  216 1    
   190   96  217 1    
   191   96  218 1    
   192   96  219 1    
   193   97   98 2    
   194   97   99 am   BACKBONE|DICT|INTERRES
   195   99  100 1    
   196   99  220 1    
   197  100  101 1    
   198  100  102 1    
   199  100  221 1    
   200  101  222 1    
   201  101  223 1    
   202  101  224 1    
   203  102  103 2    
   204  102  104 am   BACKBONE|DICT|INTERRES
   205  104  105 1    
   206  104  225 1    
   207  105  106 1    
   208  105  107 1    
   209  105  226 1    
   210  106  227 1    
   211  106  228 1    
   212  106  229 1    
   213  107  108 2    
   214  107  109 am   BACKBONE|DICT|INTERRES
   215  109  110 1    
   216  109  230 1    
   217  110  111 1    
   218  110  112 1    
   219  110  231 1    
   220  111  232 1    
   221  111  233 1    
   222  111  234 1    
   223  112  113 2    
   224  112  114 am   BACKBONE|DICT|INTERRES
   225  114  115 1    
   226  114  235 1    
   227  115  116 1    
   228  115  117 1    
   229  115  236 1    
   230  116  237 1    
   231  116  238 1    
   232  116  239 1    
   233  117  118 2    
   234  117  119 am   BACKBONE|DICT|INTERRES
   235  119  120 1    
   236  119  240 1    
   237  120  121 1    
   238  120  124 1    
   239  120  241 1    
   240  121  122 am   BACKBONE|DICT|INTERRES
   241  121  123 2    
   242  122  242 1    
   243  122  243 1    
   244  124  125 1    
   245  124  244 1    
   246  124  245 1    
   247  125  126 1    
   248  126  246 1    
   249  126  247 1    
@<TRIPOS>SUBSTRUCTURE
     1 UNK         1 GROUP             0       ****    0 ROOT    
