@<TRIPOS>MOLECULE
3R540
247   249    1
SMALL
USER_CHARGES


@<TRIPOS>ATOM
      1 CA         -0.2779   -8.7426  -46.5863 C.3       0 UNK        -0.1800 
      2 C           0.2140  -10.1605  -46.8419 C.2       0 UNK         0.5000 
      3 O          -0.1653  -11.0759  -46.1122 O.2       0 UNK        -0.5000 
      4 N           1.0437  -10.3382  -47.8793 N.am      1 UNK        -0.5000 
      5 CA          1.7014  -11.5924  -48.2704 C.3       1 UNK         0.1400 
      6 C6          0.6946  -12.7519  -48.5281 C.3       23 UNK        -0.0398 
      7 S7          1.2826  -13.9714  -49.7526 S.3       23 UNK        -0.2404 
      8 C8         -0.1597  -15.0738  -49.8157 C.3       23 UNK        -0.0205 
      9 C9          0.1892  -16.4124  -50.4449 C.ar      23 UNK        -0.0193 
     10 C10        -0.1090  -16.6714  -51.7843 C.ar      23 UNK        -0.1150 
     11 C11         0.1909  -17.9150  -52.3483 C.ar      23 UNK        -0.0193 
     12 C12         0.7684  -18.9111  -51.5548 C.ar      23 UNK        -0.1150 
     13 C13         1.0667  -18.6695  -50.2096 C.ar      23 UNK        -0.0193 
     14 C14         0.7972  -17.4048  -49.6736 C.ar      23 UNK        -0.1150 
     15 C15         1.6974  -19.7814  -49.3707 C.3       23 UNK        -0.0205 
     16 S16         1.3121  -19.7110  -47.5855 S.3       23 UNK        -0.2404 
     17 C17        -0.4918  -19.9888  -47.5605 C.3       23 UNK        -0.0398 
     18 CA         -0.8541  -21.3591  -46.9484 C.3       11 UNK         0.1400 
     19 N          -0.3585  -21.5022  -45.5714 N.am      11 UNK        -0.5000 
     20 C          -0.3570  -22.6348  -44.8534 C.2       10 UNK         0.5000 
     21 O          -0.8238  -23.6998  -45.2582 O.2       10 UNK        -0.5000 
     22 CA          0.2154  -22.5483  -43.4310 C.3       10 UNK         0.1400 
     23 CB          1.7351  -22.7694  -43.4496 C.3       10 UNK        -0.1800 
     24 N          -0.0730  -21.2607  -42.8038 N.am      10 UNK        -0.5000 
     25 C          -1.2656  -20.8758  -42.3327 C.2       9 UNK         0.5000 
     26 O          -2.2720  -21.5834  -42.3860 O.2       9 UNK        -0.5000 
     27 CA         -1.3382  -19.4590  -41.7167 C.3       9 UNK         0.1400 
     28 CB         -2.5313  -19.2821  -40.7557 C.3       9 UNK        -0.1800 
     29 N          -0.0861  -19.0352  -41.0746 N.am      9 UNK        -0.5000 
     30 C           0.5507  -19.6431  -40.0613 C.2       8 UNK         0.5000 
     31 O           0.1267  -20.6385  -39.4729 O.2       8 UNK        -0.5000 
     32 CA          1.9087  -19.0505  -39.6462 C.3       8 UNK         0.1400 
     33 CB          3.0444  -19.7311  -40.4235 C.3       8 UNK        -0.1800 
     34 N           1.9939  -17.6012  -39.8393 N.am      8 UNK        -0.5000 
     35 C           1.4280  -16.7077  -39.0167 C.2       7 UNK         0.5000 
     36 O           0.7159  -17.0157  -38.0600 O.2       7 UNK        -0.5000 
     37 CA          1.7111  -15.2256  -39.2960 C.3       7 UNK         0.1400 
     38 CB          3.1728  -14.8691  -38.9744 C.3       7 UNK        -0.1800 
     39 N           1.4181  -14.8807  -40.6870 N.am      7 UNK        -0.5000 
     40 C           0.5537  -13.9275  -41.0591 C.2       6 UNK         0.5000 
     41 O          -0.1095  -13.2573  -40.2660 O.2       6 UNK        -0.5000 
     42 CA          0.4030  -13.6467  -42.5651 C.3       6 UNK         0.1400 
     43 CB          1.3043  -12.4754  -42.9859 C.3       6 UNK        -0.1800 
     44 N           0.6739  -14.7925  -43.4329 N.am      6 UNK        -0.5000 
     45 C          -0.1235  -15.8629  -43.5475 C.2       5 UNK         0.5000 
     46 O          -1.0852  -16.0861  -42.8132 O.2       5 UNK        -0.5000 
     47 CA          0.1965  -16.8390  -44.6883 C.3       5 UNK         0.1400 
     48 CB         -0.2397  -16.2376  -46.0323 C.3       5 UNK        -0.1800 
     49 N           1.6243  -17.1408  -44.7304 N.am      5 UNK        -0.5000 
     50 C           2.1757  -18.2708  -44.2698 C.2       4 UNK         0.5000 
     51 O           1.5237  -19.2219  -43.8419 O.2       4 UNK        -0.5000 
     52 CA          3.7160  -18.3457  -44.2432 C.3       4 UNK         0.1400 
     53 CB          4.2463  -18.9634  -45.5444 C.3       4 UNK        -0.1800 
     54 N           4.3617  -17.0500  -44.0315 N.am      4 UNK        -0.5000 
     55 C           4.1592  -16.2398  -42.9827 C.2       3 UNK         0.5000 
     56 O           3.4520  -16.5316  -42.0177 O.2       3 UNK        -0.5000 
     57 CA          4.7939  -14.8377  -43.0562 C.3       3 UNK         0.1400 
     58 CB          6.1293  -14.8172  -42.2994 C.3       3 UNK        -0.1800 
     59 N           5.0025  -14.3393  -44.4227 N.am      3 UNK        -0.5000 
     60 C           4.0542  -14.1987  -45.3605 C.2       2 UNK         0.5000 
     61 O           2.8706  -14.5050  -45.1905 O.2       2 UNK        -0.5000 
     62 CA          4.5348  -13.7198  -46.7408 C.3       2 UNK         0.1400 
     63 CB          5.1317  -14.8990  -47.5259 C.3       2 UNK        -0.1800 
     64 N           3.4491  -13.1464  -47.5320 N.am      2 UNK        -0.5000 
     65 C           2.8530  -11.9711  -47.3037 C.2       1 UNK         0.5000 
     66 O           3.2164  -11.1910  -46.4184 O.2       1 UNK        -0.5000 
     67 C          -2.3663  -21.6381  -47.0892 C.2       11 UNK         0.5000 
     68 O          -2.8194  -21.9500  -48.1913 O.2       11 UNK        -0.5000 
     69 N          -3.1131  -21.5900  -45.9761 N.am      12 UNK        -0.5000 
     70 CA         -4.5107  -22.0164  -45.8956 C.3       12 UNK         0.1400 
     71 CB         -5.0735  -21.6568  -44.5135 C.3       12 UNK        -0.1800 
     72 C          -4.7047  -23.5187  -46.1891 C.2       12 UNK         0.5000 
     73 O          -5.7694  -23.9044  -46.6707 O.2       12 UNK        -0.5000 
     74 N          -3.6688  -24.3256  -45.9230 N.am      13 UNK        -0.5000 
     75 CA         -3.6035  -25.7417  -46.2667 C.3       13 UNK         0.1400 
     76 CB         -3.1134  -26.5391  -45.0472 C.3       13 UNK        -0.1800 
     77 C          -2.6723  -25.9529  -47.4703 C.2       13 UNK         0.5000 
     78 O          -3.0852  -26.5662  -48.4540 O.2       13 UNK        -0.5000 
     79 N          -1.4417  -25.4255  -47.3845 N.am      14 UNK        -0.5000 
     80 CA         -0.3516  -25.6667  -48.3356 C.3       14 UNK         0.1400 
     81 CB          0.9608  -25.1218  -47.7502 C.3       14 UNK        -0.1800 
     82 C          -0.5921  -25.1025  -49.7483 C.2       14 UNK         0.5000 
     83 O          -0.0800  -25.6692  -50.7142 O.2       14 UNK        -0.5000 
     84 N          -1.3737  -24.0211  -49.8469 N.am      15 UNK        -0.5000 
     85 CA         -1.8188  -23.4173  -51.1036 C.3       15 UNK         0.1400 
     86 CB         -1.1722  -22.0291  -51.2573 C.3       15 UNK        -0.1800 
     87 C          -3.3559  -23.3484  -51.1634 C.2       15 UNK         0.5000 
     88 O          -3.8939  -22.5958  -51.9735 O.2       15 UNK        -0.5000 
     89 N          -4.0409  -24.1092  -50.2929 N.am      16 UNK        -0.5000 
     90 CA         -5.4991  -24.2469  -50.1786 C.3       16 UNK         0.1400 
     91 CB         -6.0339  -25.0423  -51.3869 C.3       16 UNK        -0.1800 
     92 C          -6.2691  -22.9201  -49.9694 C.2       16 UNK         0.5000 
     93 O          -7.4576  -22.8578  -50.2866 O.2       16 UNK        -0.5000 
     94 N          -5.5825  -21.8876  -49.4523 N.am      17 UNK        -0.5000 
     95 CA         -6.0374  -20.4964  -49.3337 C.3       17 UNK         0.1400 
     96 CB         -7.2594  -20.3773  -48.3947 C.3       17 UNK        -0.1800 
     97 C          -6.2697  -19.8188  -50.7053 C.2       17 UNK         0.5000 
     98 O          -7.1404  -18.9537  -50.8192 O.2       17 UNK        -0.5000 
     99 N          -5.4736  -20.2153  -51.7105 N.am      18 UNK        -0.5000 
    100 CA        -5.5292  -19.8109  -53.1182 C.3       18 UNK         0.1400 
    101 CB        -5.3342  -18.2862  -53.2774 C.3       18 UNK        -0.1800 
    102 C         -6.7855  -20.3515  -53.8357 C.2       18 UNK         0.5000 
    103 O         -7.4253  -21.2847  -53.3458 O.2       18 UNK        -0.5000 
    104 N         -7.0777  -19.8042  -55.0247 N.am      19 UNK        -0.5000 
    105 CA        -8.1446  -20.1573  -55.9748 C.3       19 UNK         0.1400 
    106 CB        -9.5448  -20.0257  -55.3453 C.3       19 UNK        -0.1800 
    107 C         -7.9459  -21.5321  -56.6436 C.2       19 UNK         0.5000 
    108 O         -7.9537  -21.6175  -57.8719 O.2       19 UNK        -0.5000 
    109 N         -7.7250  -22.5720  -55.8315 N.am      20 UNK        -0.5000 
    110 CA        -7.3046  -23.9093  -56.2577 C.3       20 UNK         0.1400 
    111 CB        -7.7225  -24.9222  -55.1809 C.3       20 UNK        -0.1800 
    112 C         -5.7860  -23.9894  -56.5287 C.2       20 UNK         0.5000 
    113 O         -5.3198  -24.9775  -57.0970 O.2       20 UNK        -0.5000 
    114 N         -5.0490  -22.9489  -56.1279 N.am      21 UNK        -0.5000 
    115 CA        -3.6312  -22.7242  -56.3757 C.3       21 UNK         0.1400 
    116 CB        -2.7981  -23.3356  -55.2348 C.3       21 UNK        -0.1800 
    117 C         -3.4088  -21.2070  -56.5090 C.2       21 UNK         0.5000 
    118 O         -4.3756  -20.4402  -56.4652 O.2       21 UNK        -0.5000 
    119 N         -2.1428  -20.8038  -56.6700 N.am      22 UNK        -0.5000 
    120 CA        -1.6890  -19.4117  -56.8660 C.3       22 UNK         0.1400 
    121 C         -1.9720  -18.8354  -58.2886 C.2       22 UNK         0.5000 
    122 N         -2.3664  -19.6407  -59.2676 N.am      22 UNK        -0.7600 
    123 O         -1.8003  -17.6422  -58.5241 O.2       22 UNK        -0.5000 
    124 C124       -2.1335  -18.4270  -55.7435 C.3       23 UNK        -0.0398 
    125 S125       -1.7113  -18.9737  -54.0524 S.3       23 UNK        -0.2404 
    126 C126       -0.0963  -18.1700  -53.8187 C.3       23 UNK        -0.0205 
    127 H127        0.1247   -8.0355  -47.3119 H         1 UNK         0.0600 
    128 H128        0.0227   -8.4161  -45.5907 H         1 UNK         0.0600 
    129 H129       -1.3658   -8.7067  -46.6440 H         1 UNK         0.0600 
    130 H130        1.3250   -9.5291  -48.4151 H         1 UNK         0.3000 
    131 H131        2.1843  -11.3557  -49.2198 H         1 UNK         0.0600 
    132 H132        0.4395  -13.2619  -47.5974 H         1 UNK         0.0800 
    133 H133       -0.2426  -12.3473  -48.9133 H         1 UNK         0.0800 
    134 H134       -0.9623  -14.5859  -50.3710 H         1 UNK         0.0800 
    135 H135       -0.5420  -15.2403  -48.8079 H         1 UNK         0.0800 
    136 H136       -0.5698  -15.9034  -52.3896 H         1 UNK         0.1150 
    137 H137        0.9889  -19.8756  -51.9903 H         1 UNK         0.1150 
    138 H138        1.0564  -17.1853  -48.6497 H         1 UNK         0.1150 
    139 H139        1.3917  -20.7580  -49.7481 H         1 UNK         0.0800 
    140 H140        2.7799  -19.7281  -49.4912 H         1 UNK         0.0800 
    141 H141       -0.8814  -19.9019  -48.5762 H         1 UNK         0.0800 
    142 H142       -0.9565  -19.1850  -46.9886 H         1 UNK         0.0800 
    143 H143       -0.3549  -22.1220  -47.5471 H         1 UNK         0.0600 
    144 H144        0.0739  -20.6831  -45.1642 H         1 UNK         0.3000 
    145 H145       -0.2429  -23.3390  -42.8334 H         1 UNK         0.0600 
    146 H146        2.1463  -22.7582  -42.4400 H         1 UNK         0.0600 
    147 H147        1.9839  -23.7347  -43.8925 H         1 UNK         0.0600 
    148 H148        2.2481  -21.9997  -44.0280 H         1 UNK         0.0600 
    149 H149        0.6720  -20.5699  -42.8305 H         1 UNK         0.3000 
    150 H150       -1.4942  -18.7815  -42.5560 H         1 UNK         0.0600 
    151 H151       -3.4773  -19.4603  -41.2683 H         1 UNK         0.0600 
    152 H152       -2.5664  -18.2682  -40.3569 H         1 UNK         0.0600 
    153 H153       -2.4801  -19.9731  -39.9140 H         1 UNK         0.0600 
    154 H154        0.3617  -18.2285  -41.4843 H         1 UNK         0.3000 
    155 H155        2.0544  -19.2662  -38.5854 H         1 UNK         0.0600 
    156 H156        2.9287  -19.5935  -41.4967 H         1 UNK         0.0600 
    157 H157        3.0588  -20.8049  -40.2327 H         1 UNK         0.0600 
    158 H158        4.0179  -19.3343  -40.1350 H         1 UNK         0.0600 
    159 H159        2.5795  -17.2714  -40.6037 H         1 UNK         0.3000 
    160 H160        1.0788  -14.6526  -38.6146 H         1 UNK         0.0600 
    161 H161        3.8759  -15.4061  -39.6111 H         1 UNK         0.0600 
    162 H162        3.4150  -15.1142  -37.9396 H         1 UNK         0.0600 
    163 H163        3.3532  -13.8022  -39.1063 H         1 UNK         0.0600 
    164 H164        1.9194  -15.4024  -41.3968 H         1 UNK         0.3000 
    165 H165       -0.6328  -13.3451  -42.7350 H         1 UNK         0.0600 
    166 H166        1.1794  -12.2398  -44.0429 H         1 UNK         0.0600 
    167 H167        1.0628  -11.5739  -42.4217 H         1 UNK         0.0600 
    168 H168        2.3580  -12.6935  -42.8185 H         1 UNK         0.0600 
    169 H169        1.4450  -14.6826  -44.0880 H         1 UNK         0.3000 
    170 H170       -0.3856  -17.7483  -44.5266 H         1 UNK         0.0600 
    171 H171       -1.2784  -15.9064  -45.9989 H         1 UNK         0.0600 
    172 H172        0.3728  -15.3797  -46.3117 H         1 UNK         0.0600 
    173 H173       -0.1654  -16.9754  -46.8268 H         1 UNK         0.0600 
    174 H174        2.2327  -16.3865  -45.0294 H         1 UNK         0.3000 
    175 H175        4.0058  -18.9968  -43.4180 H         1 UNK         0.0600 
    176 H176        4.0023  -18.3477  -46.4113 H         1 UNK         0.0600 
    177 H177        5.3289  -19.0866  -45.5123 H         1 UNK         0.0600 
    178 H178        3.8136  -19.9510  -45.7107 H         1 UNK         0.0600 
    179 H179        4.9588  -16.7194  -44.7742 H         1 UNK         0.3000 
    180 H180        4.1121  -14.1514  -42.5532 H         1 UNK         0.0600 
    181 H181        6.8703  -15.4628  -42.7724 H         1 UNK         0.0600 
    182 H182        6.0020  -15.1611  -41.2718 H         1 UNK         0.0600 
    183 H183        6.5414  -13.8090  -42.2529 H         1 UNK         0.0600 
    184 H184        5.9512  -14.0829  -44.6561 H         1 UNK         0.3000 
    185 H185        5.3039  -12.9574  -46.6006 H         1 UNK         0.0600 
    186 H186        5.9782  -15.3391  -46.9974 H         1 UNK         0.0600 
    187 H187        4.3967  -15.6898  -47.6853 H         1 UNK         0.0600 
    188 H188        5.4944  -14.5787  -48.5028 H         1 UNK         0.0600 
    189 H189        3.0723  -13.7333  -48.2645 H         1 UNK         0.3000 
    190 H190       -2.6652  -21.3488  -45.1037 H         1 UNK         0.3000 
    191 H191       -5.0659  -21.4560  -46.6464 H         1 UNK         0.0600 
    192 H192       -4.9701  -20.5914  -44.3074 H         1 UNK         0.0600 
    193 H193       -6.1354  -21.8985  -44.4512 H         1 UNK         0.0600 
    194 H194       -4.5663  -22.2044  -43.7184 H         1 UNK         0.0600 
    195 H195       -2.8205  -23.9201  -45.5440 H         1 UNK         0.3000 
    196 H196       -4.5916  -26.1194  -46.5380 H         1 UNK         0.0600 
    197 H197       -3.0332  -27.6014  -45.2815 H         1 UNK         0.0600 
    198 H198       -3.8080  -26.4420  -44.2127 H         1 UNK         0.0600 
    199 H199       -2.1341  -26.2022  -44.7048 H         1 UNK         0.0600 
    200 H200       -1.1913  -24.9016  -46.5483 H         1 UNK         0.3000 
    201 H201       -0.2464  -26.7488  -48.4382 H         1 UNK         0.0600 
    202 H202        1.1783  -25.5732  -46.7820 H         1 UNK         0.0600 
    203 H203        0.9281  -24.0415  -47.6142 H         1 UNK         0.0600 
    204 H204        1.8029  -25.3428  -48.4074 H         1 UNK         0.0600 
    205 H205       -1.7623  -23.6089  -49.0077 H         1 UNK         0.3000 
    206 H206       -1.5122  -24.0284  -51.9546 H         1 UNK         0.0600 
    207 H207       -0.0856  -22.0978  -51.2170 H         1 UNK         0.0600 
    208 H208       -1.4303  -21.5781  -52.2163 H         1 UNK         0.0600 
    209 H209       -1.4962  -21.3419  -50.4763 H         1 UNK         0.0600 
    210 H210       -3.5069  -24.7186  -49.6872 H         1 UNK         0.3000 
    211 H211       -5.6786  -24.8438  -49.2836 H         1 UNK         0.0600 
    212 H212       -5.9124  -24.4816  -52.3138 H         1 UNK         0.0600 
    213 H213       -7.0944  -25.2710  -51.2762 H         1 UNK         0.0600 
    214 H214       -5.5098  -25.9915  -51.4979 H         1 UNK         0.0600 
    215 H215       -4.6101  -22.0464  -49.2083 H         1 UNK         0.3000 
    216 H216       -5.2125  -19.9567  -48.8665 H         1 UNK         0.0600 
    217 H217       -7.4406  -19.3361  -48.1261 H         1 UNK         0.0600 
    218 H218       -7.1181  -20.9313  -47.4681 H         1 UNK         0.0600 
    219 H219       -8.1690  -20.7510  -48.8655 H         1 UNK         0.0600 
    220 H220       -4.8552  -21.0038  -51.5394 H         1 UNK         0.3000 
    221 H221       -4.6774  -20.3010  -53.5920 H         1 UNK         0.0600 
    222 H222       -6.2136  -17.7256  -52.9597 H         1 UNK         0.0600 
    223 H223       -4.4840  -17.9365  -52.6915 H         1 UNK         0.0600 
    224 H224       -5.1339  -18.0185  -54.3145 H         1 UNK         0.0600 
    225 H225       -6.4377  -19.1014  -55.3687 H         1 UNK         0.3000 
    226 H226       -8.0799  -19.4135  -56.7705 H         1 UNK         0.0600 
    227 H227       -9.6938  -19.0325  -54.9218 H         1 UNK         0.0600 
    228 H228      -10.3215  -20.1794  -56.0954 H         1 UNK         0.0600 
    229 H229       -9.7120  -20.7559  -54.5534 H         1 UNK         0.0600 
    230 H230       -7.7214  -22.3843  -54.8310 H         1 UNK         0.3000 
    231 H231       -7.8178  -24.1667  -57.1864 H         1 UNK         0.0600 
    232 H232       -7.2592  -24.6987  -54.2204 H         1 UNK         0.0600 
    233 H233       -7.4323  -25.9360  -55.4597 H         1 UNK         0.0600 
    234 H234       -8.8033  -24.9214  -55.0387 H         1 UNK         0.0600 
    235 H235       -5.5291  -22.1416  -55.7535 H         1 UNK         0.3000 
    236 H236       -3.3520  -23.1892  -57.3232 H         1 UNK         0.0600 
    237 H237       -3.0911  -24.3656  -55.0310 H         1 UNK         0.0600 
    238 H238       -1.7365  -23.3458  -55.4823 H         1 UNK         0.0600 
    239 H239       -2.9112  -22.7654  -54.3143 H         1 UNK         0.0600 
    240 H240       -1.4117  -21.4998  -56.6922 H         1 UNK         0.3000 
    241 H241       -0.6011  -19.4659  -56.8152 H         1 UNK         0.0600 
    242 H242       -2.4993  -20.6251  -59.1027 H         1 UNK         0.3800 
    243 H243       -2.5349  -19.2591  -60.1854 H         1 UNK         0.3800 
    244 H244       -3.2105  -18.2675  -55.7845 H         1 UNK         0.0800 
    245 H245       -1.6986  -17.4405  -55.9086 H         1 UNK         0.0800 
    246 H246       -0.0598  -17.2239  -54.3602 H         1 UNK         0.0800 
    247 H247        0.6830  -18.7989  -54.2515 H         1 UNK         0.0800 
@<TRIPOS>BOND
     1    1    2 1    
     2    1  127 1    
     3    1  128 1    
     4    1  129 1    
     5    2    3 2    
     6    2    4 am   BACKBONE|DICT|INTERRES
     7    4    5 1    
     8    4  130 1    
     9    5    6 1    
    10    5   65 1    
    11    5  131 1    
    12    6    7 1    
    13    6  132 1    
    14    6  133 1    
    15    7    8 1    
    16    8    9 1    
    17    8  134 1    
    18    8  135 1    
    19    9   10 ar   
    20    9   14 ar   
    21   10   11 ar   
    22   10  136 1    
    23   11   12 ar   
    24   11  126 1    
    25   12   13 ar   
    26   12  137 1    
    27   13   14 ar   
    28   13   15 1    
    29   14  138 1    
    30   15   16 1    
    31   15  139 1    
    32   15  140 1    
    33   16   17 1    
    34   17   18 1    
    35   17  141 1    
    36   17  142 1    
    37   18   19 1    
    38   18   67 1    
    39   18  143 1    
    40   19   20 am   BACKBONE|DICT|INTERRES
    41   19  144 1    
    42   20   21 2    
    43   20   22 1    
    44   22   23 1    
    45   22   24 1    
    46   22  145 1    
    47   23  146 1    
    48   23  147 1    
    49   23  148 1    
    50   24   25 am   BACKBONE|DICT|INTERRES
    51   24  149 1    
    52   25   26 2    
    53   25   27 1    
    54   27   28 1    
    55   27   29 1    
    56   27  150 1    
    57   28  151 1    
    58   28  152 1    
    59   28  153 1    
    60   29   30 am   BACKBONE|DICT|INTERRES
    61   29  154 1    
    62   30   31 2    
    63   30   32 1    
    64   32   33 1    
    65   32   34 1    
    66   32  155 1    
    67   33  156 1    
    68   33  157 1    
    69   33  158 1    
    70   34   35 am   BACKBONE|DICT|INTERRES
    71   34  159 1    
    72   35   36 2    
    73   35   37 1    
    74   37   38 1    
    75   37   39 1    
    76   37  160 1    
    77   38  161 1    
    78   38  162 1    
    79   38  163 1    
    80   39   40 am   BACKBONE|DICT|INTERRES
    81   39  164 1    
    82   40   41 2    
    83   40   42 1    
    84   42   43 1    
    85   42   44 1    
    86   42  165 1    
    87   43  166 1    
    88   43  167 1    
    89   43  168 1    
    90   44   45 am   BACKBONE|DICT|INTERRES
    91   44  169 1    
    92   45   46 2    
    93   45   47 1    
    94   47   48 1    
    95   47   49 1    
    96   47  170 1    
    97   48  171 1    
    98   48  172 1    
    99   48  173 1    
   100   49   50 am   BACKBONE|DICT|INTERRES
   101   49  174 1    
   102   50   51 2    
   103   50   52 1    
   104   52   53 1    
   105   52   54 1    
   106   52  175 1    
   107   53  176 1    
   108   53  177 1    
   109   53  178 1    
   110   54   55 am   BACKBONE|DICT|INTERRES
   111   54  179 1    
   112   55   56 2    
   113   55   57 1    
   114   57   58 1    
   115   57   59 1    
   116   57  180 1    
   117   58  181 1    
   118   58  182 1    
   119   58  183 1    
   120   59   60 am   BACKBONE|DICT|INTERRES
   121   59  184 1    
   122   60   61 2    
   123   60   62 1    
   124   62   63 1    
   125   62   64 1    
   126   62  185 1    
   127   63  186 1    
   128   63  187 1    
   129   63  188 1    
   130   64   65 am   BACKBONE|DICT|INTERRES
   131   64  189 1    
   132   65   66 2    
   133   67   68 2    
   134   67   69 am   BACKBONE|DICT|INTERRES
   135   69   70 1    
   136   69  190 1    
   137   70   71 1    
   138   70   72 1    
   139   70  191 1    
   140   71  192 1    
   141   71  193 1    
   142   71  194 1    
   143   72   73 2    
   144   72   74 am   BACKBONE|DICT|INTERRES
   145   74   75 1    
   146   74  195 1    
   147   75   76 1    
   148   75   77 1    
   149   75  196 1    
   150   76  197 1    
   151   76  198 1    
   152   76  199 1    
   153   77   78 2    
   154   77   79 am   BACKBONE|DICT|INTERRES
   155   79   80 1    
   156   79  200 1    
   157   80   81 1    
   158   80   82 1    
   159   80  201 1    
   160   81  202 1    
   161   81  203 1    
   162   81  204 1    
   163   82   83 2    
   164   82   84 am   BACKBONE|DICT|INTERRES
   165   84   85 1    
   166   84  205 1    
   167   85   86 1    
   168   85   87 1    
   169   85  206 1    
   170   86  207 1    
   171   86  208 1    
   172   86  209 1    
   173   87   88 2    
   174   87   89 am   BACKBONE|DICT|INTERRES
   175   89   90 1    
   176   89  210 1    
   177   90   91 1    
   178   90   92 1    
   179   90  211 1    
   180   91  212 1    
   181   91  213 1    
   182   91  214 1    
   183   92   93 2    
   184   92   94 am   BACKBONE|DICT|INTERRES
   185   94   95 1    
   186   94  215 1    
   187   95   96 1    
   188   95   97 1    
   189   95  216 1    
   190   96  217 1    
   191   96  218 1    
   192   96  219 1    
   193   97   98 2    
   194   97   99 am   BACKBONE|DICT|INTERRES
   195   99  100 1    
   196   99  220 1    
   197  100  101 1    
   198  100  102 1    
   199  100  221 1    
   200  101  222 1    
   201  101  223 1    
   202  101  224 1    
   203  102  103 2    
   204  102  104 am   BACKBONE|DICT|INTERRES
   205  104  105 1    
   206  104  225 1    
   207  105  106 1    
   208  105  107 1    
   209  105  226 1    
   210  106  227 1    
   211  106  228 1    
   212  106  229 1    
   213  107  108 2    
   214  107  109 am   BACKBONE|DICT|INTERRES
   215  109  110 1    
   216  109  230 1    
   217  110  111 1    
   218  110  112 1    
   219  110  231 1    
   220  111  232 1    
   221  111  233 1    
   222  111  234 1    
   223  112  113 2    
   224  112  114 am   BACKBONE|DICT|INTERRES
   225  114  115 1    
   226  114  235 1    
   227  115  116 1    
   228  115  117 1    
   229  115  236 1    
   230  116  237 1    
   231  116  238 1    
   232  116  239 1    
   233  117  118 2    
   234  117  119 am   BACKBONE|DICT|INTERRES
   235  119  120 1    
   236  119  240 1    
   237  120  121 1    
   238  120  124 1    
   239  120  241 1    
   240  121  122 am   BACKBONE|DICT|INTERRES
   241  121  123 2    
   242  122  242 1    
   243  122  243 1    
   244  124  125 1    
   245  124  244 1    
   246  124  245 1    
   247  125  126 1    
   248  126  246 1    
   249  126  247 1    
@<TRIPOS>SUBSTRUCTURE
     1 UNK         1 GROUP             0       ****    0 ROOT    
