@<TRIPOS>MOLECULE
3R540
247   249    1
SMALL
USER_CHARGES


@<TRIPOS>ATOM
      1 CA          1.8968   -8.3517  -45.0597 C.3       0 UNK        -0.1800 
      2 C           2.4815   -9.5748  -45.7507 C.2       0 UNK         0.5000 
      3 O           3.5793   -9.5034  -46.3043 O.2       0 UNK        -0.5000 
      4 N           1.7666  -10.7049  -45.7055 N.am      1 UNK        -0.5000 
      5 CA          2.1866  -12.0039  -46.2396 C.3       1 UNK         0.1400 
      6 C6          0.9551  -12.8545  -46.6367 C.3       23 UNK        -0.0398 
      7 S7          1.3670  -14.2492  -47.7409 S.3       23 UNK        -0.2404 
      8 C8         -0.1344  -14.3225  -48.7816 C.3       23 UNK        -0.0205 
      9 C9         -0.2283  -15.5011  -49.7551 C.ar      23 UNK        -0.0193 
     10 C10        -1.3086  -15.5263  -50.6449 C.ar      23 UNK        -0.1150 
     11 C11        -1.4460  -16.5545  -51.5814 C.ar      23 UNK        -0.0193 
     12 C12        -0.4869  -17.5672  -51.6303 C.ar      23 UNK        -0.1150 
     13 C13         0.5841  -17.5769  -50.7351 C.ar      23 UNK        -0.0193 
     14 C14         0.7081  -16.5456  -49.7981 C.ar      23 UNK        -0.1150 
     15 C15         1.6102  -18.6988  -50.7991 C.3       23 UNK        -0.0205 
     16 S16         0.8855  -20.3121  -50.3649 S.3       23 UNK        -0.2404 
     17 C17         0.5241  -20.0631  -48.5978 C.3       23 UNK        -0.0398 
     18 CA          0.2759  -21.3969  -47.8500 C.3       11 UNK         0.1400 
     19 N           0.7185  -21.3181  -46.4537 N.am      11 UNK        -0.5000 
     20 C           0.8351  -22.3580  -45.6165 C.2       10 UNK         0.5000 
     21 O           0.5280  -23.5115  -45.9149 O.2       10 UNK        -0.5000 
     22 CA          1.3695  -22.0529  -44.2064 C.3       10 UNK         0.1400 
     23 CB          2.8933  -21.8552  -44.2250 C.3       10 UNK        -0.1800 
     24 N           0.7313  -20.8682  -43.6368 N.am      10 UNK        -0.5000 
     25 C          -0.4847  -20.8657  -43.0739 C.2       9 UNK         0.5000 
     26 O          -1.1630  -21.8794  -42.9046 O.2       9 UNK        -0.5000 
     27 CA         -1.0520  -19.4969  -42.6480 C.3       9 UNK         0.1400 
     28 CB         -0.6179  -19.1558  -41.2146 C.3       9 UNK        -0.1800 
     29 N          -0.6674  -18.3990  -43.5365 N.am      9 UNK        -0.5000 
     30 C          -0.9559  -18.3321  -44.8439 C.2       8 UNK         0.5000 
     31 O          -1.5931  -19.1886  -45.4520 O.2       8 UNK        -0.5000 
     32 CA         -0.3856  -17.1324  -45.6155 C.3       8 UNK         0.1400 
     33 CB         -1.2801  -15.9042  -45.4013 C.3       8 UNK        -0.1800 
     34 N           0.9990  -16.8278  -45.2434 N.am      8 UNK        -0.5000 
     35 C           2.0269  -17.6814  -45.3713 C.2       7 UNK         0.5000 
     36 O           1.9156  -18.8233  -45.8138 O.2       7 UNK        -0.5000 
     37 CA          3.3988  -17.2066  -44.8756 C.3       7 UNK         0.1400 
     38 CB          4.1418  -16.4319  -45.9730 C.3       7 UNK        -0.1800 
     39 N           3.2670  -16.3907  -43.6700 N.am      7 UNK        -0.5000 
     40 C           3.1186  -16.9065  -42.4414 C.2       6 UNK         0.5000 
     41 O           3.1560  -18.1135  -42.1989 O.2       6 UNK        -0.5000 
     42 CA          2.8454  -15.9175  -41.2931 C.3       6 UNK         0.1400 
     43 CB          4.1594  -15.4395  -40.6568 C.3       6 UNK        -0.1800 
     44 N           2.0369  -14.7665  -41.7067 N.am      6 UNK        -0.5000 
     45 C           0.7457  -14.8649  -42.0592 C.2       5 UNK         0.5000 
     46 O           0.1478  -15.9418  -42.0992 O.2       5 UNK        -0.5000 
     47 CA         -0.0104  -13.5755  -42.4310 C.3       5 UNK         0.1400 
     48 CB         -1.4963  -13.6297  -42.0162 C.3       5 UNK        -0.1800 
     49 N           0.6070  -12.3768  -41.8643 N.am      5 UNK        -0.5000 
     50 C           0.4759  -11.1479  -42.3811 C.2       4 UNK         0.5000 
     51 O          -0.0772  -10.9068  -43.4554 O.2       4 UNK        -0.5000 
     52 CA          1.0921   -9.9997  -41.5745 C.3       4 UNK         0.1400 
     53 CB          0.3451   -9.7732  -40.2468 C.3       4 UNK        -0.1800 
     54 N           2.4984  -10.2938  -41.3443 N.am      4 UNK        -0.5000 
     55 C           3.4541   -9.4252  -41.0104 C.2       3 UNK         0.5000 
     56 O           3.2491   -8.2344  -40.7734 O.2       3 UNK        -0.5000 
     57 CA          4.8943   -9.9753  -40.9742 C.3       3 UNK         0.1400 
     58 CB          5.1482  -10.8033  -39.6990 C.3       3 UNK        -0.1800 
     59 N           5.2749  -10.7148  -42.1886 N.am      3 UNK        -0.5000 
     60 C           4.7997  -11.8822  -42.6454 C.2       2 UNK         0.5000 
     61 O           3.9450  -12.5528  -42.0609 O.2       2 UNK        -0.5000 
     62 CA          5.3255  -12.3268  -44.0210 C.3       2 UNK         0.1400 
     63 CB          5.8455  -13.7738  -44.0132 C.3       2 UNK        -0.1800 
     64 N           4.3132  -12.1030  -45.0562 N.am      2 UNK        -0.5000 
     65 C           3.1146  -12.6869  -45.2096 C.2       1 UNK         0.5000 
     66 O           2.7169  -13.6565  -44.5590 O.2       1 UNK        -0.5000 
     67 C          -1.1877  -21.8710  -47.9993 C.2       11 UNK         0.5000 
     68 O          -1.5111  -22.5404  -48.9792 O.2       11 UNK        -0.5000 
     69 N          -2.0349  -21.5488  -47.0112 N.am      12 UNK        -0.5000 
     70 CA         -3.4464  -21.9292  -46.9277 C.3       12 UNK         0.1400 
     71 CB         -4.1198  -21.1048  -45.8191 C.3       12 UNK        -0.1800 
     72 C          -3.7080  -23.4341  -46.7067 C.2       12 UNK         0.5000 
     73 O          -4.8673  -23.8456  -46.7921 O.2       12 UNK        -0.5000 
     74 N          -2.6644  -24.2314  -46.4323 N.am      13 UNK        -0.5000 
     75 CA         -2.7359  -25.6828  -46.2429 C.3       13 UNK         0.1400 
     76 CB         -1.3249  -26.2294  -45.9846 C.3       13 UNK        -0.1800 
     77 C          -3.3865  -26.4193  -47.4315 C.2       13 UNK         0.5000 
     78 O          -3.1648  -26.0449  -48.5863 O.2       13 UNK        -0.5000 
     79 N          -4.1913  -27.4438  -47.1138 N.am      14 UNK        -0.5000 
     80 CA         -4.9856  -28.2569  -48.0439 C.3       14 UNK         0.1400 
     81 CB         -4.0664  -29.1442  -48.9100 C.3       14 UNK        -0.1800 
     82 C          -5.9728  -27.4133  -48.8804 C.2       14 UNK         0.5000 
     83 O          -6.1173  -27.6456  -50.0810 O.2       14 UNK        -0.5000 
     84 N          -6.6062  -26.4243  -48.2292 N.am      15 UNK        -0.5000 
     85 CA         -7.5135  -25.4258  -48.8088 C.3       15 UNK         0.1400 
     86 CB         -8.8241  -26.0867  -49.2861 C.3       15 UNK        -0.1800 
     87 C          -6.8205  -24.5958  -49.9082 C.2       15 UNK         0.5000 
     88 O          -7.3144  -24.5142  -51.0334 O.2       15 UNK        -0.5000 
     89 N          -5.6521  -24.0397  -49.5603 N.am      16 UNK        -0.5000 
     90 CA         -4.7268  -23.3037  -50.4281 C.3       16 UNK         0.1400 
     91 CB         -5.3280  -21.9399  -50.8287 C.3       16 UNK        -0.1800 
     92 C          -4.2573  -24.1477  -51.6300 C.2       16 UNK         0.5000 
     93 O          -4.2973  -23.6785  -52.7687 O.2       16 UNK        -0.5000 
     94 N          -3.8613  -25.3977  -51.3439 N.am      17 UNK        -0.5000 
     95 CA         -3.4856  -26.4482  -52.2958 C.3       17 UNK         0.1400 
     96 CB         -2.1412  -26.1025  -52.9703 C.3       17 UNK        -0.1800 
     97 C          -4.6096  -26.7448  -53.3120 C.2       17 UNK         0.5000 
     98 O          -4.3689  -26.7385  -54.5188 O.2       17 UNK        -0.5000 
     99 N          -5.8341  -26.9480  -52.8036 N.am      18 UNK        -0.5000 
    100 CA        -7.0904  -27.0764  -53.5536 C.3       18 UNK         0.1400 
    101 CB        -7.1345  -28.4158  -54.3172 C.3       18 UNK        -0.1800 
    102 C         -7.3519  -25.8496  -54.4561 C.2       18 UNK         0.5000 
    103 O         -7.6649  -25.9935  -55.6390 O.2       18 UNK        -0.5000 
    104 N         -7.1587  -24.6622  -53.8671 N.am      19 UNK        -0.5000 
    105 CA        -7.2051  -23.3158  -54.4436 C.3       19 UNK         0.1400 
    106 CB        -8.5980  -23.0102  -55.0291 C.3       19 UNK        -0.1800 
    107 C         -6.0804  -22.9809  -55.4474 C.2       19 UNK         0.5000 
    108 O         -6.0130  -21.8336  -55.8914 O.2       19 UNK        -0.5000 
    109 N         -5.1974  -23.9329  -55.7827 N.am      20 UNK        -0.5000 
    110 CA        -4.1403  -23.7601  -56.7828 C.3       20 UNK         0.1400 
    111 CB        -3.5299  -25.1245  -57.1344 C.3       20 UNK        -0.1800 
    112 C         -3.0340  -22.7694  -56.3733 C.2       20 UNK         0.5000 
    113 O         -2.3487  -22.2500  -57.2556 O.2       20 UNK        -0.5000 
    114 N         -2.8704  -22.5149  -55.0665 N.am      21 UNK        -0.5000 
    115 CA        -1.8848  -21.5660  -54.5466 C.3       21 UNK         0.1400 
    116 CB        -1.6619  -21.8157  -53.0478 C.3       21 UNK        -0.1800 
    117 C         -2.2649  -20.0933  -54.7931 C.2       21 UNK         0.5000 
    118 O         -1.3620  -19.2584  -54.8688 O.2       21 UNK        -0.5000 
    119 N         -3.5688  -19.7966  -54.9049 N.am      22 UNK        -0.5000 
    120 CA        -4.0967  -18.4275  -55.0554 C.3       22 UNK         0.1400 
    121 C         -5.0294  -18.2290  -56.2824 C.2       22 UNK         0.5000 
    122 N         -5.5712  -19.2661  -56.9067 N.am      22 UNK        -0.7600 
    123 O         -5.2535  -17.0949  -56.6969 O.2       22 UNK        -0.5000 
    124 C124       -4.7756  -17.9012  -53.7599 C.3       23 UNK        -0.0398 
    125 S125       -3.7188  -17.9812  -52.2720 S.3       23 UNK        -0.2404 
    126 C126       -2.6083  -16.5666  -52.5624 C.3       23 UNK        -0.0205 
    127 H127        1.8982   -7.4992  -45.7389 H         1 UNK         0.0600 
    128 H128        2.4942   -8.0946  -44.1849 H         1 UNK         0.0600 
    129 H129        0.8703   -8.5235  -44.7350 H         1 UNK         0.0600 
    130 H130        0.9157  -10.7204  -45.1499 H         1 UNK         0.3000 
    131 H131        2.7704  -11.8315  -47.1466 H         1 UNK         0.0600 
    132 H132        0.4299  -13.2226  -45.7571 H         1 UNK         0.0800 
    133 H133        0.2394  -12.2190  -47.1602 H         1 UNK         0.0800 
    134 H134       -1.0143  -14.3406  -48.1385 H         1 UNK         0.0800 
    135 H135       -0.1916  -13.3958  -49.3546 H         1 UNK         0.0800 
    136 H136       -2.0424  -14.7328  -50.6143 H         1 UNK         0.1150 
    137 H137       -0.5844  -18.3609  -52.3584 H         1 UNK         0.1150 
    138 H138        1.5437  -16.5633  -49.1143 H         1 UNK         0.1150 
    139 H139        2.0096  -18.7548  -51.8126 H         1 UNK         0.0800 
    140 H140        2.4600  -18.4928  -50.1464 H         1 UNK         0.0800 
    141 H141       -0.3093  -19.3675  -48.4802 H         1 UNK         0.0800 
    142 H142        1.3951  -19.5585  -48.1812 H         1 UNK         0.0800 
    143 H143        0.9008  -22.1659  -48.3096 H         1 UNK         0.0600 
    144 H144        1.0273  -20.4026  -46.1345 H         1 UNK         0.3000 
    145 H145        1.1523  -22.9142  -43.5708 H         1 UNK         0.0600 
    146 H146        3.3951  -22.7379  -44.6235 H         1 UNK         0.0600 
    147 H147        3.1873  -21.0051  -44.8412 H         1 UNK         0.0600 
    148 H148        3.2800  -21.6872  -43.2197 H         1 UNK         0.0600 
    149 H149        1.2080  -19.9863  -43.7642 H         1 UNK         0.3000 
    150 H150       -2.1411  -19.5718  -42.6688 H         1 UNK         0.0600 
    151 H151       -0.8954  -19.9501  -40.5204 H         1 UNK         0.0600 
    152 H152       -1.0941  -18.2388  -40.8668 H         1 UNK         0.0600 
    153 H153        0.4621  -19.0178  -41.1450 H         1 UNK         0.0600 
    154 H154       -0.1788  -17.6189  -43.1064 H         1 UNK         0.3000 
    155 H155       -0.3930  -17.3798  -46.6792 H         1 UNK         0.0600 
    156 H156       -0.9207  -15.0444  -45.9578 H         1 UNK         0.0600 
    157 H157       -1.3345  -15.6240  -44.3513 H         1 UNK         0.0600 
    158 H158       -2.2982  -16.1028  -45.7384 H         1 UNK         0.0600 
    159 H159        1.1842  -15.9107  -44.8655 H         1 UNK         0.3000 
    160 H160        3.9915  -18.0944  -44.6441 H         1 UNK         0.0600 
    161 H161        3.6326  -15.5063  -46.2358 H         1 UNK         0.0600 
    162 H162        4.2230  -17.0280  -46.8828 H         1 UNK         0.0600 
    163 H163        5.1548  -16.1829  -45.6594 H         1 UNK         0.0600 
    164 H164        3.1792  -15.3858  -43.8020 H         1 UNK         0.3000 
    165 H165        2.2844  -16.4556  -40.5258 H         1 UNK         0.0600 
    166 H166        3.9744  -14.7320  -39.8484 H         1 UNK         0.0600 
    167 H167        4.7133  -16.2793  -40.2357 H         1 UNK         0.0600 
    168 H168        4.8100  -14.9549  -41.3837 H         1 UNK         0.0600 
    169 H169        2.5295  -13.8842  -41.8148 H         1 UNK         0.3000 
    170 H170        0.0382  -13.5160  -43.5183 H         1 UNK         0.0600 
    171 H171       -2.0008  -14.5063  -42.4222 H         1 UNK         0.0600 
    172 H172       -1.6031  -13.6657  -40.9317 H         1 UNK         0.0600 
    173 H173       -2.0410  -12.7569  -42.3763 H         1 UNK         0.0600 
    174 H174        1.0778  -12.4965  -40.9782 H         1 UNK         0.3000 
    175 H175        1.0182   -9.0921  -42.1767 H         1 UNK         0.0600 
    176 H176        0.7172   -8.8893  -39.7290 H         1 UNK         0.0600 
    177 H177       -0.7207   -9.6203  -40.4206 H         1 UNK         0.0600 
    178 H178        0.4508  -10.6228  -39.5715 H         1 UNK         0.0600 
    179 H179        2.8063  -11.2357  -41.5799 H         1 UNK         0.3000 
    180 H180        5.5584   -9.1103  -40.9355 H         1 UNK         0.0600 
    181 H181        4.5027  -11.6799  -39.6395 H         1 UNK         0.0600 
    182 H182        4.9630  -10.2048  -38.8063 H         1 UNK         0.0600 
    183 H183        6.1819  -11.1457  -39.6519 H         1 UNK         0.0600 
    184 H184        5.9448  -10.2306  -42.7702 H         1 UNK         0.3000 
    185 H185        6.1698  -11.6879  -44.2848 H         1 UNK         0.0600 
    186 H186        6.6673  -13.8853  -43.3053 H         1 UNK         0.0600 
    187 H187        5.0750  -14.4823  -43.7232 H         1 UNK         0.0600 
    188 H188        6.2187  -14.0625  -44.9954 H         1 UNK         0.0600 
    189 H189        4.4684  -11.2751  -45.6217 H         1 UNK         0.3000 
    190 H190       -1.7016  -20.9264  -46.2797 H         1 UNK         0.3000 
    191 H191       -3.9177  -21.6614  -47.8747 H         1 UNK         0.0600 
    192 H192       -4.0767  -20.0385  -46.0411 H         1 UNK         0.0600 
    193 H193       -5.1737  -21.3654  -45.7131 H         1 UNK         0.0600 
    194 H194       -3.6406  -21.2669  -44.8525 H         1 UNK         0.0600 
    195 H195       -1.7401  -23.8212  -46.4016 H         1 UNK         0.3000 
    196 H196       -3.3419  -25.8594  -45.3521 H         1 UNK         0.0600 
    197 H197       -1.3422  -27.3095  -45.8333 H         1 UNK         0.0600 
    198 H198       -0.8870  -25.7842  -45.0911 H         1 UNK         0.0600 
    199 H199       -0.6576  -26.0248  -46.8230 H         1 UNK         0.0600 
    200 H200       -4.3083  -27.6729  -46.1362 H         1 UNK         0.3000 
    201 H201       -5.5994  -28.9193  -47.4321 H         1 UNK         0.0600 
    202 H202       -3.4115  -29.7551  -48.2889 H         1 UNK         0.0600 
    203 H203       -3.4381  -28.5521  -49.5751 H         1 UNK         0.0600 
    204 H204       -4.6499  -29.8250  -49.5310 H         1 UNK         0.0600 
    205 H205       -6.3837  -26.2903  -47.2527 H         1 UNK         0.3000 
    206 H206       -7.7658  -24.7291  -48.0079 H         1 UNK         0.0600 
    207 H207       -9.2994  -26.6455  -48.4802 H         1 UNK         0.0600 
    208 H208       -9.5375  -25.3344  -49.6245 H         1 UNK         0.0600 
    209 H209       -8.6574  -26.7730  -50.1168 H         1 UNK         0.0600 
    210 H210       -5.3392  -24.1724  -48.6023 H         1 UNK         0.3000 
    211 H211       -3.8358  -23.1112  -49.8348 H         1 UNK         0.0600 
    212 H212       -6.2234  -22.0538  -51.4387 H         1 UNK         0.0600 
    213 H213       -4.6164  -21.3457  -51.4017 H         1 UNK         0.0600 
    214 H214       -5.5972  -21.3568  -49.9482 H         1 UNK         0.0600 
    215 H215       -3.8227  -25.6670  -50.3637 H         1 UNK         0.3000 
    216 H216       -3.3436  -27.3595  -51.7143 H         1 UNK         0.0600 
    217 H217       -1.7958  -26.9263  -53.5957 H         1 UNK         0.0600 
    218 H218       -1.3664  -25.9102  -52.2281 H         1 UNK         0.0600 
    219 H219       -2.2206  -25.2209  -53.6073 H         1 UNK         0.0600 
    220 H220       -5.9306  -26.9833  -51.7902 H         1 UNK         0.3000 
    221 H221       -7.8901  -27.0899  -52.8115 H         1 UNK         0.0600 
    222 H222       -6.3813  -28.4602  -55.1044 H         1 UNK         0.0600 
    223 H223       -6.9667  -29.2569  -53.6446 H         1 UNK         0.0600 
    224 H224       -8.1074  -28.5646  -54.7867 H         1 UNK         0.0600 
    225 H225       -6.9406  -24.6755  -52.8729 H         1 UNK         0.3000 
    226 H226       -7.0532  -22.6403  -53.6017 H         1 UNK         0.0600 
    227 H227       -9.3841  -23.2081  -54.3004 H         1 UNK         0.0600 
    228 H228       -8.6793  -21.9610  -55.3153 H         1 UNK         0.0600 
    229 H229       -8.8050  -23.6050  -55.9189 H         1 UNK         0.0600 
    230 H230       -5.2589  -24.8407  -55.3383 H         1 UNK         0.3000 
    231 H231       -4.6104  -23.3641  -57.6854 H         1 UNK         0.0600 
    232 H232       -2.9400  -25.5241  -56.3092 H         1 UNK         0.0600 
    233 H233       -2.8656  -25.0416  -57.9953 H         1 UNK         0.0600 
    234 H234       -4.3000  -25.8543  -57.3855 H         1 UNK         0.0600 
    235 H235       -3.4648  -22.9826  -54.3858 H         1 UNK         0.3000 
    236 H236       -0.9364  -21.7500  -55.0558 H         1 UNK         0.0600 
    237 H237       -1.3862  -22.8517  -52.8504 H         1 UNK         0.0600 
    238 H238       -0.8571  -21.1862  -52.6681 H         1 UNK         0.0600 
    239 H239       -2.5525  -21.5857  -52.4647 H         1 UNK         0.0600 
    240 H240       -4.2470  -20.5442  -54.8663 H         1 UNK         0.3000 
    241 H241       -3.2636  -17.7571  -55.2687 H         1 UNK         0.0600 
    242 H242       -6.1575  -19.0923  -57.7071 H         1 UNK         0.3800 
    243 H243       -5.5111  -20.2145  -56.5445 H         1 UNK         0.3800 
    244 H244       -5.1030  -16.8679  -53.8888 H         1 UNK         0.0800 
    245 H245       -5.6777  -18.4795  -53.5540 H         1 UNK         0.0800 
    246 H246       -3.1819  -15.6407  -52.5006 H         1 UNK         0.0800 
    247 H247       -2.2019  -16.6154  -53.5728 H         1 UNK         0.0800 
@<TRIPOS>BOND
     1    1    2 1    
     2    1  127 1    
     3    1  128 1    
     4    1  129 1    
     5    2    3 2    
     6    2    4 am   BACKBONE|DICT|INTERRES
     7    4    5 1    
     8    4  130 1    
     9    5    6 1    
    10    5   65 1    
    11    5  131 1    
    12    6    7 1    
    13    6  132 1    
    14    6  133 1    
    15    7    8 1    
    16    8    9 1    
    17    8  134 1    
    18    8  135 1    
    19    9   10 ar   
    20    9   14 ar   
    21   10   11 ar   
    22   10  136 1    
    23   11   12 ar   
    24   11  126 1    
    25   12   13 ar   
    26   12  137 1    
    27   13   14 ar   
    28   13   15 1    
    29   14  138 1    
    30   15   16 1    
    31   15  139 1    
    32   15  140 1    
    33   16   17 1    
    34   17   18 1    
    35   17  141 1    
    36   17  142 1    
    37   18   19 1    
    38   18   67 1    
    39   18  143 1    
    40   19   20 am   BACKBONE|DICT|INTERRES
    41   19  144 1    
    42   20   21 2    
    43   20   22 1    
    44   22   23 1    
    45   22   24 1    
    46   22  145 1    
    47   23  146 1    
    48   23  147 1    
    49   23  148 1    
    50   24   25 am   BACKBONE|DICT|INTERRES
    51   24  149 1    
    52   25   26 2    
    53   25   27 1    
    54   27   28 1    
    55   27   29 1    
    56   27  150 1    
    57   28  151 1    
    58   28  152 1    
    59   28  153 1    
    60   29   30 am   BACKBONE|DICT|INTERRES
    61   29  154 1    
    62   30   31 2    
    63   30   32 1    
    64   32   33 1    
    65   32   34 1    
    66   32  155 1    
    67   33  156 1    
    68   33  157 1    
    69   33  158 1    
    70   34   35 am   BACKBONE|DICT|INTERRES
    71   34  159 1    
    72   35   36 2    
    73   35   37 1    
    74   37   38 1    
    75   37   39 1    
    76   37  160 1    
    77   38  161 1    
    78   38  162 1    
    79   38  163 1    
    80   39   40 am   BACKBONE|DICT|INTERRES
    81   39  164 1    
    82   40   41 2    
    83   40   42 1    
    84   42   43 1    
    85   42   44 1    
    86   42  165 1    
    87   43  166 1    
    88   43  167 1    
    89   43  168 1    
    90   44   45 am   BACKBONE|DICT|INTERRES
    91   44  169 1    
    92   45   46 2    
    93   45   47 1    
    94   47   48 1    
    95   47   49 1    
    96   47  170 1    
    97   48  171 1    
    98   48  172 1    
    99   48  173 1    
   100   49   50 am   BACKBONE|DICT|INTERRES
   101   49  174 1    
   102   50   51 2    
   103   50   52 1    
   104   52   53 1    
   105   52   54 1    
   106   52  175 1    
   107   53  176 1    
   108   53  177 1    
   109   53  178 1    
   110   54   55 am   BACKBONE|DICT|INTERRES
   111   54  179 1    
   112   55   56 2    
   113   55   57 1    
   114   57   58 1    
   115   57   59 1    
   116   57  180 1    
   117   58  181 1    
   118   58  182 1    
   119   58  183 1    
   120   59   60 am   BACKBONE|DICT|INTERRES
   121   59  184 1    
   122   60   61 2    
   123   60   62 1    
   124   62   63 1    
   125   62   64 1    
   126   62  185 1    
   127   63  186 1    
   128   63  187 1    
   129   63  188 1    
   130   64   65 am   BACKBONE|DICT|INTERRES
   131   64  189 1    
   132   65   66 2    
   133   67   68 2    
   134   67   69 am   BACKBONE|DICT|INTERRES
   135   69   70 1    
   136   69  190 1    
   137   70   71 1    
   138   70   72 1    
   139   70  191 1    
   140   71  192 1    
   141   71  193 1    
   142   71  194 1    
   143   72   73 2    
   144   72   74 am   BACKBONE|DICT|INTERRES
   145   74   75 1    
   146   74  195 1    
   147   75   76 1    
   148   75   77 1    
   149   75  196 1    
   150   76  197 1    
   151   76  198 1    
   152   76  199 1    
   153   77   78 2    
   154   77   79 am   BACKBONE|DICT|INTERRES
   155   79   80 1    
   156   79  200 1    
   157   80   81 1    
   158   80   82 1    
   159   80  201 1    
   160   81  202 1    
   161   81  203 1    
   162   81  204 1    
   163   82   83 2    
   164   82   84 am   BACKBONE|DICT|INTERRES
   165   84   85 1    
   166   84  205 1    
   167   85   86 1    
   168   85   87 1    
   169   85  206 1    
   170   86  207 1    
   171   86  208 1    
   172   86  209 1    
   173   87   88 2    
   174   87   89 am   BACKBONE|DICT|INTERRES
   175   89   90 1    
   176   89  210 1    
   177   90   91 1    
   178   90   92 1    
   179   90  211 1    
   180   91  212 1    
   181   91  213 1    
   182   91  214 1    
   183   92   93 2    
   184   92   94 am   BACKBONE|DICT|INTERRES
   185   94   95 1    
   186   94  215 1    
   187   95   96 1    
   188   95   97 1    
   189   95  216 1    
   190   96  217 1    
   191   96  218 1    
   192   96  219 1    
   193   97   98 2    
   194   97   99 am   BACKBONE|DICT|INTERRES
   195   99  100 1    
   196   99  220 1    
   197  100  101 1    
   198  100  102 1    
   199  100  221 1    
   200  101  222 1    
   201  101  223 1    
   202  101  224 1    
   203  102  103 2    
   204  102  104 am   BACKBONE|DICT|INTERRES
   205  104  105 1    
   206  104  225 1    
   207  105  106 1    
   208  105  107 1    
   209  105  226 1    
   210  106  227 1    
   211  106  228 1    
   212  106  229 1    
   213  107  108 2    
   214  107  109 am   BACKBONE|DICT|INTERRES
   215  109  110 1    
   216  109  230 1    
   217  110  111 1    
   218  110  112 1    
   219  110  231 1    
   220  111  232 1    
   221  111  233 1    
   222  111  234 1    
   223  112  113 2    
   224  112  114 am   BACKBONE|DICT|INTERRES
   225  114  115 1    
   226  114  235 1    
   227  115  116 1    
   228  115  117 1    
   229  115  236 1    
   230  116  237 1    
   231  116  238 1    
   232  116  239 1    
   233  117  118 2    
   234  117  119 am   BACKBONE|DICT|INTERRES
   235  119  120 1    
   236  119  240 1    
   237  120  121 1    
   238  120  124 1    
   239  120  241 1    
   240  121  122 am   BACKBONE|DICT|INTERRES
   241  121  123 2    
   242  122  242 1    
   243  122  243 1    
   244  124  125 1    
   245  124  244 1    
   246  124  245 1    
   247  125  126 1    
   248  126  246 1    
   249  126  247 1    
@<TRIPOS>SUBSTRUCTURE
     1 UNK         1 GROUP             0       ****    0 ROOT    
