@<TRIPOS>MOLECULE
3R540
247   249    1
SMALL
USER_CHARGES


@<TRIPOS>ATOM
      1 CA         -5.8841  -15.2402  -47.7943 C.3       0 UNK        -0.1800 
      2 C          -4.3832  -15.4131  -47.6112 C.2       0 UNK         0.5000 
      3 O          -3.9614  -16.1891  -46.7557 O.2       0 UNK        -0.5000 
      4 N          -3.5861  -14.6937  -48.4140 N.am      1 UNK        -0.5000 
      5 CA         -2.1161  -14.7360  -48.4513 C.3       1 UNK         0.1400 
      6 C6         -1.5350  -16.1185  -48.8543 C.3       23 UNK        -0.0398 
      7 S7         -2.2002  -16.7562  -50.4301 S.3       23 UNK        -0.2404 
      8 C8         -0.8809  -16.2867  -51.6005 C.3       23 UNK        -0.0205 
      9 C9          0.3820  -17.1522  -51.5843 C.ar      23 UNK        -0.0193 
     10 C10         1.2605  -17.0470  -52.6665 C.ar      23 UNK        -0.1150 
     11 C11         2.4304  -17.8090  -52.7208 C.ar      23 UNK        -0.0193 
     12 C12         2.7435  -18.6643  -51.6623 C.ar      23 UNK        -0.1150 
     13 C13         1.8738  -18.7908  -50.5769 C.ar      23 UNK        -0.0193 
     14 C14         0.6996  -18.0354  -50.5427 C.ar      23 UNK        -0.1150 
     15 C15         2.1979  -19.7569  -49.4504 C.3       23 UNK        -0.0205 
     16 S16         1.3879  -21.3650  -49.7036 S.3       23 UNK        -0.2404 
     17 C17        -0.2593  -21.1433  -48.9376 C.3       23 UNK        -0.0398 
     18 CA         -0.4790  -22.2161  -47.8432 C.3       11 UNK         0.1400 
     19 N           0.2648  -21.9365  -46.6144 N.am      11 UNK        -0.5000 
     20 C           0.7376  -22.9043  -45.8194 C.2       10 UNK         0.5000 
     21 O           0.5228  -24.1026  -46.0072 O.2       10 UNK        -0.5000 
     22 CA          1.5777  -22.4645  -44.6099 C.3       10 UNK         0.1400 
     23 CB          2.9463  -21.9334  -45.0640 C.3       10 UNK        -0.1800 
     24 N           0.9093  -21.4628  -43.7808 N.am      10 UNK        -0.5000 
     25 C          -0.2343  -21.6691  -43.1120 C.2       9 UNK         0.5000 
     26 O          -0.8717  -22.7231  -43.1474 O.2       9 UNK        -0.5000 
     27 CA         -0.7738  -20.4849  -42.2875 C.3       9 UNK         0.1400 
     28 CB          0.0360  -20.2994  -40.9952 C.3       9 UNK        -0.1800 
     29 N          -0.7912  -19.2269  -43.0331 N.am      9 UNK        -0.5000 
     30 C          -1.4736  -19.0269  -44.1689 C.2       8 UNK         0.5000 
     31 O          -2.1590  -19.8827  -44.7183 O.2       8 UNK        -0.5000 
     32 CA         -1.3055  -17.6623  -44.8461 C.3       8 UNK         0.1400 
     33 CB         -2.0566  -16.5681  -44.0711 C.3       8 UNK        -0.1800 
     34 N           0.1047  -17.3132  -44.9997 N.am      8 UNK        -0.5000 
     35 C           0.9889  -18.0275  -45.7111 C.2       7 UNK         0.5000 
     36 O           0.7064  -19.0515  -46.3338 O.2       7 UNK        -0.5000 
     37 CA          2.4482  -17.5452  -45.6706 C.3       7 UNK         0.1400 
     38 CB          2.6633  -16.3881  -46.6547 C.3       7 UNK        -0.1800 
     39 N           2.8566  -17.1328  -44.3264 N.am      7 UNK        -0.5000 
     40 C           2.9515  -17.9706  -43.2826 C.2       6 UNK         0.5000 
     41 O           2.7369  -19.1808  -43.3513 O.2       6 UNK        -0.5000 
     42 CA          3.2971  -17.3436  -41.9217 C.3       6 UNK         0.1400 
     43 CB          4.8069  -17.0859  -41.8075 C.3       6 UNK        -0.1800 
     44 N           2.5744  -16.0984  -41.6669 N.am      6 UNK        -0.5000 
     45 C           1.2453  -15.9688  -41.5854 C.2       5 UNK         0.5000 
     46 O           0.4688  -16.9130  -41.7300 O.2       5 UNK        -0.5000 
     47 CA          0.6694  -14.5600  -41.3215 C.3       5 UNK         0.1400 
     48 CB          0.3428  -14.3755  -39.8282 C.3       5 UNK        -0.1800 
     49 N           1.4713  -13.4352  -41.8314 N.am      5 UNK        -0.5000 
     50 C           2.6980  -13.0275  -41.4702 C.2       4 UNK         0.5000 
     51 O           3.3705  -13.5828  -40.6005 O.2       4 UNK        -0.5000 
     52 CA          3.2775  -11.8092  -42.2237 C.3       4 UNK         0.1400 
     53 CB          4.8185  -11.8448  -42.3015 C.3       4 UNK        -0.1800 
     54 N           2.7007  -11.5953  -43.5586 N.am      4 UNK        -0.5000 
     55 C           2.7523  -12.4232  -44.6123 C.2       3 UNK         0.5000 
     56 O           3.2467  -13.5526  -44.5845 O.2       3 UNK        -0.5000 
     57 CA          2.0697  -11.9111  -45.8923 C.3       3 UNK         0.1400 
     58 CB          2.7758  -12.3980  -47.1690 C.3       3 UNK        -0.1800 
     59 N           0.6818  -12.3592  -45.9118 N.am      3 UNK        -0.5000 
     60 C          -0.3333  -11.7949  -45.2500 C.2       2 UNK         0.5000 
     61 O          -0.2080  -10.7536  -44.6029 O.2       2 UNK        -0.5000 
     62 CA         -1.7015  -12.5219  -45.2927 C.3       2 UNK         0.1400 
     63 CB         -2.8637  -11.6139  -44.8518 C.3       2 UNK        -0.1800 
     64 N          -2.0557  -13.1335  -46.5814 N.am      2 UNK        -0.5000 
     65 C          -1.4803  -14.2046  -47.1464 C.2       1 UNK         0.5000 
     66 O          -0.4875  -14.7581  -46.6735 O.2       1 UNK        -0.5000 
     67 C          -1.9624  -22.5483  -47.5823 C.2       11 UNK         0.5000 
     68 O          -2.5769  -23.1688  -48.4501 O.2       11 UNK        -0.5000 
     69 N          -2.5233  -22.2082  -46.4104 N.am      12 UNK        -0.5000 
     70 CA         -3.8379  -22.7026  -45.9808 C.3       12 UNK         0.1400 
     71 CB         -4.3982  -21.8755  -44.8162 C.3       12 UNK        -0.1800 
     72 C          -3.7924  -24.1897  -45.5990 C.2       12 UNK         0.5000 
     73 O          -4.7227  -24.9207  -45.9361 O.2       12 UNK        -0.5000 
     74 N          -2.6968  -24.6305  -44.9612 N.am      13 UNK        -0.5000 
     75 CA         -2.4430  -26.0412  -44.6487 C.3       13 UNK         0.1400 
     76 CB         -1.2337  -26.1549  -43.7089 C.3       13 UNK        -0.1800 
     77 C          -2.2472  -26.9030  -45.9129 C.2       13 UNK         0.5000 
     78 O          -2.6353  -28.0714  -45.9205 O.2       13 UNK        -0.5000 
     79 N          -1.6969  -26.2941  -46.9725 N.am      14 UNK        -0.5000 
     80 CA         -1.5850  -26.8742  -48.3129 C.3       14 UNK         0.1400 
     81 CB         -0.4665  -26.1415  -49.0717 C.3       14 UNK        -0.1800 
     82 C          -2.9013  -26.8127  -49.1201 C.2       14 UNK         0.5000 
     83 O          -2.9681  -27.4128  -50.1932 O.2       14 UNK        -0.5000 
     84 N          -3.9030  -26.0728  -48.6159 N.am      15 UNK        -0.5000 
     85 CA         -5.1986  -25.7609  -49.2350 C.3       15 UNK         0.1400 
     86 CB         -6.0510  -27.0350  -49.4061 C.3       15 UNK        -0.1800 
     87 C          -5.0770  -24.9368  -50.5368 C.2       15 UNK         0.5000 
     88 O          -5.9594  -25.0011  -51.3941 O.2       15 UNK        -0.5000 
     89 N          -3.9878  -24.1694  -50.6555 N.am      16 UNK        -0.5000 
     90 CA         -3.6461  -23.3524  -51.8154 C.3       16 UNK         0.1400 
     91 CB         -2.1372  -23.4762  -52.0690 C.3       16 UNK        -0.1800 
     92 C          -4.0483  -21.8831  -51.6101 C.2       16 UNK         0.5000 
     93 O          -4.4859  -21.2391  -52.5652 O.2       16 UNK        -0.5000 
     94 N          -3.9485  -21.3828  -50.3669 N.am      17 UNK        -0.5000 
     95 CA         -4.2754  -19.9970  -50.0019 C.3       17 UNK         0.1400 
     96 CB         -3.8496  -19.7078  -48.5551 C.3       17 UNK        -0.1800 
     97 C          -5.7596  -19.6389  -50.1995 C.2       17 UNK         0.5000 
     98 O          -6.0736  -18.4732  -50.4352 O.2       17 UNK        -0.5000 
     99 N          -6.6370  -20.6521  -50.1672 N.am      18 UNK        -0.5000 
    100 CA        -8.0643  -20.5470  -50.4805 C.3       18 UNK         0.1400 
    101 CB        -8.7383  -21.8915  -50.1665 C.3       18 UNK        -0.1800 
    102 C         -8.3444  -20.1305  -51.9405 C.2       18 UNK         0.5000 
    103 O         -9.3762  -19.5131  -52.2052 O.2       18 UNK        -0.5000 
    104 N         -7.4147  -20.4544  -52.8492 N.am      19 UNK        -0.5000 
    105 CA        -7.4256  -20.0530  -54.2569 C.3       19 UNK         0.1400 
    106 CB        -7.0791  -21.2876  -55.1071 C.3       19 UNK        -0.1800 
    107 C         -6.4283  -18.9086  -54.5358 C.2       19 UNK         0.5000 
    108 O         -6.2947  -18.4989  -55.6895 O.2       19 UNK        -0.5000 
    109 N         -5.7249  -18.4401  -53.4917 N.am      20 UNK        -0.5000 
    110 CA        -4.5945  -17.5045  -53.5129 C.3       20 UNK         0.1400 
    111 CB        -5.0583  -16.0906  -53.9177 C.3       20 UNK        -0.1800 
    112 C         -3.3990  -18.0153  -54.3498 C.2       20 UNK         0.5000 
    113 O         -2.6724  -17.2154  -54.9424 O.2       20 UNK        -0.5000 
    114 N         -3.2285  -19.3418  -54.3954 N.am      21 UNK        -0.5000 
    115 CA        -2.1727  -20.0312  -55.1274 C.3       21 UNK         0.1400 
    116 CB        -2.7514  -21.3433  -55.6826 C.3       21 UNK        -0.1800 
    117 C         -0.9723  -20.3135  -54.2105 C.2       21 UNK         0.5000 
    118 O         -1.1221  -20.3476  -52.9872 O.2       21 UNK        -0.5000 
    119 N          0.1892  -20.5499  -54.8307 N.am      22 UNK        -0.5000 
    120 CA         1.4478  -20.8767  -54.1381 C.3       22 UNK         0.1400 
    121 C          1.6236  -22.3874  -53.8030 C.2       22 UNK         0.5000 
    122 N          0.7334  -23.2751  -54.2300 N.am      22 UNK        -0.7600 
    123 O          2.5919  -22.7650  -53.1497 O.2       22 UNK        -0.5000 
    124 C124        2.6961  -20.3336  -54.8889 C.3       23 UNK        -0.0398 
    125 S125        2.5869  -18.5736  -55.3736 S.3       23 UNK        -0.2404 
    126 C126        3.3333  -17.7303  -53.9412 C.3       23 UNK        -0.0205 
    127 H127       -6.1177  -14.4893  -48.5494 H         1 UNK         0.0600 
    128 H128       -6.3446  -14.9339  -46.8551 H         1 UNK         0.0600 
    129 H129       -6.3319  -16.1846  -48.1045 H         1 UNK         0.0600 
    130 H130       -4.0123  -14.0833  -49.0968 H         1 UNK         0.3000 
    131 H131       -1.8191  -14.0269  -49.2253 H         1 UNK         0.0600 
    132 H132       -0.4487  -16.0532  -48.9287 H         1 UNK         0.0800 
    133 H133       -1.7365  -16.8623  -48.0826 H         1 UNK         0.0800 
    134 H134       -0.6009  -15.2473  -51.4250 H         1 UNK         0.0800 
    135 H135       -1.3114  -16.3216  -52.6022 H         1 UNK         0.0800 
    136 H136        1.0223  -16.3844  -53.4870 H         1 UNK         0.1150 
    137 H137        3.6442  -19.2608  -51.7002 H         1 UNK         0.1150 
    138 H138        0.0379  -18.1580  -49.7006 H         1 UNK         0.1150 
    139 H139        1.9156  -19.3305  -48.4909 H         1 UNK         0.0800 
    140 H140        3.2757  -19.9173  -49.3992 H         1 UNK         0.0800 
    141 H141       -0.9963  -21.2285  -49.7378 H         1 UNK         0.0800 
    142 H142       -0.3682  -20.1401  -48.5264 H         1 UNK         0.0800 
    143 H143       -0.0817  -23.1448  -48.2572 H         1 UNK         0.0600 
    144 H144        0.4582  -20.9601  -46.4033 H         1 UNK         0.3000 
    145 H145        1.7479  -23.3468  -43.9895 H         1 UNK         0.0600 
    146 H146        3.4610  -22.6618  -45.6918 H         1 UNK         0.0600 
    147 H147        3.5912  -21.7276  -44.2096 H         1 UNK         0.0600 
    148 H148        2.8507  -21.0117  -45.6395 H         1 UNK         0.0600 
    149 H149        1.3795  -20.5668  -43.6879 H         1 UNK         0.3000 
    150 H150       -1.8045  -20.7176  -42.0123 H         1 UNK         0.0600 
    151 H151        1.0692  -20.0192  -41.2036 H         1 UNK         0.0600 
    152 H152        0.0550  -21.2194  -40.4096 H         1 UNK         0.0600 
    153 H153       -0.3986  -19.5216  -40.3671 H         1 UNK         0.0600 
    154 H154       -0.2489  -18.4578  -42.6486 H         1 UNK         0.3000 
    155 H155       -1.7418  -17.7290  -45.8445 H         1 UNK         0.0600 
    156 H156       -1.9979  -15.6120  -44.5849 H         1 UNK         0.0600 
    157 H157       -1.6725  -16.4331  -43.0617 H         1 UNK         0.0600 
    158 H158       -3.1149  -16.8174  -43.9857 H         1 UNK         0.0600 
    159 H159        0.4263  -16.4901  -44.5155 H         1 UNK         0.3000 
    160 H160        3.0838  -18.3781  -45.9788 H         1 UNK         0.0600 
    161 H161        2.0732  -15.5167  -46.3723 H         1 UNK         0.0600 
    162 H162        2.3684  -16.6718  -47.6660 H         1 UNK         0.0600 
    163 H163        3.7102  -16.0865  -46.6900 H         1 UNK         0.0600 
    164 H164        3.0396  -16.1484  -44.1835 H         1 UNK         0.3000 
    165 H165        3.0114  -18.0574  -41.1463 H         1 UNK         0.0600 
    166 H166        5.3742  -18.0011  -41.9819 H         1 UNK         0.0600 
    167 H167        5.1451  -16.3446  -42.5329 H         1 UNK         0.0600 
    168 H168        5.0702  -16.7247  -40.8132 H         1 UNK         0.0600 
    169 H169        3.1304  -15.2728  -41.4685 H         1 UNK         0.3000 
    170 H170       -0.2739  -14.5141  -41.8679 H         1 UNK         0.0600 
    171 H171       -0.1366  -13.4138  -39.6450 H         1 UNK         0.0600 
    172 H172        1.2361  -14.4300  -39.2054 H         1 UNK         0.0600 
    173 H173       -0.3418  -15.1507  -39.4816 H         1 UNK         0.0600 
    174 H174        1.0375  -12.9108  -42.5771 H         1 UNK         0.3000 
    175 H175        2.9998  -10.9361  -41.6317 H         1 UNK         0.0600 
    176 H176        5.1772  -12.7344  -42.8202 H         1 UNK         0.0600 
    177 H177        5.2629  -11.8464  -41.3055 H         1 UNK         0.0600 
    178 H178        5.2074  -10.9715  -42.8251 H         1 UNK         0.0600 
    179 H179        2.2016  -10.7228  -43.6761 H         1 UNK         0.3000 
    180 H180        2.1002  -10.8193  -45.8944 H         1 UNK         0.0600 
    181 H181        2.7417  -13.4821  -47.2693 H         1 UNK         0.0600 
    182 H182        3.8253  -12.1014  -47.1702 H         1 UNK         0.0600 
    183 H183        2.3152  -11.9685  -48.0587 H         1 UNK         0.0600 
    184 H184        0.4996  -13.2608  -46.3460 H         1 UNK         0.3000 
    185 H185       -1.6281  -13.3251  -44.5584 H         1 UNK         0.0600 
    186 H186       -2.6958  -11.2117  -43.8519 H         1 UNK         0.0600 
    187 H187       -2.9912  -10.7694  -45.5301 H         1 UNK         0.0600 
    188 H188       -3.8042  -12.1645  -44.8194 H         1 UNK         0.0600 
    189 H189       -2.8536  -12.7315  -47.0513 H         1 UNK         0.3000 
    190 H190       -2.0229  -21.6165  -45.7544 H         1 UNK         0.3000 
    191 H191       -4.5338  -22.6020  -46.8165 H         1 UNK         0.0600 
    192 H192       -4.5562  -20.8383  -45.1113 H         1 UNK         0.0600 
    193 H193       -5.3633  -22.2645  -44.4891 H         1 UNK         0.0600 
    194 H194       -3.7309  -21.8895  -43.9536 H         1 UNK         0.0600 
    195 H195       -1.9817  -23.9672  -44.6864 H         1 UNK         0.3000 
    196 H196       -3.3168  -26.4281  -44.1202 H         1 UNK         0.0600 
    197 H197       -1.0569  -27.1932  -43.4255 H         1 UNK         0.0600 
    198 H198       -1.3940  -25.5897  -42.7906 H         1 UNK         0.0600 
    199 H199       -0.3213  -25.7830  -44.1742 H         1 UNK         0.0600 
    200 H200       -1.3520  -25.3513  -46.8528 H         1 UNK         0.3000 
    201 H201       -1.3023  -27.9245  -48.2173 H         1 UNK         0.0600 
    202 H202       -0.2496  -26.6382  -50.0181 H         1 UNK         0.0600 
    203 H203        0.4594  -26.1195  -48.4963 H         1 UNK         0.0600 
    204 H204       -0.7452  -25.1140  -49.3043 H         1 UNK         0.0600 
    205 H205       -3.7567  -25.6416  -47.7123 H         1 UNK         0.3000 
    206 H206       -5.7194  -25.1153  -48.5268 H         1 UNK         0.0600 
    207 H207       -6.1223  -27.5890  -48.4700 H         1 UNK         0.0600 
    208 H208       -7.0678  -26.7874  -49.7128 H         1 UNK         0.0600 
    209 H209       -5.6365  -27.7029  -50.1616 H         1 UNK         0.0600 
    210 H210       -3.3513  -24.1153  -49.8650 H         1 UNK         0.3000 
    211 H211       -4.1681  -23.7230  -52.7001 H         1 UNK         0.0600 
    212 H212       -1.8445  -24.5172  -52.2070 H         1 UNK         0.0600 
    213 H213       -1.8512  -22.9392  -52.9717 H         1 UNK         0.0600 
    214 H214       -1.5492  -23.0713  -51.2448 H         1 UNK         0.0600 
    215 H215       -3.5880  -21.9836  -49.6340 H         1 UNK         0.3000 
    216 H216       -3.6984  -19.3453  -50.6606 H         1 UNK         0.0600 
    217 H217       -4.3464  -20.3700  -47.8467 H         1 UNK         0.0600 
    218 H218       -4.0992  -18.6838  -48.2728 H         1 UNK         0.0600 
    219 H219       -2.7742  -19.8118  -48.4276 H         1 UNK         0.0600 
    220 H220       -6.2842  -21.5774  -49.9740 H         1 UNK         0.3000 
    221 H221       -8.4960  -19.7830  -49.8306 H         1 UNK         0.0600 
    222 H222       -8.3230  -22.7005  -50.7695 H         1 UNK         0.0600 
    223 H223       -8.6171  -22.1586  -49.1165 H         1 UNK         0.0600 
    224 H224       -9.8095  -21.8483  -50.3678 H         1 UNK         0.0600 
    225 H225       -6.5820  -20.9456  -52.5449 H         1 UNK         0.3000 
    226 H226       -8.4171  -19.7016  -54.5488 H         1 UNK         0.0600 
    227 H227       -7.7823  -22.1006  -54.9259 H         1 UNK         0.0600 
    228 H228       -7.1196  -21.0566  -56.1723 H         1 UNK         0.0600 
    229 H229       -6.0761  -21.6571  -54.8892 H         1 UNK         0.0600 
    230 H230       -5.9513  -18.8083  -52.5772 H         1 UNK         0.3000 
    231 H231       -4.2373  -17.4483  -52.4848 H         1 UNK         0.0600 
    232 H232       -5.3745  -16.0506  -54.9603 H         1 UNK         0.0600 
    233 H233       -4.2538  -15.3652  -53.7910 H         1 UNK         0.0600 
    234 H234       -5.8924  -15.7585  -53.2996 H         1 UNK         0.0600 
    235 H235       -3.8087  -19.9311  -53.8051 H         1 UNK         0.3000 
    236 H236       -1.8375  -19.4162  -55.9653 H         1 UNK         0.0600 
    237 H237       -3.0948  -22.0035  -54.8856 H         1 UNK         0.0600 
    238 H238       -3.5996  -21.1495  -56.3397 H         1 UNK         0.0600 
    239 H239       -2.0083  -21.8880  -56.2659 H         1 UNK         0.0600 
    240 H240        0.2367  -20.5052  -55.8379 H         1 UNK         0.3000 
    241 H241        1.4168  -20.3877  -53.1660 H         1 UNK         0.0600 
    242 H242       -0.0589  -22.9844  -54.7775 H         1 UNK         0.3800 
    243 H243        0.8631  -24.2493  -54.0085 H         1 UNK         0.3800 
    244 H244        3.5940  -20.4734  -54.2844 H         1 UNK         0.0800 
    245 H245        2.8590  -20.9098  -55.8011 H         1 UNK         0.0800 
    246 H246        4.3160  -18.1559  -53.7324 H         1 UNK         0.0800 
    247 H247        3.5014  -16.6829  -54.1957 H         1 UNK         0.0800 
@<TRIPOS>BOND
     1    1    2 1    
     2    1  127 1    
     3    1  128 1    
     4    1  129 1    
     5    2    3 2    
     6    2    4 am   BACKBONE|DICT|INTERRES
     7    4    5 1    
     8    4  130 1    
     9    5    6 1    
    10    5   65 1    
    11    5  131 1    
    12    6    7 1    
    13    6  132 1    
    14    6  133 1    
    15    7    8 1    
    16    8    9 1    
    17    8  134 1    
    18    8  135 1    
    19    9   10 ar   
    20    9   14 ar   
    21   10   11 ar   
    22   10  136 1    
    23   11   12 ar   
    24   11  126 1    
    25   12   13 ar   
    26   12  137 1    
    27   13   14 ar   
    28   13   15 1    
    29   14  138 1    
    30   15   16 1    
    31   15  139 1    
    32   15  140 1    
    33   16   17 1    
    34   17   18 1    
    35   17  141 1    
    36   17  142 1    
    37   18   19 1    
    38   18   67 1    
    39   18  143 1    
    40   19   20 am   BACKBONE|DICT|INTERRES
    41   19  144 1    
    42   20   21 2    
    43   20   22 1    
    44   22   23 1    
    45   22   24 1    
    46   22  145 1    
    47   23  146 1    
    48   23  147 1    
    49   23  148 1    
    50   24   25 am   BACKBONE|DICT|INTERRES
    51   24  149 1    
    52   25   26 2    
    53   25   27 1    
    54   27   28 1    
    55   27   29 1    
    56   27  150 1    
    57   28  151 1    
    58   28  152 1    
    59   28  153 1    
    60   29   30 am   BACKBONE|DICT|INTERRES
    61   29  154 1    
    62   30   31 2    
    63   30   32 1    
    64   32   33 1    
    65   32   34 1    
    66   32  155 1    
    67   33  156 1    
    68   33  157 1    
    69   33  158 1    
    70   34   35 am   BACKBONE|DICT|INTERRES
    71   34  159 1    
    72   35   36 2    
    73   35   37 1    
    74   37   38 1    
    75   37   39 1    
    76   37  160 1    
    77   38  161 1    
    78   38  162 1    
    79   38  163 1    
    80   39   40 am   BACKBONE|DICT|INTERRES
    81   39  164 1    
    82   40   41 2    
    83   40   42 1    
    84   42   43 1    
    85   42   44 1    
    86   42  165 1    
    87   43  166 1    
    88   43  167 1    
    89   43  168 1    
    90   44   45 am   BACKBONE|DICT|INTERRES
    91   44  169 1    
    92   45   46 2    
    93   45   47 1    
    94   47   48 1    
    95   47   49 1    
    96   47  170 1    
    97   48  171 1    
    98   48  172 1    
    99   48  173 1    
   100   49   50 am   BACKBONE|DICT|INTERRES
   101   49  174 1    
   102   50   51 2    
   103   50   52 1    
   104   52   53 1    
   105   52   54 1    
   106   52  175 1    
   107   53  176 1    
   108   53  177 1    
   109   53  178 1    
   110   54   55 am   BACKBONE|DICT|INTERRES
   111   54  179 1    
   112   55   56 2    
   113   55   57 1    
   114   57   58 1    
   115   57   59 1    
   116   57  180 1    
   117   58  181 1    
   118   58  182 1    
   119   58  183 1    
   120   59   60 am   BACKBONE|DICT|INTERRES
   121   59  184 1    
   122   60   61 2    
   123   60   62 1    
   124   62   63 1    
   125   62   64 1    
   126   62  185 1    
   127   63  186 1    
   128   63  187 1    
   129   63  188 1    
   130   64   65 am   BACKBONE|DICT|INTERRES
   131   64  189 1    
   132   65   66 2    
   133   67   68 2    
   134   67   69 am   BACKBONE|DICT|INTERRES
   135   69   70 1    
   136   69  190 1    
   137   70   71 1    
   138   70   72 1    
   139   70  191 1    
   140   71  192 1    
   141   71  193 1    
   142   71  194 1    
   143   72   73 2    
   144   72   74 am   BACKBONE|DICT|INTERRES
   145   74   75 1    
   146   74  195 1    
   147   75   76 1    
   148   75   77 1    
   149   75  196 1    
   150   76  197 1    
   151   76  198 1    
   152   76  199 1    
   153   77   78 2    
   154   77   79 am   BACKBONE|DICT|INTERRES
   155   79   80 1    
   156   79  200 1    
   157   80   81 1    
   158   80   82 1    
   159   80  201 1    
   160   81  202 1    
   161   81  203 1    
   162   81  204 1    
   163   82   83 2    
   164   82   84 am   BACKBONE|DICT|INTERRES
   165   84   85 1    
   166   84  205 1    
   167   85   86 1    
   168   85   87 1    
   169   85  206 1    
   170   86  207 1    
   171   86  208 1    
   172   86  209 1    
   173   87   88 2    
   174   87   89 am   BACKBONE|DICT|INTERRES
   175   89   90 1    
   176   89  210 1    
   177   90   91 1    
   178   90   92 1    
   179   90  211 1    
   180   91  212 1    
   181   91  213 1    
   182   91  214 1    
   183   92   93 2    
   184   92   94 am   BACKBONE|DICT|INTERRES
   185   94   95 1    
   186   94  215 1    
   187   95   96 1    
   188   95   97 1    
   189   95  216 1    
   190   96  217 1    
   191   96  218 1    
   192   96  219 1    
   193   97   98 2    
   194   97   99 am   BACKBONE|DICT|INTERRES
   195   99  100 1    
   196   99  220 1    
   197  100  101 1    
   198  100  102 1    
   199  100  221 1    
   200  101  222 1    
   201  101  223 1    
   202  101  224 1    
   203  102  103 2    
   204  102  104 am   BACKBONE|DICT|INTERRES
   205  104  105 1    
   206  104  225 1    
   207  105  106 1    
   208  105  107 1    
   209  105  226 1    
   210  106  227 1    
   211  106  228 1    
   212  106  229 1    
   213  107  108 2    
   214  107  109 am   BACKBONE|DICT|INTERRES
   215  109  110 1    
   216  109  230 1    
   217  110  111 1    
   218  110  112 1    
   219  110  231 1    
   220  111  232 1    
   221  111  233 1    
   222  111  234 1    
   223  112  113 2    
   224  112  114 am   BACKBONE|DICT|INTERRES
   225  114  115 1    
   226  114  235 1    
   227  115  116 1    
   228  115  117 1    
   229  115  236 1    
   230  116  237 1    
   231  116  238 1    
   232  116  239 1    
   233  117  118 2    
   234  117  119 am   BACKBONE|DICT|INTERRES
   235  119  120 1    
   236  119  240 1    
   237  120  121 1    
   238  120  124 1    
   239  120  241 1    
   240  121  122 am   BACKBONE|DICT|INTERRES
   241  121  123 2    
   242  122  242 1    
   243  122  243 1    
   244  124  125 1    
   245  124  244 1    
   246  124  245 1    
   247  125  126 1    
   248  126  246 1    
   249  126  247 1    
@<TRIPOS>SUBSTRUCTURE
     1 UNK         1 GROUP             0       ****    0 ROOT    
