@<TRIPOS>MOLECULE
3R540
247   249    1
SMALL
USER_CHARGES


@<TRIPOS>ATOM
      1 CA         -2.0599  -15.7699  -50.0212 C.3       0 UNK        -0.1800 
      2 C          -1.2102  -15.2991  -48.8509 C.2       0 UNK         0.5000 
      3 O          -1.6843  -14.5223  -48.0211 O.2       0 UNK        -0.5000 
      4 N           0.0389  -15.7773  -48.7633 N.am      1 UNK        -0.5000 
      5 CA          1.0121  -15.3809  -47.7360 C.3       1 UNK         0.1400 
      6 C6          2.4265  -15.9371  -48.0046 C.3       23 UNK        -0.0398 
      7 S7          3.1477  -15.3116  -49.5557 S.3       23 UNK        -0.2404 
      8 C8          4.3144  -16.6506  -49.9643 C.3       23 UNK        -0.0205 
      9 C9          3.5933  -17.9500  -50.2890 C.ar      23 UNK        -0.0193 
     10 C10         2.7706  -18.0258  -51.4135 C.ar      23 UNK        -0.1150 
     11 C11         2.0646  -19.1951  -51.7021 C.ar      23 UNK        -0.0193 
     12 C12         2.1980  -20.3057  -50.8620 C.ar      23 UNK        -0.1150 
     13 C13         3.0411  -20.2520  -49.7457 C.ar      23 UNK        -0.0193 
     14 C14         3.7357  -19.0705  -49.4658 C.ar      23 UNK        -0.1150 
     15 C15         3.2354  -21.4775  -48.8611 C.3       23 UNK        -0.0205 
     16 S16         2.7130  -21.1936  -47.1385 S.3       23 UNK        -0.2404 
     17 C17         0.8980  -21.2173  -47.2979 C.3       23 UNK        -0.0398 
     18 CA          0.2733  -22.5419  -46.7986 C.3       11 UNK         0.1400 
     19 N           0.6099  -22.8467  -45.4024 N.am      11 UNK        -0.5000 
     20 C           0.4413  -24.0542  -44.8420 C.2       10 UNK         0.5000 
     21 O          -0.0130  -25.0235  -45.4468 O.2       10 UNK        -0.5000 
     22 CA          0.7776  -24.1984  -43.3450 C.3       10 UNK         0.1400 
     23 CB          2.2639  -24.5387  -43.1625 C.3       10 UNK        -0.1800 
     24 N           0.4596  -23.0120  -42.5513 N.am      10 UNK        -0.5000 
     25 C          -0.7246  -22.3856  -42.5000 C.2       9 UNK         0.5000 
     26 O          -1.7316  -22.7922  -43.0792 O.2       9 UNK        -0.5000 
     27 CA         -0.7898  -21.0602  -41.7127 C.3       9 UNK         0.1400 
     28 CB         -1.5792  -21.2516  -40.4094 C.3       9 UNK        -0.1800 
     29 N           0.5183  -20.4731  -41.3970 N.am      9 UNK        -0.5000 
     30 C           1.4319  -20.0705  -42.2913 C.2       8 UNK         0.5000 
     31 O           1.2804  -20.1592  -43.5130 O.2       8 UNK        -0.5000 
     32 CA          2.7645  -19.5711  -41.7012 C.3       8 UNK         0.1400 
     33 CB          3.6120  -20.7612  -41.2212 C.3       8 UNK        -0.1800 
     34 N           3.5492  -18.8082  -42.6683 N.am      8 UNK        -0.5000 
     35 C           3.2292  -17.5913  -43.1184 C.2       7 UNK         0.5000 
     36 O           2.2702  -16.9325  -42.7041 O.2       7 UNK        -0.5000 
     37 CA          4.1418  -17.0272  -44.2171 C.3       7 UNK         0.1400 
     38 CB          3.9952  -17.8305  -45.5218 C.3       7 UNK        -0.1800 
     39 N           3.7770  -15.6359  -44.4524 N.am      7 UNK        -0.5000 
     40 C           4.6210  -14.6096  -44.6062 C.2       6 UNK         0.5000 
     41 O           5.8429  -14.7349  -44.6925 O.2       6 UNK        -0.5000 
     42 CA          3.9978  -13.2007  -44.6576 C.3       6 UNK         0.1400 
     43 CB          3.9154  -12.6918  -46.1055 C.3       6 UNK        -0.1800 
     44 N           2.6552  -13.1828  -44.0798 N.am      6 UNK        -0.5000 
     45 C           2.3610  -12.9960  -42.7874 C.2       5 UNK         0.5000 
     46 O           3.2009  -12.7161  -41.9303 O.2       5 UNK        -0.5000 
     47 CA          0.8763  -13.1758  -42.3986 C.3       5 UNK         0.1400 
     48 CB          0.4850  -12.4114  -41.1169 C.3       5 UNK        -0.1800 
     49 N          -0.0428  -12.8764  -43.5037 N.am      5 UNK        -0.5000 
     50 C          -0.2503  -11.6954  -44.1068 C.2       4 UNK         0.5000 
     51 O           0.2570  -10.6355  -43.7389 O.2       4 UNK        -0.5000 
     52 CA         -1.1510  -11.6989  -45.3604 C.3       4 UNK         0.1400 
     53 CB         -0.2945  -11.5280  -46.6248 C.3       4 UNK        -0.1800 
     54 N          -1.9550  -12.9151  -45.5021 N.am      4 UNK        -0.5000 
     55 C          -3.0255  -13.2166  -44.7541 C.2       3 UNK         0.5000 
     56 O          -3.4894  -12.4732  -43.8891 O.2       3 UNK        -0.5000 
     57 CA         -3.6607  -14.5972  -44.9927 C.3       3 UNK         0.1400 
     58 CB         -4.6769  -14.5430  -46.1438 C.3       3 UNK        -0.1800 
     59 N          -2.6511  -15.6171  -45.2809 N.am      3 UNK        -0.5000 
     60 C          -1.8631  -16.1846  -44.3564 C.2       2 UNK         0.5000 
     61 O          -1.9202  -15.9234  -43.1553 O.2       2 UNK        -0.5000 
     62 CA         -0.8236  -17.2011  -44.8650 C.3       2 UNK         0.1400 
     63 CB         -1.4682  -18.5876  -45.0039 C.3       2 UNK        -0.1800 
     64 N          -0.2239  -16.8071  -46.1428 N.am      2 UNK        -0.5000 
     65 C           0.5679  -15.7368  -46.3026 C.2       1 UNK         0.5000 
     66 O           0.9298  -15.0149  -45.3748 O.2       1 UNK        -0.5000 
     67 C          -1.2506  -22.5441  -47.0426 C.2       11 UNK         0.5000 
     68 O          -1.6816  -22.8821  -48.1456 O.2       11 UNK        -0.5000 
     69 N          -2.0448  -22.1793  -46.0253 N.am      12 UNK        -0.5000 
     70 CA         -3.5057  -22.2531  -46.0690 C.3       12 UNK         0.1400 
     71 CB         -4.1210  -21.2664  -45.0659 C.3       12 UNK        -0.1800 
     72 C          -3.9986  -23.6857  -45.8111 C.2       12 UNK         0.5000 
     73 O          -4.9260  -24.1302  -46.4851 O.2       12 UNK        -0.5000 
     74 N          -3.3426  -24.4016  -44.8857 N.am      13 UNK        -0.5000 
     75 CA         -3.6096  -25.8093  -44.5709 C.3       13 UNK         0.1400 
     76 CB         -2.7897  -26.2241  -43.3409 C.3       13 UNK        -0.1800 
     77 C          -3.3305  -26.7535  -45.7577 C.2       13 UNK         0.5000 
     78 O          -4.0888  -27.6981  -45.9775 O.2       13 UNK        -0.5000 
     79 N          -2.2792  -26.4477  -46.5309 N.am      14 UNK        -0.5000 
     80 CA         -1.9319  -27.1033  -47.7950 C.3       14 UNK         0.1400 
     81 CB         -0.4698  -26.7687  -48.1334 C.3       14 UNK        -0.1800 
     82 C          -2.8521  -26.7083  -48.9706 C.2       14 UNK         0.5000 
     83 O          -2.7270  -27.2887  -50.0492 O.2       14 UNK        -0.5000 
     84 N          -3.7315  -25.7184  -48.7541 N.am      15 UNK        -0.5000 
     85 CA         -4.6821  -25.1203  -49.6962 C.3       15 UNK         0.1400 
     86 CB         -5.6843  -26.1650  -50.2279 C.3       15 UNK        -0.1800 
     87 C          -4.0258  -24.2979  -50.8241 C.2       15 UNK         0.5000 
     88 O          -4.7096  -23.9298  -51.7795 O.2       15 UNK        -0.5000 
     89 N          -2.7304  -23.9848  -50.6862 N.am      16 UNK        -0.5000 
     90 CA         -1.9616  -23.1900  -51.6403 C.3       16 UNK         0.1400 
     91 CB         -0.4583  -23.3911  -51.3916 C.3       16 UNK        -0.1800 
     92 C          -2.3398  -21.7041  -51.5637 C.2       16 UNK         0.5000 
     93 O          -2.6072  -21.0960  -52.5984 O.2       16 UNK        -0.5000 
     94 N          -2.3884  -21.1649  -50.3385 N.am      17 UNK        -0.5000 
     95 CA         -2.7719  -19.7785  -50.0594 C.3       17 UNK         0.1400 
     96 CB         -2.0895  -19.3171  -48.7617 C.3       17 UNK        -0.1800 
     97 C          -4.2969  -19.5834  -49.9717 C.2       17 UNK         0.5000 
     98 O          -4.7610  -18.4449  -50.0241 O.2       17 UNK        -0.5000 
     99 N          -5.0485  -20.6840  -49.8274 N.am      18 UNK        -0.5000 
    100 CA        -6.5121  -20.6827  -49.7621 C.3       18 UNK         0.1400 
    101 CB        -6.9838  -21.9763  -49.0809 C.3       18 UNK        -0.1800 
    102 C         -7.1752  -20.5377  -51.1466 C.2       18 UNK         0.5000 
    103 O         -8.3392  -20.1409  -51.2194 O.2       18 UNK        -0.5000 
    104 N         -6.4395  -20.8805  -52.2123 N.am      19 UNK        -0.5000 
    105 CA        -6.8731  -20.7838  -53.6045 C.3       19 UNK         0.1400 
    106 CB        -5.8751  -21.5648  -54.4714 C.3       19 UNK        -0.1800 
    107 C         -6.9994  -19.3231  -54.0842 C.2       19 UNK         0.5000 
    108 O         -6.3357  -18.4338  -53.5458 O.2       19 UNK        -0.5000 
    109 N         -7.8412  -19.1078  -55.1064 N.am      20 UNK        -0.5000 
    110 CA        -8.1290  -17.7957  -55.7021 C.3       20 UNK         0.1400 
    111 CB        -9.2971  -17.9368  -56.6902 C.3       20 UNK        -0.1800 
    112 C         -6.9132  -17.1444  -56.3919 C.2       20 UNK         0.5000 
    113 O         -6.8000  -15.9178  -56.3994 O.2       20 UNK        -0.5000 
    114 N         -6.0184  -17.9811  -56.9244 N.am      21 UNK        -0.5000 
    115 CA        -4.6662  -17.6328  -57.3391 C.3       21 UNK         0.1400 
    116 CB        -4.5228  -17.8282  -58.8565 C.3       21 UNK        -0.1800 
    117 C         -3.7416  -18.5780  -56.5632 C.2       21 UNK         0.5000 
    118 O         -4.0380  -19.7732  -56.4967 O.2       21 UNK        -0.5000 
    119 N         -2.6820  -18.0285  -55.9594 N.am      22 UNK        -0.5000 
    120 CA        -1.7854  -18.7408  -55.0357 C.3       22 UNK         0.1400 
    121 C         -1.0748  -19.9666  -55.6760 C.2       22 UNK         0.5000 
    122 N         -1.1499  -21.1282  -55.0433 N.am      22 UNK        -0.7600 
    123 O         -0.4321  -19.8571  -56.7179 O.2       22 UNK        -0.5000 
    124 C124       -0.7626  -17.7724  -54.3875 C.3       23 UNK        -0.0398 
    125 S125       -0.3275  -18.2430  -52.6794 S.3       23 UNK        -0.2404 
    126 C126        1.1732  -19.2393  -52.9317 C.3       23 UNK        -0.0205 
    127 H127       -3.0401  -16.0926  -49.6700 H         1 UNK         0.0600 
    128 H128       -1.5966  -16.6056  -50.5439 H         1 UNK         0.0600 
    129 H129       -2.2025  -14.9564  -50.7320 H         1 UNK         0.0600 
    130 H130        0.3886  -16.3937  -49.4837 H         1 UNK         0.3000 
    131 H131        1.0786  -14.2925  -47.7747 H         1 UNK         0.0600 
    132 H132        3.1118  -15.6555  -47.2053 H         1 UNK         0.0800 
    133 H133        2.3979  -17.0267  -48.0198 H         1 UNK         0.0800 
    134 H134        4.9122  -16.3499  -50.8258 H         1 UNK         0.0800 
    135 H135        5.0120  -16.7854  -49.1361 H         1 UNK         0.0800 
    136 H136        2.6620  -17.1627  -52.0557 H         1 UNK         0.1150 
    137 H137        1.6588  -21.2144  -51.0860 H         1 UNK         0.1150 
    138 H138        4.3811  -19.0249  -48.5996 H         1 UNK         0.1150 
    139 H139        2.7034  -22.3416  -49.2623 H         1 UNK         0.0800 
    140 H140        4.2933  -21.7431  -48.8638 H         1 UNK         0.0800 
    141 H141        0.6321  -21.0398  -48.3413 H         1 UNK         0.0800 
    142 H142        0.5085  -20.3681  -46.7384 H         1 UNK         0.0800 
    143 H143        0.6842  -23.3448  -47.4149 H         1 UNK         0.0600 
    144 H144        0.9854  -22.0879  -44.8463 H         1 UNK         0.3000 
    145 H145        0.1868  -25.0245  -42.9475 H         1 UNK         0.0600 
    146 H146        2.4999  -24.7314  -42.1158 H         1 UNK         0.0600 
    147 H147        2.5312  -25.4345  -43.7247 H         1 UNK         0.0600 
    148 H148        2.9075  -23.7289  -43.5090 H         1 UNK         0.0600 
    149 H149        1.2257  -22.5969  -42.0438 H         1 UNK         0.3000 
    150 H150       -1.3301  -20.3466  -42.3365 H         1 UNK         0.0600 
    151 H151       -1.0744  -21.9404  -39.7309 H         1 UNK         0.0600 
    152 H152       -2.5726  -21.6563  -40.6087 H         1 UNK         0.0600 
    153 H153       -1.7163  -20.3042  -39.8877 H         1 UNK         0.0600 
    154 H154        0.7332  -20.3835  -40.4142 H         1 UNK         0.3000 
    155 H155        2.5450  -18.9253  -40.8482 H         1 UNK         0.0600 
    156 H156        3.8483  -21.4433  -42.0393 H         1 UNK         0.0600 
    157 H157        3.0916  -21.3363  -40.4544 H         1 UNK         0.0600 
    158 H158        4.5525  -20.4243  -40.7846 H         1 UNK         0.0600 
    159 H159        4.3297  -19.2921  -43.0866 H         1 UNK         0.3000 
    160 H160        5.1731  -17.0901  -43.8637 H         1 UNK         0.0600 
    161 H161        2.9543  -17.8878  -45.8415 H         1 UNK         0.0600 
    162 H162        4.3482  -18.8545  -45.3959 H         1 UNK         0.0600 
    163 H163        4.5799  -17.3891  -46.3287 H         1 UNK         0.0600 
    164 H164        2.7894  -15.4383  -44.3323 H         1 UNK         0.3000 
    165 H165        4.6477  -12.5280  -44.0942 H         1 UNK         0.0600 
    166 H166        3.5513  -11.6648  -46.1389 H         1 UNK         0.0600 
    167 H167        4.8960  -12.7049  -46.5829 H         1 UNK         0.0600 
    168 H168        3.2455  -13.3006  -46.7121 H         1 UNK         0.0600 
    169 H169        1.9019  -13.4962  -44.6836 H         1 UNK         0.3000 
    170 H170        0.7523  -14.2404  -42.1937 H         1 UNK         0.0600 
    171 H171        1.0613  -12.7652  -40.2614 H         1 UNK         0.0600 
    172 H172        0.6660  -11.3404  -41.2097 H         1 UNK         0.0600 
    173 H173       -0.5689  -12.5556  -40.8789 H         1 UNK         0.0600 
    174 H174       -0.4823  -13.6853  -43.9217 H         1 UNK         0.3000 
    175 H175       -1.8275  -10.8451  -45.2854 H         1 UNK         0.0600 
    176 H176        0.2476  -10.5818  -46.6043 H         1 UNK         0.0600 
    177 H177        0.4437  -12.3239  -46.7175 H         1 UNK         0.0600 
    178 H178       -0.9092  -11.5318  -47.5252 H         1 UNK         0.0600 
    179 H179       -1.6890  -13.5565  -46.2426 H         1 UNK         0.3000 
    180 H180       -4.1953  -14.8820  -44.0839 H         1 UNK         0.0600 
    181 H181       -4.2089  -14.2578  -47.0864 H         1 UNK         0.0600 
    182 H182       -5.4619  -13.8151  -45.9352 H         1 UNK         0.0600 
    183 H183       -5.1601  -15.5094  -46.2887 H         1 UNK         0.0600 
    184 H184       -2.4978  -15.8339  -46.2556 H         1 UNK         0.3000 
    185 H185       -0.0303  -17.2676  -44.1177 H         1 UNK         0.0600 
    186 H186       -2.0071  -18.8613  -44.0964 H         1 UNK         0.0600 
    187 H187       -2.1797  -18.6188  -45.8285 H         1 UNK         0.0600 
    188 H188       -0.7172  -19.3563  -45.1702 H         1 UNK         0.0600 
    189 H189       -0.4763  -17.3453  -46.9571 H         1 UNK         0.3000 
    190 H190       -1.6301  -21.9847  -45.1238 H         1 UNK         0.3000 
    191 H191       -3.8472  -21.9621  -47.0650 H         1 UNK         0.0600 
    192 H192       -3.8700  -20.2384  -45.3223 H         1 UNK         0.0600 
    193 H193       -5.2093  -21.3391  -45.0682 H         1 UNK         0.0600 
    194 H194       -3.7837  -21.4524  -44.0465 H         1 UNK         0.0600 
    195 H195       -2.6285  -23.9363  -44.3327 H         1 UNK         0.3000 
    196 H196       -4.6685  -25.8951  -44.3187 H         1 UNK         0.0600 
    197 H197       -3.0530  -27.2331  -43.0215 H         1 UNK         0.0600 
    198 H198       -2.9710  -25.5565  -42.4983 H         1 UNK         0.0600 
    199 H199       -1.7210  -26.2183  -43.5519 H         1 UNK         0.0600 
    200 H200       -1.6490  -25.7132  -46.2211 H         1 UNK         0.3000 
    201 H201       -2.0164  -28.1835  -47.6612 H         1 UNK         0.0600 
    202 H202       -0.1527  -27.2651  -49.0514 H         1 UNK         0.0600 
    203 H203        0.2030  -27.0965  -47.3408 H         1 UNK         0.0600 
    204 H204       -0.3259  -25.6963  -48.2727 H         1 UNK         0.0600 
    205 H205       -3.7668  -25.3229  -47.8227 H         1 UNK         0.3000 
    206 H206       -5.2507  -24.4043  -49.1055 H         1 UNK         0.0600 
    207 H207       -6.1393  -26.7258  -49.4114 H         1 UNK         0.0600 
    208 H208       -6.4933  -25.6846  -50.7794 H         1 UNK         0.0600 
    209 H209       -5.2101  -26.8773  -50.9034 H         1 UNK         0.0600 
    210 H210       -2.2610  -24.2437  -49.8286 H         1 UNK         0.3000 
    211 H211       -2.1881  -23.5456  -52.6479 H         1 UNK         0.0600 
    212 H212       -0.1561  -23.0460  -50.4023 H         1 UNK         0.0600 
    213 H213        0.1316  -22.8421  -52.1266 H         1 UNK         0.0600 
    214 H214       -0.1837  -24.4427  -51.4760 H         1 UNK         0.0600 
    215 H215       -2.1563  -21.7543  -49.5427 H         1 UNK         0.3000 
    216 H216       -2.4188  -19.1393  -50.8697 H         1 UNK         0.0600 
    217 H217       -2.3720  -18.2946  -48.5113 H         1 UNK         0.0600 
    218 H218       -1.0048  -19.3374  -48.8616 H         1 UNK         0.0600 
    219 H219       -2.3697  -19.9448  -47.9168 H         1 UNK         0.0600 
    220 H220       -4.5857  -21.5791  -49.8041 H         1 UNK         0.3000 
    221 H221       -6.8330  -19.8391  -49.1470 H         1 UNK         0.0600 
    222 H222       -6.8124  -22.8460  -49.7149 H         1 UNK         0.0600 
    223 H223       -6.4762  -22.1392  -48.1297 H         1 UNK         0.0600 
    224 H224       -8.0540  -21.9351  -48.8747 H         1 UNK         0.0600 
    225 H225       -5.4864  -21.1772  -52.0630 H         1 UNK         0.3000 
    226 H226       -7.8528  -21.2588  -53.6890 H         1 UNK         0.0600 
    227 H227       -6.1427  -21.5173  -55.5275 H         1 UNK         0.0600 
    228 H228       -4.8636  -21.1697  -54.3688 H         1 UNK         0.0600 
    229 H229       -5.8487  -22.6178  -54.1897 H         1 UNK         0.0600 
    230 H230       -8.3433  -19.8925  -55.4967 H         1 UNK         0.3000 
    231 H231       -8.4428  -17.1279  -54.8971 H         1 UNK         0.0600 
    232 H232       -9.0539  -18.6180  -57.5066 H         1 UNK         0.0600 
    233 H233       -9.5531  -16.9730  -57.1324 H         1 UNK         0.0600 
    234 H234      -10.1920  -18.3121  -56.1933 H         1 UNK         0.0600 
    235 H235       -6.1719  -18.9746  -56.8129 H         1 UNK         0.3000 
    236 H236       -4.4302  -16.5979  -57.0821 H         1 UNK         0.0600 
    237 H237       -5.2088  -17.1797  -59.4017 H         1 UNK         0.0600 
    238 H238       -3.5118  -17.5859  -59.1858 H         1 UNK         0.0600 
    239 H239       -4.7286  -18.8576  -59.1531 H         1 UNK         0.0600 
    240 H240       -2.4970  -17.0455  -56.0926 H         1 UNK         0.3000 
    241 H241       -2.4445  -19.1059  -54.2461 H         1 UNK         0.0600 
    242 H242       -1.6956  -21.2004  -54.1873 H         1 UNK         0.3800 
    243 H243       -0.7005  -21.9408  -55.4327 H         1 UNK         0.3800 
    244 H244        0.1334  -17.6521  -54.9990 H         1 UNK         0.0800 
    245 H245       -1.1932  -16.7730  -54.3113 H         1 UNK         0.0800 
    246 H246        0.8889  -20.2653  -53.1693 H         1 UNK         0.0800 
    247 H247        1.7362  -18.8659  -53.7880 H         1 UNK         0.0800 
@<TRIPOS>BOND
     1    1    2 1    
     2    1  127 1    
     3    1  128 1    
     4    1  129 1    
     5    2    3 2    
     6    2    4 am   BACKBONE|DICT|INTERRES
     7    4    5 1    
     8    4  130 1    
     9    5    6 1    
    10    5   65 1    
    11    5  131 1    
    12    6    7 1    
    13    6  132 1    
    14    6  133 1    
    15    7    8 1    
    16    8    9 1    
    17    8  134 1    
    18    8  135 1    
    19    9   10 ar   
    20    9   14 ar   
    21   10   11 ar   
    22   10  136 1    
    23   11   12 ar   
    24   11  126 1    
    25   12   13 ar   
    26   12  137 1    
    27   13   14 ar   
    28   13   15 1    
    29   14  138 1    
    30   15   16 1    
    31   15  139 1    
    32   15  140 1    
    33   16   17 1    
    34   17   18 1    
    35   17  141 1    
    36   17  142 1    
    37   18   19 1    
    38   18   67 1    
    39   18  143 1    
    40   19   20 am   BACKBONE|DICT|INTERRES
    41   19  144 1    
    42   20   21 2    
    43   20   22 1    
    44   22   23 1    
    45   22   24 1    
    46   22  145 1    
    47   23  146 1    
    48   23  147 1    
    49   23  148 1    
    50   24   25 am   BACKBONE|DICT|INTERRES
    51   24  149 1    
    52   25   26 2    
    53   25   27 1    
    54   27   28 1    
    55   27   29 1    
    56   27  150 1    
    57   28  151 1    
    58   28  152 1    
    59   28  153 1    
    60   29   30 am   BACKBONE|DICT|INTERRES
    61   29  154 1    
    62   30   31 2    
    63   30   32 1    
    64   32   33 1    
    65   32   34 1    
    66   32  155 1    
    67   33  156 1    
    68   33  157 1    
    69   33  158 1    
    70   34   35 am   BACKBONE|DICT|INTERRES
    71   34  159 1    
    72   35   36 2    
    73   35   37 1    
    74   37   38 1    
    75   37   39 1    
    76   37  160 1    
    77   38  161 1    
    78   38  162 1    
    79   38  163 1    
    80   39   40 am   BACKBONE|DICT|INTERRES
    81   39  164 1    
    82   40   41 2    
    83   40   42 1    
    84   42   43 1    
    85   42   44 1    
    86   42  165 1    
    87   43  166 1    
    88   43  167 1    
    89   43  168 1    
    90   44   45 am   BACKBONE|DICT|INTERRES
    91   44  169 1    
    92   45   46 2    
    93   45   47 1    
    94   47   48 1    
    95   47   49 1    
    96   47  170 1    
    97   48  171 1    
    98   48  172 1    
    99   48  173 1    
   100   49   50 am   BACKBONE|DICT|INTERRES
   101   49  174 1    
   102   50   51 2    
   103   50   52 1    
   104   52   53 1    
   105   52   54 1    
   106   52  175 1    
   107   53  176 1    
   108   53  177 1    
   109   53  178 1    
   110   54   55 am   BACKBONE|DICT|INTERRES
   111   54  179 1    
   112   55   56 2    
   113   55   57 1    
   114   57   58 1    
   115   57   59 1    
   116   57  180 1    
   117   58  181 1    
   118   58  182 1    
   119   58  183 1    
   120   59   60 am   BACKBONE|DICT|INTERRES
   121   59  184 1    
   122   60   61 2    
   123   60   62 1    
   124   62   63 1    
   125   62   64 1    
   126   62  185 1    
   127   63  186 1    
   128   63  187 1    
   129   63  188 1    
   130   64   65 am   BACKBONE|DICT|INTERRES
   131   64  189 1    
   132   65   66 2    
   133   67   68 2    
   134   67   69 am   BACKBONE|DICT|INTERRES
   135   69   70 1    
   136   69  190 1    
   137   70   71 1    
   138   70   72 1    
   139   70  191 1    
   140   71  192 1    
   141   71  193 1    
   142   71  194 1    
   143   72   73 2    
   144   72   74 am   BACKBONE|DICT|INTERRES
   145   74   75 1    
   146   74  195 1    
   147   75   76 1    
   148   75   77 1    
   149   75  196 1    
   150   76  197 1    
   151   76  198 1    
   152   76  199 1    
   153   77   78 2    
   154   77   79 am   BACKBONE|DICT|INTERRES
   155   79   80 1    
   156   79  200 1    
   157   80   81 1    
   158   80   82 1    
   159   80  201 1    
   160   81  202 1    
   161   81  203 1    
   162   81  204 1    
   163   82   83 2    
   164   82   84 am   BACKBONE|DICT|INTERRES
   165   84   85 1    
   166   84  205 1    
   167   85   86 1    
   168   85   87 1    
   169   85  206 1    
   170   86  207 1    
   171   86  208 1    
   172   86  209 1    
   173   87   88 2    
   174   87   89 am   BACKBONE|DICT|INTERRES
   175   89   90 1    
   176   89  210 1    
   177   90   91 1    
   178   90   92 1    
   179   90  211 1    
   180   91  212 1    
   181   91  213 1    
   182   91  214 1    
   183   92   93 2    
   184   92   94 am   BACKBONE|DICT|INTERRES
   185   94   95 1    
   186   94  215 1    
   187   95   96 1    
   188   95   97 1    
   189   95  216 1    
   190   96  217 1    
   191   96  218 1    
   192   96  219 1    
   193   97   98 2    
   194   97   99 am   BACKBONE|DICT|INTERRES
   195   99  100 1    
   196   99  220 1    
   197  100  101 1    
   198  100  102 1    
   199  100  221 1    
   200  101  222 1    
   201  101  223 1    
   202  101  224 1    
   203  102  103 2    
   204  102  104 am   BACKBONE|DICT|INTERRES
   205  104  105 1    
   206  104  225 1    
   207  105  106 1    
   208  105  107 1    
   209  105  226 1    
   210  106  227 1    
   211  106  228 1    
   212  106  229 1    
   213  107  108 2    
   214  107  109 am   BACKBONE|DICT|INTERRES
   215  109  110 1    
   216  109  230 1    
   217  110  111 1    
   218  110  112 1    
   219  110  231 1    
   220  111  232 1    
   221  111  233 1    
   222  111  234 1    
   223  112  113 2    
   224  112  114 am   BACKBONE|DICT|INTERRES
   225  114  115 1    
   226  114  235 1    
   227  115  116 1    
   228  115  117 1    
   229  115  236 1    
   230  116  237 1    
   231  116  238 1    
   232  116  239 1    
   233  117  118 2    
   234  117  119 am   BACKBONE|DICT|INTERRES
   235  119  120 1    
   236  119  240 1    
   237  120  121 1    
   238  120  124 1    
   239  120  241 1    
   240  121  122 am   BACKBONE|DICT|INTERRES
   241  121  123 2    
   242  122  242 1    
   243  122  243 1    
   244  124  125 1    
   245  124  244 1    
   246  124  245 1    
   247  125  126 1    
   248  126  246 1    
   249  126  247 1    
@<TRIPOS>SUBSTRUCTURE
     1 UNK         1 GROUP             0       ****    0 ROOT    
