@<TRIPOS>MOLECULE
3R540
247   249    1
SMALL
USER_CHARGES


@<TRIPOS>ATOM
      1 CA          0.6331  -13.4162  -49.2447 C.3       0 UNK        -0.1800 
      2 C           2.0858  -12.9790  -49.1233 C.2       0 UNK         0.5000 
      3 O           2.3643  -11.8991  -48.6029 O.2       0 UNK        -0.5000 
      4 N           3.0120  -13.8220  -49.5978 N.am      1 UNK        -0.5000 
      5 CA          4.4644  -13.5890  -49.5550 C.3       1 UNK         0.1400 
      6 C6          5.2324  -14.4688  -50.5748 C.3       23 UNK        -0.0398 
      7 S7          4.6523  -14.2711  -52.2944 S.3       23 UNK        -0.2404 
      8 C8          3.9999  -15.9338  -52.6526 C.3       23 UNK        -0.0205 
      9 C9          2.6616  -16.1805  -51.9727 C.ar      23 UNK        -0.0193 
     10 C10         1.4898  -15.6845  -52.5492 C.ar      23 UNK        -0.1150 
     11 C11         0.2475  -15.9261  -51.9570 C.ar      23 UNK        -0.0193 
     12 C12         0.1828  -16.6626  -50.7702 C.ar      23 UNK        -0.1150 
     13 C13         1.3502  -17.1441  -50.1696 C.ar      23 UNK        -0.0193 
     14 C14         2.5867  -16.9065  -50.7793 C.ar      23 UNK        -0.1150 
     15 C15         1.2806  -17.8828  -48.8422 C.3       23 UNK        -0.0205 
     16 S16         1.5832  -19.6686  -49.0262 S.3       23 UNK        -0.2404 
     17 C17         1.5346  -20.1794  -47.2687 C.3       23 UNK        -0.0398 
     18 CA          0.6804  -21.4208  -46.8769 C.3       11 UNK         0.1400 
     19 N           0.3253  -21.3713  -45.4549 N.am      11 UNK        -0.5000 
     20 C          -0.2193  -22.3679  -44.7450 C.2       10 UNK         0.5000 
     21 O          -0.4289  -23.4930  -45.1956 O.2       10 UNK        -0.5000 
     22 CA         -0.6499  -22.0324  -43.3039 C.3       10 UNK         0.1400 
     23 CB          0.5440  -22.1100  -42.3410 C.3       10 UNK        -0.1800 
     24 N          -1.2882  -20.7170  -43.2012 N.am      10 UNK        -0.5000 
     25 C          -2.4489  -20.3964  -43.7920 C.2       9 UNK         0.5000 
     26 O          -3.1291  -21.1974  -44.4304 O.2       9 UNK        -0.5000 
     27 CA         -2.9076  -18.9300  -43.7033 C.3       9 UNK         0.1400 
     28 CB         -3.6156  -18.6566  -42.3681 C.3       9 UNK        -0.1800 
     29 N          -1.8092  -17.9816  -43.8890 N.am      9 UNK        -0.5000 
     30 C          -1.0925  -17.8536  -45.0153 C.2       8 UNK         0.5000 
     31 O          -1.3117  -18.4941  -46.0429 O.2       8 UNK        -0.5000 
     32 CA          0.1095  -16.8922  -44.9660 C.3       8 UNK         0.1400 
     33 CB         -0.3463  -15.4349  -45.1411 C.3       8 UNK        -0.1800 
     34 N           0.8821  -17.0374  -43.7299 N.am      8 UNK        -0.5000 
     35 C           1.5329  -18.1540  -43.3686 C.2       7 UNK         0.5000 
     36 O           1.6104  -19.1555  -44.0792 O.2       7 UNK        -0.5000 
     37 CA          2.1458  -18.1841  -41.9567 C.3       7 UNK         0.1400 
     38 CB          3.5460  -17.5546  -41.9256 C.3       7 UNK        -0.1800 
     39 N           1.2878  -17.5206  -40.9773 N.am      7 UNK        -0.5000 
     40 C           0.1236  -18.0179  -40.5375 C.2       6 UNK         0.5000 
     41 O          -0.3245  -19.1122  -40.8791 O.2       6 UNK        -0.5000 
     42 CA         -0.6933  -17.1172  -39.5928 C.3       6 UNK         0.1400 
     43 CB         -0.2056  -17.2680  -38.1439 C.3       6 UNK        -0.1800 
     44 N          -0.6351  -15.7062  -39.9816 N.am      6 UNK        -0.5000 
     45 C          -1.1716  -15.2112  -41.1065 C.2       5 UNK         0.5000 
     46 O          -1.8135  -15.8870  -41.9087 O.2       5 UNK        -0.5000 
     47 CA         -0.9048  -13.7254  -41.4112 C.3       5 UNK         0.1400 
     48 CB         -1.9755  -12.8402  -40.7560 C.3       5 UNK        -0.1800 
     49 N           0.4248  -13.2776  -40.9867 N.am      5 UNK        -0.5000 
     50 C           1.5796  -13.7400  -41.4831 C.2       4 UNK         0.5000 
     51 O           1.6557  -14.6172  -42.3472 O.2       4 UNK        -0.5000 
     52 CA          2.8600  -13.1640  -40.8693 C.3       4 UNK         0.1400 
     53 CB          3.2119  -13.8979  -39.5631 C.3       4 UNK        -0.1800 
     54 N           3.9603  -13.3079  -41.8167 N.am      4 UNK        -0.5000 
     55 C           4.9893  -12.4609  -41.9329 C.2       3 UNK         0.5000 
     56 O           5.1163  -11.4516  -41.2374 O.2       3 UNK        -0.5000 
     57 CA          6.0776  -12.7866  -42.9767 C.3       3 UNK         0.1400 
     58 CB          7.3774  -13.2136  -42.2749 C.3       3 UNK        -0.1800 
     59 N           5.7108  -13.8269  -43.9414 N.am      3 UNK        -0.5000 
     60 C           4.8761  -13.6576  -44.9739 C.2       2 UNK         0.5000 
     61 O           4.2370  -12.6231  -45.1776 O.2       2 UNK        -0.5000 
     62 CA          4.7272  -14.8697  -45.9150 C.3       2 UNK         0.1400 
     63 CB          3.7043  -15.8663  -45.3552 C.3       2 UNK        -0.1800 
     64 N           4.3193  -14.5004  -47.2691 N.am      2 UNK        -0.5000 
     65 C           5.0610  -13.8076  -48.1451 C.2       1 UNK         0.5000 
     66 O           6.1921  -13.3855  -47.8962 O.2       1 UNK        -0.5000 
     67 C          -0.5652  -21.6767  -47.7592 C.2       11 UNK         0.5000 
     68 O          -0.5217  -22.5484  -48.6284 O.2       11 UNK        -0.5000 
     69 N          -1.6693  -20.9669  -47.4829 N.am      12 UNK        -0.5000 
     70 CA         -2.9624  -21.1704  -48.1379 C.3       12 UNK         0.1400 
     71 CB         -3.9363  -20.0536  -47.7362 C.3       12 UNK        -0.1800 
     72 C          -3.5637  -22.5583  -47.8478 C.2       12 UNK         0.5000 
     73 O          -4.0475  -23.2100  -48.7731 O.2       12 UNK        -0.5000 
     74 N          -3.4936  -23.0097  -46.5875 N.am      13 UNK        -0.5000 
     75 CA         -3.9354  -24.3362  -46.1493 C.3       13 UNK         0.1400 
     76 CB         -3.8565  -24.4380  -44.6193 C.3       13 UNK        -0.1800 
     77 C          -3.1491  -25.4788  -46.8177 C.2       13 UNK         0.5000 
     78 O          -3.7589  -26.4572  -47.2500 O.2       13 UNK        -0.5000 
     79 N          -1.8256  -25.3083  -46.9524 N.am      14 UNK        -0.5000 
     80 CA         -0.9306  -26.2136  -47.6807 C.3       14 UNK         0.1400 
     81 CB          0.5279  -25.7982  -47.4362 C.3       14 UNK        -0.1800 
     82 C          -1.2331  -26.2849  -49.1920 C.2       14 UNK         0.5000 
     83 O          -0.9977  -27.3240  -49.8086 O.2       14 UNK        -0.5000 
     84 N          -1.8024  -25.2064  -49.7466 N.am      15 UNK        -0.5000 
     85 CA         -2.3333  -25.1170  -51.1080 C.3       15 UNK         0.1400 
     86 CB         -2.1463  -23.6772  -51.6211 C.3       15 UNK        -0.1800 
     87 C          -3.8062  -25.5804  -51.2012 C.2       15 UNK         0.5000 
     88 O          -4.5075  -25.1775  -52.1296 O.2       15 UNK        -0.5000 
     89 N          -4.2570  -26.4037  -50.2410 N.am      16 UNK        -0.5000 
     90 CA         -5.5899  -27.0050  -50.1237 C.3       16 UNK         0.1400 
     91 CB         -5.8376  -28.0122  -51.2658 C.3       16 UNK        -0.1800 
     92 C          -6.7067  -25.9522  -49.9784 C.2       16 UNK         0.5000 
     93 O          -7.7357  -26.0397  -50.6495 O.2       16 UNK        -0.5000 
     94 N          -6.4580  -24.9673  -49.1030 N.am      17 UNK        -0.5000 
     95 CA         -7.2727  -23.7723  -48.8539 C.3       17 UNK         0.1400 
     96 CB         -8.6652  -24.1385  -48.2983 C.3       17 UNK        -0.1800 
     97 C          -7.3183  -22.8540  -50.0923 C.2       17 UNK         0.5000 
     98 O          -8.3869  -22.3781  -50.4800 O.2       17 UNK        -0.5000 
     99 N          -6.1322  -22.6399  -50.6810 N.am      18 UNK        -0.5000 
    100 CA        -5.8499  -21.8533  -51.8831 C.3       18 UNK         0.1400 
    101 CB        -6.0285  -20.3498  -51.5937 C.3       18 UNK        -0.1800 
    102 C         -6.6439  -22.3334  -53.1165 C.2       18 UNK         0.5000 
    103 O         -7.2899  -21.5299  -53.7931 O.2       18 UNK        -0.5000 
    104 N         -6.5877  -23.6456  -53.3829 N.am      19 UNK        -0.5000 
    105 CA        -7.2516  -24.3087  -54.5045 C.3       19 UNK         0.1400 
    106 CB        -7.1324  -25.8318  -54.3366 C.3       19 UNK        -0.1800 
    107 C         -6.6669  -23.8388  -55.8492 C.2       19 UNK         0.5000 
    108 O         -5.5742  -24.2689  -56.2244 O.2       19 UNK        -0.5000 
    109 N         -7.3938  -22.9297  -56.5159 N.am      20 UNK        -0.5000 
    110 CA        -7.0122  -22.2159  -57.7406 C.3       20 UNK         0.1400 
    111 CB        -6.9363  -23.1843  -58.9404 C.3       20 UNK        -0.1800 
    112 C         -5.7344  -21.3634  -57.5649 C.2       20 UNK         0.5000 
    113 O         -4.9304  -21.2558  -58.4932 O.2       20 UNK        -0.5000 
    114 N         -5.5709  -20.7774  -56.3724 N.am      21 UNK        -0.5000 
    115 CA        -4.4370  -19.9427  -55.9859 C.3       21 UNK         0.1400 
    116 CB        -3.5235  -20.7529  -55.0488 C.3       21 UNK        -0.1800 
    117 C         -4.9348  -18.6569  -55.3060 C.2       21 UNK         0.5000 
    118 O         -6.1260  -18.5236  -55.0135 O.2       21 UNK        -0.5000 
    119 N         -4.0033  -17.7271  -55.0769 N.am      22 UNK        -0.5000 
    120 CA        -4.2157  -16.4715  -54.3442 C.3       22 UNK         0.1400 
    121 C         -4.5274  -16.6796  -52.8333 C.2       22 UNK         0.5000 
    122 N         -5.3129  -15.7961  -52.2311 N.am      22 UNK        -0.7600 
    123 O         -4.0334  -17.6042  -52.1926 O.2       22 UNK        -0.5000 
    124 C124       -3.0287  -15.4946  -54.5571 C.3       23 UNK        -0.0398 
    125 S125       -1.3921  -16.2103  -54.1627 S.3       23 UNK        -0.2404 
    126 C126       -1.0182  -15.3727  -52.5920 C.3       23 UNK        -0.0205 
    127 H127       -0.0154  -12.7752  -48.6489 H         1 UNK         0.0600 
    128 H128        0.5069  -14.4393  -48.8925 H         1 UNK         0.0600 
    129 H129        0.3062  -13.3616  -50.2822 H         1 UNK         0.0600 
    130 H130        2.7191  -14.6715  -50.0623 H         1 UNK         0.3000 
    131 H131        4.6443  -12.5437  -49.8175 H         1 UNK         0.0600 
    132 H132        6.2935  -14.2113  -50.5671 H         1 UNK         0.0800 
    133 H133        5.1833  -15.5207  -50.2883 H         1 UNK         0.0800 
    134 H134        4.7293  -16.6918  -52.3618 H         1 UNK         0.0800 
    135 H135        3.8781  -16.0347  -53.7323 H         1 UNK         0.0800 
    136 H136        1.5427  -15.1159  -53.4674 H         1 UNK         0.1150 
    137 H137       -0.7758  -16.8461  -50.3046 H         1 UNK         0.1150 
    138 H138        3.4882  -17.2905  -50.3224 H         1 UNK         0.1150 
    139 H139        0.3059  -17.7333  -48.3734 H         1 UNK         0.0800 
    140 H140        2.0204  -17.4598  -48.1608 H         1 UNK         0.0800 
    141 H141        1.1833  -19.3206  -46.6980 H         1 UNK         0.0800 
    142 H142        2.5625  -20.3326  -46.9354 H         1 UNK         0.0800 
    143 H143        1.3203  -22.2963  -47.0086 H         1 UNK         0.0600 
    144 H144        0.5162  -20.4958  -44.9767 H         1 UNK         0.3000 
    145 H145       -1.3811  -22.7811  -42.9924 H         1 UNK         0.0600 
    146 H146        0.2334  -21.9245  -41.3125 H         1 UNK         0.0600 
    147 H147        1.0031  -23.0991  -42.3693 H         1 UNK         0.0600 
    148 H148        1.3162  -21.3835  -42.5935 H         1 UNK         0.0600 
    149 H149       -0.8153  -20.0193  -42.6364 H         1 UNK         0.3000 
    150 H150       -3.6280  -18.7606  -44.5063 H         1 UNK         0.0600 
    151 H151       -4.4535  -19.3399  -42.2233 H         1 UNK         0.0600 
    152 H152       -4.0138  -17.6421  -42.3344 H         1 UNK         0.0600 
    153 H153       -2.9416  -18.7793  -41.5204 H         1 UNK         0.0600 
    154 H154       -1.6045  -17.3662  -43.1066 H         1 UNK         0.3000 
    155 H155        0.7719  -17.1367  -45.7982 H         1 UNK         0.0600 
    156 H156       -1.0656  -15.1415  -44.3771 H         1 UNK         0.0600 
    157 H157       -0.8265  -15.2946  -46.1103 H         1 UNK         0.0600 
    158 H158        0.4924  -14.7408  -45.0912 H         1 UNK         0.0600 
    159 H159        0.9248  -16.2288  -43.1166 H         1 UNK         0.3000 
    160 H160        2.2477  -19.2322  -41.6667 H         1 UNK         0.0600 
    161 H161        3.5170  -16.4854  -42.1329 H         1 UNK         0.0600 
    162 H162        4.2008  -18.0210  -42.6634 H         1 UNK         0.0600 
    163 H163        4.0126  -17.6891  -40.9493 H         1 UNK         0.0600 
    164 H164        1.5600  -16.5938  -40.6876 H         1 UNK         0.3000 
    165 H165       -1.7353  -17.4420  -39.6390 H         1 UNK         0.0600 
    166 H166       -0.8248  -16.6896  -37.4578 H         1 UNK         0.0600 
    167 H167       -0.2530  -18.3098  -37.8230 H         1 UNK         0.0600 
    168 H168        0.8268  -16.9351  -38.0276 H         1 UNK         0.0600 
    169 H169       -0.1291  -15.0815  -39.3716 H         1 UNK         0.3000 
    170 H170       -0.9705  -13.5930  -42.4929 H         1 UNK         0.0600 
    171 H171       -2.9761  -13.1394  -41.0720 H         1 UNK         0.0600 
    172 H172       -1.9420  -12.9045  -39.6676 H         1 UNK         0.0600 
    173 H173       -1.8477  -11.7940  -41.0357 H         1 UNK         0.0600 
    174 H174        0.4496  -12.5646  -40.2718 H         1 UNK         0.3000 
    175 H175        2.6865  -12.1062  -40.6596 H         1 UNK         0.0600 
    176 H176        3.3947  -14.9596  -39.7348 H         1 UNK         0.0600 
    177 H177        4.1067  -13.4764  -39.1041 H         1 UNK         0.0600 
    178 H178        2.4057  -13.8153  -38.8331 H         1 UNK         0.0600 
    179 H179        3.8692  -14.0775  -42.4658 H         1 UNK         0.3000 
    180 H180        6.2783  -11.8655  -43.5281 H         1 UNK         0.0600 
    181 H181        7.2444  -14.1372  -41.7100 H         1 UNK         0.0600 
    182 H182        7.7165  -12.4480  -41.5757 H         1 UNK         0.0600 
    183 H183        8.1817  -13.3709  -42.9939 H         1 UNK         0.0600 
    184 H184        6.1809  -14.7142  -43.8337 H         1 UNK         0.3000 
    185 H185        5.6954  -15.3708  -45.9885 H         1 UNK         0.0600 
    186 H186        4.0422  -16.2668  -44.4006 H         1 UNK         0.0600 
    187 H187        2.7369  -15.3916  -45.1901 H         1 UNK         0.0600 
    188 H188        3.5582  -16.7140  -46.0255 H         1 UNK         0.0600 
    189 H189        3.3877  -14.7656  -47.5496 H         1 UNK         0.3000 
    190 H190       -1.6157  -20.2253  -46.7896 H         1 UNK         0.3000 
    191 H191       -2.8013  -21.1012  -49.2158 H         1 UNK         0.0600 
    192 H192       -4.1268  -20.0485  -46.6632 H         1 UNK         0.0600 
    193 H193       -4.8966  -20.1739  -48.2394 H         1 UNK         0.0600 
    194 H194       -3.5448  -19.0736  -48.0106 H         1 UNK         0.0600 
    195 H195       -3.1396  -22.3875  -45.8645 H         1 UNK         0.3000 
    196 H196       -4.9831  -24.4441  -46.4364 H         1 UNK         0.0600 
    197 H197       -4.2201  -25.4064  -44.2735 H         1 UNK         0.0600 
    198 H198       -4.4674  -23.6719  -44.1413 H         1 UNK         0.0600 
    199 H199       -2.8345  -24.3243  -44.2591 H         1 UNK         0.0600 
    200 H200       -1.3920  -24.4991  -46.5149 H         1 UNK         0.3000 
    201 H201       -1.0702  -27.2166  -47.2720 H         1 UNK         0.0600 
    202 H202        0.7709  -25.8201  -46.3736 H         1 UNK         0.0600 
    203 H203        0.7270  -24.7914  -47.8038 H         1 UNK         0.0600 
    204 H204        1.2179  -26.4750  -47.9418 H         1 UNK         0.0600 
    205 H205       -1.9456  -24.3910  -49.1637 H         1 UNK         0.3000 
    206 H206       -1.7562  -25.7758  -51.7597 H         1 UNK         0.0600 
    207 H207       -1.1005  -23.3741  -51.5655 H         1 UNK         0.0600 
    208 H208       -2.4542  -23.5845  -52.6636 H         1 UNK         0.0600 
    209 H209       -2.7286  -22.9616  -51.0416 H         1 UNK         0.0600 
    210 H210       -3.6270  -26.6220  -49.4800 H         1 UNK         0.3000 
    211 H211       -5.5878  -27.5689  -49.1898 H         1 UNK         0.0600 
    212 H212       -5.8631  -27.5249  -52.2398 H         1 UNK         0.0600 
    213 H213       -6.7888  -28.5291  -51.1333 H         1 UNK         0.0600 
    214 H214       -5.0574  -28.7728  -51.2940 H         1 UNK         0.0600 
    215 H215       -5.5447  -24.9604  -48.6680 H         1 UNK         0.3000 
    216 H216       -6.7561  -23.2072  -48.0769 H         1 UNK         0.0600 
    217 H217       -9.2039  -23.2438  -47.9844 H         1 UNK         0.0600 
    218 H218       -8.5834  -24.7899  -47.4282 H         1 UNK         0.0600 
    219 H219       -9.2834  -24.6443  -49.0402 H         1 UNK         0.0600 
    220 H220       -5.3229  -23.0660  -50.2390 H         1 UNK         0.3000 
    221 H221       -4.7975  -22.0215  -52.1133 H         1 UNK         0.0600 
    222 H222       -7.0607  -20.1032  -51.3432 H         1 UNK         0.0600 
    223 H223       -5.3943  -20.0281  -50.7677 H         1 UNK         0.0600 
    224 H224       -5.7530  -19.7511  -52.4619 H         1 UNK         0.0600 
    225 H225       -5.9736  -24.2299  -52.8192 H         1 UNK         0.3000 
    226 H226       -8.3127  -24.0526  -54.4705 H         1 UNK         0.0600 
    227 H227       -7.6175  -26.1642  -53.4190 H         1 UNK         0.0600 
    228 H228       -7.6105  -26.3553  -55.1655 H         1 UNK         0.0600 
    229 H229       -6.0905  -26.1531  -54.3009 H         1 UNK         0.0600 
    230 H230       -8.2508  -22.6106  -56.0842 H         1 UNK         0.3000 
    231 H231       -7.8175  -21.5083  -57.9431 H         1 UNK         0.0600 
    232 H232       -7.8552  -23.7621  -59.0395 H         1 UNK         0.0600 
    233 H233       -6.1072  -23.8860  -58.8446 H         1 UNK         0.0600 
    234 H234       -6.7954  -22.6389  -59.8743 H         1 UNK         0.0600 
    235 H235       -6.2993  -20.8659  -55.6716 H         1 UNK         0.3000 
    236 H236       -3.8662  -19.6446  -56.8679 H         1 UNK         0.0600 
    237 H237       -2.6233  -20.1938  -54.7908 H         1 UNK         0.0600 
    238 H238       -4.0289  -21.0052  -54.1178 H         1 UNK         0.0600 
    239 H239       -3.2032  -21.6839  -55.5176 H         1 UNK         0.0600 
    240 H240       -3.0416  -17.9249  -55.3129 H         1 UNK         0.3000 
    241 H241       -5.0983  -16.0033  -54.7848 H         1 UNK         0.0600 
    242 H242       -5.5116  -15.9124  -51.2497 H         1 UNK         0.3800 
    243 H243       -5.7291  -15.0251  -52.7305 H         1 UNK         0.3800 
    244 H244       -3.0034  -15.1906  -55.6045 H         1 UNK         0.0800 
    245 H245       -3.1797  -14.5710  -53.9952 H         1 UNK         0.0800 
    246 H246       -1.8646  -15.4827  -51.9116 H         1 UNK         0.0800 
    247 H247       -0.8971  -14.3028  -52.7693 H         1 UNK         0.0800 
@<TRIPOS>BOND
     1    1    2 1    
     2    1  127 1    
     3    1  128 1    
     4    1  129 1    
     5    2    3 2    
     6    2    4 am   BACKBONE|DICT|INTERRES
     7    4    5 1    
     8    4  130 1    
     9    5    6 1    
    10    5   65 1    
    11    5  131 1    
    12    6    7 1    
    13    6  132 1    
    14    6  133 1    
    15    7    8 1    
    16    8    9 1    
    17    8  134 1    
    18    8  135 1    
    19    9   10 ar   
    20    9   14 ar   
    21   10   11 ar   
    22   10  136 1    
    23   11   12 ar   
    24   11  126 1    
    25   12   13 ar   
    26   12  137 1    
    27   13   14 ar   
    28   13   15 1    
    29   14  138 1    
    30   15   16 1    
    31   15  139 1    
    32   15  140 1    
    33   16   17 1    
    34   17   18 1    
    35   17  141 1    
    36   17  142 1    
    37   18   19 1    
    38   18   67 1    
    39   18  143 1    
    40   19   20 am   BACKBONE|DICT|INTERRES
    41   19  144 1    
    42   20   21 2    
    43   20   22 1    
    44   22   23 1    
    45   22   24 1    
    46   22  145 1    
    47   23  146 1    
    48   23  147 1    
    49   23  148 1    
    50   24   25 am   BACKBONE|DICT|INTERRES
    51   24  149 1    
    52   25   26 2    
    53   25   27 1    
    54   27   28 1    
    55   27   29 1    
    56   27  150 1    
    57   28  151 1    
    58   28  152 1    
    59   28  153 1    
    60   29   30 am   BACKBONE|DICT|INTERRES
    61   29  154 1    
    62   30   31 2    
    63   30   32 1    
    64   32   33 1    
    65   32   34 1    
    66   32  155 1    
    67   33  156 1    
    68   33  157 1    
    69   33  158 1    
    70   34   35 am   BACKBONE|DICT|INTERRES
    71   34  159 1    
    72   35   36 2    
    73   35   37 1    
    74   37   38 1    
    75   37   39 1    
    76   37  160 1    
    77   38  161 1    
    78   38  162 1    
    79   38  163 1    
    80   39   40 am   BACKBONE|DICT|INTERRES
    81   39  164 1    
    82   40   41 2    
    83   40   42 1    
    84   42   43 1    
    85   42   44 1    
    86   42  165 1    
    87   43  166 1    
    88   43  167 1    
    89   43  168 1    
    90   44   45 am   BACKBONE|DICT|INTERRES
    91   44  169 1    
    92   45   46 2    
    93   45   47 1    
    94   47   48 1    
    95   47   49 1    
    96   47  170 1    
    97   48  171 1    
    98   48  172 1    
    99   48  173 1    
   100   49   50 am   BACKBONE|DICT|INTERRES
   101   49  174 1    
   102   50   51 2    
   103   50   52 1    
   104   52   53 1    
   105   52   54 1    
   106   52  175 1    
   107   53  176 1    
   108   53  177 1    
   109   53  178 1    
   110   54   55 am   BACKBONE|DICT|INTERRES
   111   54  179 1    
   112   55   56 2    
   113   55   57 1    
   114   57   58 1    
   115   57   59 1    
   116   57  180 1    
   117   58  181 1    
   118   58  182 1    
   119   58  183 1    
   120   59   60 am   BACKBONE|DICT|INTERRES
   121   59  184 1    
   122   60   61 2    
   123   60   62 1    
   124   62   63 1    
   125   62   64 1    
   126   62  185 1    
   127   63  186 1    
   128   63  187 1    
   129   63  188 1    
   130   64   65 am   BACKBONE|DICT|INTERRES
   131   64  189 1    
   132   65   66 2    
   133   67   68 2    
   134   67   69 am   BACKBONE|DICT|INTERRES
   135   69   70 1    
   136   69  190 1    
   137   70   71 1    
   138   70   72 1    
   139   70  191 1    
   140   71  192 1    
   141   71  193 1    
   142   71  194 1    
   143   72   73 2    
   144   72   74 am   BACKBONE|DICT|INTERRES
   145   74   75 1    
   146   74  195 1    
   147   75   76 1    
   148   75   77 1    
   149   75  196 1    
   150   76  197 1    
   151   76  198 1    
   152   76  199 1    
   153   77   78 2    
   154   77   79 am   BACKBONE|DICT|INTERRES
   155   79   80 1    
   156   79  200 1    
   157   80   81 1    
   158   80   82 1    
   159   80  201 1    
   160   81  202 1    
   161   81  203 1    
   162   81  204 1    
   163   82   83 2    
   164   82   84 am   BACKBONE|DICT|INTERRES
   165   84   85 1    
   166   84  205 1    
   167   85   86 1    
   168   85   87 1    
   169   85  206 1    
   170   86  207 1    
   171   86  208 1    
   172   86  209 1    
   173   87   88 2    
   174   87   89 am   BACKBONE|DICT|INTERRES
   175   89   90 1    
   176   89  210 1    
   177   90   91 1    
   178   90   92 1    
   179   90  211 1    
   180   91  212 1    
   181   91  213 1    
   182   91  214 1    
   183   92   93 2    
   184   92   94 am   BACKBONE|DICT|INTERRES
   185   94   95 1    
   186   94  215 1    
   187   95   96 1    
   188   95   97 1    
   189   95  216 1    
   190   96  217 1    
   191   96  218 1    
   192   96  219 1    
   193   97   98 2    
   194   97   99 am   BACKBONE|DICT|INTERRES
   195   99  100 1    
   196   99  220 1    
   197  100  101 1    
   198  100  102 1    
   199  100  221 1    
   200  101  222 1    
   201  101  223 1    
   202  101  224 1    
   203  102  103 2    
   204  102  104 am   BACKBONE|DICT|INTERRES
   205  104  105 1    
   206  104  225 1    
   207  105  106 1    
   208  105  107 1    
   209  105  226 1    
   210  106  227 1    
   211  106  228 1    
   212  106  229 1    
   213  107  108 2    
   214  107  109 am   BACKBONE|DICT|INTERRES
   215  109  110 1    
   216  109  230 1    
   217  110  111 1    
   218  110  112 1    
   219  110  231 1    
   220  111  232 1    
   221  111  233 1    
   222  111  234 1    
   223  112  113 2    
   224  112  114 am   BACKBONE|DICT|INTERRES
   225  114  115 1    
   226  114  235 1    
   227  115  116 1    
   228  115  117 1    
   229  115  236 1    
   230  116  237 1    
   231  116  238 1    
   232  116  239 1    
   233  117  118 2    
   234  117  119 am   BACKBONE|DICT|INTERRES
   235  119  120 1    
   236  119  240 1    
   237  120  121 1    
   238  120  124 1    
   239  120  241 1    
   240  121  122 am   BACKBONE|DICT|INTERRES
   241  121  123 2    
   242  122  242 1    
   243  122  243 1    
   244  124  125 1    
   245  124  244 1    
   246  124  245 1    
   247  125  126 1    
   248  126  246 1    
   249  126  247 1    
@<TRIPOS>SUBSTRUCTURE
     1 UNK         1 GROUP             0       ****    0 ROOT    
