@<TRIPOS>MOLECULE
3R540
247   249    1
SMALL
USER_CHARGES


@<TRIPOS>ATOM
      1 CA         -2.8922   -9.8017  -45.6621 C.3       0 UNK        -0.1800 
      2 C          -1.7830  -10.7416  -46.1127 C.2       0 UNK         0.5000 
      3 O          -0.7560  -10.8425  -45.4431 O.2       0 UNK        -0.5000 
      4 N          -1.9893  -11.4282  -47.2441 N.am      1 UNK        -0.5000 
      5 CA         -1.0363  -12.3474  -47.8799 C.3       1 UNK         0.1400 
      6 C6         -1.5741  -12.8081  -49.2603 C.3       23 UNK        -0.0398 
      7 S7         -0.4129  -13.8347  -50.2255 S.3       23 UNK        -0.2404 
      8 C8         -1.2212  -15.4589  -50.0849 C.3       23 UNK        -0.0205 
      9 C9         -0.2939  -16.5745  -50.5318 C.ar      23 UNK        -0.0193 
     10 C10        -0.2022  -16.9155  -51.8834 C.ar      23 UNK        -0.1150 
     11 C11         0.6526  -17.9400  -52.2996 C.ar      23 UNK        -0.0193 
     12 C12         1.4230  -18.6202  -51.3523 C.ar      23 UNK        -0.1150 
     13 C13         1.3156  -18.3088  -49.9947 C.ar      23 UNK        -0.0193 
     14 C14         0.4624  -17.2776  -49.5904 C.ar      23 UNK        -0.1150 
     15 C15         2.0996  -19.1043  -48.9605 C.3       23 UNK        -0.0205 
     16 S16         1.5618  -20.8456  -48.8677 S.3       23 UNK        -0.2404 
     17 C17        -0.2412  -20.6570  -48.6660 C.3       23 UNK        -0.0398 
     18 CA         -0.8825  -21.7474  -47.7815 C.3       11 UNK         0.1400 
     19 N          -0.3137  -21.7923  -46.4319 N.am      11 UNK        -0.5000 
     20 C          -0.4881  -22.8088  -45.5748 C.2       10 UNK         0.5000 
     21 O          -1.1496  -23.8122  -45.8376 O.2       10 UNK        -0.5000 
     22 CA          0.1317  -22.6617  -44.1722 C.3       10 UNK         0.1400 
     23 CB          1.5704  -23.1968  -44.1637 C.3       10 UNK        -0.1800 
     24 N           0.1214  -21.2824  -43.6836 N.am      10 UNK        -0.5000 
     25 C          -0.9876  -20.5548  -43.4790 C.2       9 UNK         0.5000 
     26 O          -2.1257  -20.9991  -43.6303 O.2       9 UNK        -0.5000 
     27 CA         -0.8043  -19.0722  -43.0993 C.3       9 UNK         0.1400 
     28 CB         -0.9179  -18.8899  -41.5793 C.3       9 UNK        -0.1800 
     29 N           0.4609  -18.4929  -43.5568 N.am      9 UNK        -0.5000 
     30 C           0.8882  -18.4384  -44.8270 C.2       8 UNK         0.5000 
     31 O           0.2162  -18.8060  -45.7909 O.2       8 UNK        -0.5000 
     32 CA          2.3306  -17.9475  -45.0487 C.3       8 UNK         0.1400 
     33 CB          2.3426  -16.4880  -45.5222 C.3       8 UNK        -0.1800 
     34 N           3.1673  -18.0752  -43.8544 N.am      8 UNK        -0.5000 
     35 C           3.5968  -19.2338  -43.3352 C.2       7 UNK         0.5000 
     36 O           3.3109  -20.3323  -43.8133 O.2       7 UNK        -0.5000 
     37 CA          4.4556  -19.1399  -42.0547 C.3       7 UNK         0.1400 
     38 CB          5.2719  -20.4206  -41.7839 C.3       7 UNK        -0.1800 
     39 N           5.3179  -17.9524  -42.0222 N.am      7 UNK        -0.5000 
     40 C           6.2896  -17.6195  -42.8850 C.2       6 UNK         0.5000 
     41 O           6.6304  -18.3212  -43.8388 O.2       6 UNK        -0.5000 
     42 CA          6.9619  -16.2481  -42.6508 C.3       6 UNK         0.1400 
     43 CB          8.0111  -15.9068  -43.7246 C.3       6 UNK        -0.1800 
     44 N           5.9727  -15.1682  -42.6040 N.am      6 UNK        -0.5000 
     45 C           5.2142  -14.8530  -41.5467 C.2       5 UNK         0.5000 
     46 O           5.3157  -15.4210  -40.4562 O.2       5 UNK        -0.5000 
     47 CA          4.1496  -13.7486  -41.7333 C.3       5 UNK         0.1400 
     48 CB          3.8596  -13.3970  -43.2103 C.3       5 UNK        -0.1800 
     49 N           2.8988  -14.0686  -41.0380 N.am      5 UNK        -0.5000 
     50 C           2.1310  -15.1540  -41.2106 C.2       4 UNK         0.5000 
     51 O           2.3760  -16.0542  -42.0148 O.2       4 UNK        -0.5000 
     52 CA          0.8588  -15.2567  -40.3514 C.3       4 UNK         0.1400 
     53 CB          1.0102  -14.6619  -38.9339 C.3       4 UNK        -0.1800 
     54 N          -0.3001  -14.7026  -41.0546 N.am      4 UNK        -0.5000 
     55 C          -0.5159  -13.4311  -41.4183 C.2       3 UNK         0.5000 
     56 O           0.2412  -12.4954  -41.1542 O.2       3 UNK        -0.5000 
     57 CA         -1.7952  -13.1831  -42.2422 C.3       3 UNK         0.1400 
     58 CB         -2.1934  -11.6981  -42.2864 C.3       3 UNK        -0.1800 
     59 N          -1.6495  -13.6819  -43.6109 N.am      3 UNK        -0.5000 
     60 C          -1.7216  -14.9715  -43.9701 C.2       2 UNK         0.5000 
     61 O          -1.9401  -15.8769  -43.1642 O.2       2 UNK        -0.5000 
     62 CA         -1.5296  -15.3123  -45.4611 C.3       2 UNK         0.1400 
     63 CB         -2.5245  -16.3837  -45.9354 C.3       2 UNK        -0.1800 
     64 N          -1.6689  -14.1358  -46.3216 N.am      2 UNK        -0.5000 
     65 C          -0.6599  -13.5382  -46.9676 C.2       1 UNK         0.5000 
     66 O           0.5191  -13.8744  -46.8577 O.2       1 UNK        -0.5000 
     67 C          -2.4117  -21.5583  -47.7515 C.2       11 UNK         0.5000 
     68 O          -3.0978  -22.0702  -48.6364 O.2       11 UNK        -0.5000 
     69 N          -2.9218  -20.8380  -46.7426 N.am      12 UNK        -0.5000 
     70 CA         -4.3545  -20.6744  -46.5015 C.3       12 UNK         0.1400 
     71 CB         -4.6080  -19.4260  -45.6460 C.3       12 UNK        -0.1800 
     72 C          -4.9643  -21.9273  -45.8536 C.2       12 UNK         0.5000 
     73 O          -6.0505  -22.3409  -46.2561 O.2       12 UNK        -0.5000 
     74 N          -4.2405  -22.5374  -44.9031 N.am      13 UNK        -0.5000 
     75 CA         -4.6228  -23.7829  -44.2307 C.3       13 UNK         0.1400 
     76 CB         -3.6367  -24.0739  -43.0899 C.3       13 UNK        -0.1800 
     77 C          -4.7124  -24.9824  -45.1941 C.2       13 UNK         0.5000 
     78 O          -5.6426  -25.7820  -45.0872 O.2       13 UNK        -0.5000 
     79 N          -3.7701  -25.0591  -46.1441 N.am      14 UNK        -0.5000 
     80 CA         -3.7584  -26.0352  -47.2366 C.3       14 UNK         0.1400 
     81 CB         -2.3357  -26.1042  -47.8154 C.3       14 UNK        -0.1800 
     82 C          -4.7675  -25.7133  -48.3591 C.2       14 UNK         0.5000 
     83 O          -4.9880  -26.5600  -49.2250 O.2       14 UNK        -0.5000 
     84 N          -5.3231  -24.4914  -48.3485 N.am      15 UNK        -0.5000 
     85 CA         -6.2159  -23.8855  -49.3446 C.3       15 UNK         0.1400 
     86 CB         -7.5322  -24.6769  -49.4782 C.3       15 UNK        -0.1800 
     87 C          -5.5474  -23.6233  -50.7105 C.2       15 UNK         0.5000 
     88 O          -6.2399  -23.2906  -51.6723 O.2       15 UNK        -0.5000 
     89 N          -4.2134  -23.7214  -50.7718 N.am      16 UNK        -0.5000 
     90 CA         -3.4004  -23.4699  -51.9584 C.3       16 UNK         0.1400 
     91 CB         -1.9599  -23.9325  -51.6967 C.3       16 UNK        -0.1800 
     92 C          -3.4303  -21.9942  -52.3841 C.2       16 UNK         0.5000 
     93 O          -3.4724  -21.7167  -53.5821 O.2       16 UNK        -0.5000 
     94 N          -3.4493  -21.0827  -51.4007 N.am      17 UNK        -0.5000 
     95 CA         -3.5977  -19.6420  -51.6203 C.3       17 UNK         0.1400 
     96 CB         -3.2541  -18.8806  -50.3301 C.3       17 UNK        -0.1800 
     97 C          -5.0077  -19.2623  -52.1085 C.2       17 UNK         0.5000 
     98 O          -5.1436  -18.3444  -52.9169 O.2       17 UNK        -0.5000 
     99 N          -6.0269  -19.9818  -51.6177 N.am      18 UNK        -0.5000 
    100 CA        -7.4311  -19.7872  -51.9803 C.3       18 UNK         0.1400 
    101 CB        -8.3291  -20.4583  -50.9288 C.3       18 UNK        -0.1800 
    102 C         -7.7415  -20.3170  -53.3909 C.2       18 UNK         0.5000 
    103 O         -8.4244  -19.6409  -54.1607 O.2       18 UNK        -0.5000 
    104 N         -7.2150  -21.5070  -53.7093 N.am      19 UNK        -0.5000 
    105 CA        -7.3519  -22.1590  -55.0127 C.3       19 UNK         0.1400 
    106 CB        -7.0239  -23.6519  -54.8476 C.3       19 UNK        -0.1800 
    107 C         -6.4576  -21.5433  -56.1067 C.2       19 UNK         0.5000 
    108 O         -6.6968  -21.7993  -57.2872 O.2       19 UNK        -0.5000 
    109 N         -5.4278  -20.7871  -55.6947 N.am      20 UNK        -0.5000 
    110 CA        -4.3212  -20.2643  -56.5067 C.3       20 UNK         0.1400 
    111 CB        -4.8201  -19.2634  -57.5690 C.3       20 UNK        -0.1800 
    112 C         -3.4402  -21.3909  -57.0928 C.2       20 UNK         0.5000 
    113 O         -2.8396  -21.2302  -58.1564 O.2       20 UNK        -0.5000 
    114 N         -3.3695  -22.5119  -56.3638 N.am      21 UNK        -0.5000 
    115 CA        -2.5520  -23.6864  -56.6654 C.3       21 UNK         0.1400 
    116 CB        -3.2405  -24.9233  -56.0669 C.3       21 UNK        -0.1800 
    117 C         -1.1148  -23.5484  -56.1252 C.2       21 UNK         0.5000 
    118 O         -0.2622  -24.3743  -56.4521 O.2       21 UNK        -0.5000 
    119 N         -0.8755  -22.5157  -55.3076 N.am      22 UNK        -0.5000 
    120 CA         0.4164  -22.1526  -54.7095 C.3       22 UNK         0.1400 
    121 C          1.5379  -21.7280  -55.7071 C.2       22 UNK         0.5000 
    122 N          1.2391  -21.4429  -56.9689 N.am      22 UNK        -0.7600 
    123 O          2.7033  -21.6631  -55.3261 O.2       22 UNK        -0.5000 
    124 C124        0.2197  -21.0967  -53.5928 C.3       23 UNK        -0.0398 
    125 S125       -0.5483  -19.5461  -54.1926 S.3       23 UNK        -0.2404 
    126 C126        0.7254  -18.3176  -53.7702 C.3       23 UNK        -0.0205 
    127 H127       -2.4993   -8.7928  -45.5350 H         1 UNK         0.0600 
    128 H128       -3.3032  -10.1300  -44.7084 H         1 UNK         0.0600 
    129 H129       -3.7067   -9.7589  -46.3859 H         1 UNK         0.0600 
    130 H130       -2.8595  -11.2919  -47.7390 H         1 UNK         0.3000 
    131 H131       -0.1197  -11.7796  -48.0542 H         1 UNK         0.0600 
    132 H132       -2.5226  -13.3357  -49.1453 H         1 UNK         0.0800 
    133 H133       -1.7999  -11.9314  -49.8690 H         1 UNK         0.0800 
    134 H134       -2.1320  -15.4652  -50.6858 H         1 UNK         0.0800 
    135 H135       -1.5308  -15.6296  -49.0533 H         1 UNK         0.0800 
    136 H136       -0.7986  -16.3843  -52.6119 H         1 UNK         0.1150 
    137 H137        2.0892  -19.4122  -51.6617 H         1 UNK         0.1150 
    138 H138        0.3785  -17.0271  -48.5417 H         1 UNK         0.1150 
    139 H139        1.9925  -18.6512  -47.9763 H         1 UNK         0.0800 
    140 H140        3.1622  -19.0691  -49.2042 H         1 UNK         0.0800 
    141 H141       -0.6729  -20.6798  -49.6681 H         1 UNK         0.0800 
    142 H142       -0.4578  -19.6695  -48.2551 H         1 UNK         0.0800 
    143 H143       -0.6910  -22.7133  -48.2543 H         1 UNK         0.0600 
    144 H144        0.2043  -20.9735  -46.1372 H         1 UNK         0.3000 
    145 H145       -0.4592  -23.2632  -43.4795 H         1 UNK         0.0600 
    146 H146        1.5984  -24.2443  -44.4665 H         1 UNK         0.0600 
    147 H147        2.0111  -23.1333  -43.1686 H         1 UNK         0.0600 
    148 H148        2.2103  -22.6401  -44.8497 H         1 UNK         0.0600 
    149 H149        1.0241  -20.8414  -43.5645 H         1 UNK         0.3000 
    150 H150       -1.6166  -18.5195  -43.5714 H         1 UNK         0.0600 
    151 H151       -0.0933  -19.3708  -41.0519 H         1 UNK         0.0600 
    152 H152       -1.8467  -19.3200  -41.2020 H         1 UNK         0.0600 
    153 H153       -0.9221  -17.8340  -41.3112 H         1 UNK         0.0600 
    154 H154        1.0800  -18.1347  -42.8435 H         1 UNK         0.3000 
    155 H155        2.7748  -18.5677  -45.8285 H         1 UNK         0.0600 
    156 H156        3.3586  -16.1411  -45.7106 H         1 UNK         0.0600 
    157 H157        1.8904  -15.8218  -44.7865 H         1 UNK         0.0600 
    158 H158        1.7849  -16.3758  -46.4528 H         1 UNK         0.0600 
    159 H159        3.3362  -17.2225  -43.3313 H         1 UNK         0.3000 
    160 H160        3.7497  -19.0213  -41.2316 H         1 UNK         0.0600 
    161 H161        5.9600  -20.6431  -42.5999 H         1 UNK         0.0600 
    162 H162        4.6168  -21.2846  -41.6655 H         1 UNK         0.0600 
    163 H163        5.8554  -20.3301  -40.8677 H         1 UNK         0.0600 
    164 H164        5.1119  -17.2790  -41.2910 H         1 UNK         0.3000 
    165 H165        7.4785  -16.3024  -41.6902 H         1 UNK         0.0600 
    166 H166        8.7931  -16.6662  -43.7637 H         1 UNK         0.0600 
    167 H167        7.5653  -15.8409  -44.7179 H         1 UNK         0.0600 
    168 H168        8.4973  -14.9546  -43.5114 H         1 UNK         0.0600 
    169 H169        5.8090  -14.6792  -43.4720 H         1 UNK         0.3000 
    170 H170        4.5491  -12.8559  -41.2505 H         1 UNK         0.0600 
    171 H171        3.0722  -12.6465  -43.2839 H         1 UNK         0.0600 
    172 H172        3.5362  -14.2673  -43.7816 H         1 UNK         0.0600 
    173 H173        4.7397  -12.9810  -43.7017 H         1 UNK         0.0600 
    174 H174        2.5874  -13.3837  -40.3639 H         1 UNK         0.3000 
    175 H175        0.6613  -16.3223  -40.2285 H         1 UNK         0.0600 
    176 H176        1.8646  -15.1024  -38.4184 H         1 UNK         0.0600 
    177 H177        1.1536  -13.5817  -38.9395 H         1 UNK         0.0600 
    178 H178        0.1273  -14.8718  -38.3301 H         1 UNK         0.0600 
    179 H179       -0.9505  -15.3880  -41.4251 H         1 UNK         0.3000 
    180 H180       -2.6102  -13.7222  -41.7542 H         1 UNK         0.0600 
    181 H181       -1.4457  -11.0920  -42.7988 H         1 UNK         0.0600 
    182 H182       -2.3080  -11.2950  -41.2794 H         1 UNK         0.0600 
    183 H183       -3.1466  -11.5645  -42.7971 H         1 UNK         0.0600 
    184 H184       -1.4092  -12.9982  -44.3156 H         1 UNK         0.3000 
    185 H185       -0.5287  -15.7356  -45.5529 H         1 UNK         0.0600 
    186 H186       -2.3694  -16.6314  -46.9852 H         1 UNK         0.0600 
    187 H187       -3.5579  -16.0574  -45.8137 H         1 UNK         0.0600 
    188 H188       -2.3999  -17.3082  -45.3732 H         1 UNK         0.0600 
    189 H189       -2.6031  -13.7667  -46.4306 H         1 UNK         0.3000 
    190 H190       -2.2943  -20.4681  -46.0428 H         1 UNK         0.3000 
    191 H191       -4.8571  -20.5243  -47.4597 H         1 UNK         0.0600 
    192 H192       -4.3298  -18.5251  -46.1904 H         1 UNK         0.0600 
    193 H193       -5.6649  -19.3327  -45.3931 H         1 UNK         0.0600 
    194 H194       -4.0473  -19.4469  -44.7114 H         1 UNK         0.0600 
    195 H195       -3.3833  -22.0942  -44.5846 H         1 UNK         0.3000 
    196 H196       -5.6123  -23.6321  -43.7943 H         1 UNK         0.0600 
    197 H197       -3.9410  -24.9579  -42.5283 H         1 UNK         0.0600 
    198 H198       -3.5873  -23.2418  -42.3872 H         1 UNK         0.0600 
    199 H199       -2.6304  -24.2559  -43.4661 H         1 UNK         0.0600 
    200 H200       -2.9875  -24.4116  -46.1100 H         1 UNK         0.3000 
    201 H201       -4.0143  -27.0171  -46.8335 H         1 UNK         0.0600 
    202 H202       -2.2690  -26.8470  -48.6113 H         1 UNK         0.0600 
    203 H203       -1.6122  -26.3847  -47.0497 H         1 UNK         0.0600 
    204 H204       -2.0252  -25.1455  -48.2332 H         1 UNK         0.0600 
    205 H205       -5.0884  -23.8850  -47.5737 H         1 UNK         0.3000 
    206 H206       -6.4692  -22.9004  -48.9511 H         1 UNK         0.0600 
    207 H207       -7.9930  -24.8413  -48.5041 H         1 UNK         0.0600 
    208 H208       -8.2540  -24.1342  -50.0897 H         1 UNK         0.0600 
    209 H209       -7.3776  -25.6490  -49.9467 H         1 UNK         0.0600 
    210 H210       -3.7177  -23.8962  -49.9092 H         1 UNK         0.3000 
    211 H211       -3.8116  -24.0633  -52.7768 H         1 UNK         0.0600 
    212 H212       -1.9297  -24.9855  -51.4160 H         1 UNK         0.0600 
    213 H213       -1.3461  -23.8197  -52.5909 H         1 UNK         0.0600 
    214 H214       -1.4897  -23.3590  -50.8966 H         1 UNK         0.0600 
    215 H215       -3.4079  -21.4082  -50.4393 H         1 UNK         0.3000 
    216 H216       -2.8900  -19.3349  -52.3921 H         1 UNK         0.0600 
    217 H217       -3.8538  -19.2201  -49.4851 H         1 UNK         0.0600 
    218 H218       -3.4300  -17.8107  -50.4488 H         1 UNK         0.0600 
    219 H219       -2.2038  -18.9990  -50.0715 H         1 UNK         0.0600 
    220 H220       -5.8199  -20.7400  -50.9864 H         1 UNK         0.3000 
    221 H221       -7.6441  -18.7160  -51.9704 H         1 UNK         0.0600 
    222 H222       -8.1691  -21.5357  -50.8833 H         1 UNK         0.0600 
    223 H223       -8.1457  -20.0499  -49.9348 H         1 UNK         0.0600 
    224 H224       -9.3830  -20.2946  -51.1572 H         1 UNK         0.0600 
    225 H225       -6.7235  -22.0352  -52.9921 H         1 UNK         0.3000 
    226 H226       -8.3891  -22.0689  -55.3422 H         1 UNK         0.0600 
    227 H227       -7.6849  -24.1226  -54.1195 H         1 UNK         0.0600 
    228 H228       -7.1435  -24.1883  -55.7897 H         1 UNK         0.0600 
    229 H229       -5.9969  -23.8023  -54.5116 H         1 UNK         0.0600 
    230 H230       -5.3134  -20.6734  -54.6965 H         1 UNK         0.3000 
    231 H231       -3.6805  -19.7143  -55.8155 H         1 UNK         0.0600 
    232 H232       -5.3967  -19.7538  -58.3534 H         1 UNK         0.0600 
    233 H233       -3.9823  -18.7577  -58.0502 H         1 UNK         0.0600 
    234 H234       -5.4482  -18.4938  -57.1202 H         1 UNK         0.0600 
    235 H235       -3.8249  -22.5002  -55.4586 H         1 UNK         0.3000 
    236 H236       -2.4903  -23.8152  -57.7479 H         1 UNK         0.0600 
    237 H237       -3.3031  -24.8633  -54.9804 H         1 UNK         0.0600 
    238 H238       -4.2526  -25.0380  -56.4556 H         1 UNK         0.0600 
    239 H239       -2.6930  -25.8337  -56.3140 H         1 UNK         0.0600 
    240 H240       -1.6454  -21.8995  -55.0838 H         1 UNK         0.3000 
    241 H241        0.7911  -23.0577  -54.2280 H         1 UNK         0.0600 
    242 H242        0.2854  -21.4844  -57.2912 H         1 UNK         0.3800 
    243 H243        1.9731  -21.1738  -57.6049 H         1 UNK         0.3800 
    244 H244       -0.4200  -21.5003  -52.8081 H         1 UNK         0.0800 
    245 H245        1.1724  -20.8899  -53.1066 H         1 UNK         0.0800 
    246 H246        1.7155  -18.6981  -54.0263 H         1 UNK         0.0800 
    247 H247        0.5737  -17.4293  -54.3851 H         1 UNK         0.0800 
@<TRIPOS>BOND
     1    1    2 1    
     2    1  127 1    
     3    1  128 1    
     4    1  129 1    
     5    2    3 2    
     6    2    4 am   BACKBONE|DICT|INTERRES
     7    4    5 1    
     8    4  130 1    
     9    5    6 1    
    10    5   65 1    
    11    5  131 1    
    12    6    7 1    
    13    6  132 1    
    14    6  133 1    
    15    7    8 1    
    16    8    9 1    
    17    8  134 1    
    18    8  135 1    
    19    9   10 ar   
    20    9   14 ar   
    21   10   11 ar   
    22   10  136 1    
    23   11   12 ar   
    24   11  126 1    
    25   12   13 ar   
    26   12  137 1    
    27   13   14 ar   
    28   13   15 1    
    29   14  138 1    
    30   15   16 1    
    31   15  139 1    
    32   15  140 1    
    33   16   17 1    
    34   17   18 1    
    35   17  141 1    
    36   17  142 1    
    37   18   19 1    
    38   18   67 1    
    39   18  143 1    
    40   19   20 am   BACKBONE|DICT|INTERRES
    41   19  144 1    
    42   20   21 2    
    43   20   22 1    
    44   22   23 1    
    45   22   24 1    
    46   22  145 1    
    47   23  146 1    
    48   23  147 1    
    49   23  148 1    
    50   24   25 am   BACKBONE|DICT|INTERRES
    51   24  149 1    
    52   25   26 2    
    53   25   27 1    
    54   27   28 1    
    55   27   29 1    
    56   27  150 1    
    57   28  151 1    
    58   28  152 1    
    59   28  153 1    
    60   29   30 am   BACKBONE|DICT|INTERRES
    61   29  154 1    
    62   30   31 2    
    63   30   32 1    
    64   32   33 1    
    65   32   34 1    
    66   32  155 1    
    67   33  156 1    
    68   33  157 1    
    69   33  158 1    
    70   34   35 am   BACKBONE|DICT|INTERRES
    71   34  159 1    
    72   35   36 2    
    73   35   37 1    
    74   37   38 1    
    75   37   39 1    
    76   37  160 1    
    77   38  161 1    
    78   38  162 1    
    79   38  163 1    
    80   39   40 am   BACKBONE|DICT|INTERRES
    81   39  164 1    
    82   40   41 2    
    83   40   42 1    
    84   42   43 1    
    85   42   44 1    
    86   42  165 1    
    87   43  166 1    
    88   43  167 1    
    89   43  168 1    
    90   44   45 am   BACKBONE|DICT|INTERRES
    91   44  169 1    
    92   45   46 2    
    93   45   47 1    
    94   47   48 1    
    95   47   49 1    
    96   47  170 1    
    97   48  171 1    
    98   48  172 1    
    99   48  173 1    
   100   49   50 am   BACKBONE|DICT|INTERRES
   101   49  174 1    
   102   50   51 2    
   103   50   52 1    
   104   52   53 1    
   105   52   54 1    
   106   52  175 1    
   107   53  176 1    
   108   53  177 1    
   109   53  178 1    
   110   54   55 am   BACKBONE|DICT|INTERRES
   111   54  179 1    
   112   55   56 2    
   113   55   57 1    
   114   57   58 1    
   115   57   59 1    
   116   57  180 1    
   117   58  181 1    
   118   58  182 1    
   119   58  183 1    
   120   59   60 am   BACKBONE|DICT|INTERRES
   121   59  184 1    
   122   60   61 2    
   123   60   62 1    
   124   62   63 1    
   125   62   64 1    
   126   62  185 1    
   127   63  186 1    
   128   63  187 1    
   129   63  188 1    
   130   64   65 am   BACKBONE|DICT|INTERRES
   131   64  189 1    
   132   65   66 2    
   133   67   68 2    
   134   67   69 am   BACKBONE|DICT|INTERRES
   135   69   70 1    
   136   69  190 1    
   137   70   71 1    
   138   70   72 1    
   139   70  191 1    
   140   71  192 1    
   141   71  193 1    
   142   71  194 1    
   143   72   73 2    
   144   72   74 am   BACKBONE|DICT|INTERRES
   145   74   75 1    
   146   74  195 1    
   147   75   76 1    
   148   75   77 1    
   149   75  196 1    
   150   76  197 1    
   151   76  198 1    
   152   76  199 1    
   153   77   78 2    
   154   77   79 am   BACKBONE|DICT|INTERRES
   155   79   80 1    
   156   79  200 1    
   157   80   81 1    
   158   80   82 1    
   159   80  201 1    
   160   81  202 1    
   161   81  203 1    
   162   81  204 1    
   163   82   83 2    
   164   82   84 am   BACKBONE|DICT|INTERRES
   165   84   85 1    
   166   84  205 1    
   167   85   86 1    
   168   85   87 1    
   169   85  206 1    
   170   86  207 1    
   171   86  208 1    
   172   86  209 1    
   173   87   88 2    
   174   87   89 am   BACKBONE|DICT|INTERRES
   175   89   90 1    
   176   89  210 1    
   177   90   91 1    
   178   90   92 1    
   179   90  211 1    
   180   91  212 1    
   181   91  213 1    
   182   91  214 1    
   183   92   93 2    
   184   92   94 am   BACKBONE|DICT|INTERRES
   185   94   95 1    
   186   94  215 1    
   187   95   96 1    
   188   95   97 1    
   189   95  216 1    
   190   96  217 1    
   191   96  218 1    
   192   96  219 1    
   193   97   98 2    
   194   97   99 am   BACKBONE|DICT|INTERRES
   195   99  100 1    
   196   99  220 1    
   197  100  101 1    
   198  100  102 1    
   199  100  221 1    
   200  101  222 1    
   201  101  223 1    
   202  101  224 1    
   203  102  103 2    
   204  102  104 am   BACKBONE|DICT|INTERRES
   205  104  105 1    
   206  104  225 1    
   207  105  106 1    
   208  105  107 1    
   209  105  226 1    
   210  106  227 1    
   211  106  228 1    
   212  106  229 1    
   213  107  108 2    
   214  107  109 am   BACKBONE|DICT|INTERRES
   215  109  110 1    
   216  109  230 1    
   217  110  111 1    
   218  110  112 1    
   219  110  231 1    
   220  111  232 1    
   221  111  233 1    
   222  111  234 1    
   223  112  113 2    
   224  112  114 am   BACKBONE|DICT|INTERRES
   225  114  115 1    
   226  114  235 1    
   227  115  116 1    
   228  115  117 1    
   229  115  236 1    
   230  116  237 1    
   231  116  238 1    
   232  116  239 1    
   233  117  118 2    
   234  117  119 am   BACKBONE|DICT|INTERRES
   235  119  120 1    
   236  119  240 1    
   237  120  121 1    
   238  120  124 1    
   239  120  241 1    
   240  121  122 am   BACKBONE|DICT|INTERRES
   241  121  123 2    
   242  122  242 1    
   243  122  243 1    
   244  124  125 1    
   245  124  244 1    
   246  124  245 1    
   247  125  126 1    
   248  126  246 1    
   249  126  247 1    
@<TRIPOS>SUBSTRUCTURE
     1 UNK         1 GROUP             0       ****    0 ROOT    
