@<TRIPOS>MOLECULE
3R540
247   249    1
SMALL
USER_CHARGES


@<TRIPOS>ATOM
      1 CA         -5.7497  -15.8365  -45.1765 C.3       0 UNK        -0.1800 
      2 C          -5.3796  -14.5170  -45.8390 C.2       0 UNK         0.5000 
      3 O          -5.8663  -13.4634  -45.4298 O.2       0 UNK        -0.5000 
      4 N          -4.5114  -14.5715  -46.8557 N.am      1 UNK        -0.5000 
      5 CA         -4.0035  -13.4308  -47.6314 C.3       1 UNK         0.1400 
      6 C6         -3.6714  -13.8262  -49.0971 C.3       23 UNK        -0.0398 
      7 S7         -2.7216  -15.3760  -49.2569 S.3       23 UNK        -0.2404 
      8 C8         -1.2765  -14.8519  -50.2244 C.3       23 UNK        -0.0205 
      9 C9         -0.3341  -16.0245  -50.4490 C.ar      23 UNK        -0.0193 
     10 C10        -0.1450  -16.5702  -51.7219 C.ar      23 UNK        -0.1150 
     11 C11         0.7166  -17.6596  -51.9057 C.ar      23 UNK        -0.0193 
     12 C12         1.4096  -18.1790  -50.8062 C.ar      23 UNK        -0.1150 
     13 C13         1.2337  -17.6381  -49.5288 C.ar      23 UNK        -0.0193 
     14 C14         0.3560  -16.5665  -49.3647 C.ar      23 UNK        -0.1150 
     15 C15         2.0081  -18.1529  -48.3186 C.3       23 UNK        -0.0205 
     16 S16         2.1645  -19.9659  -48.2239 S.3       23 UNK        -0.2404 
     17 C17         0.4193  -20.4798  -48.1562 C.3       23 UNK        -0.0398 
     18 CA          0.2407  -21.8075  -47.3856 C.3       11 UNK         0.1400 
     19 N           0.5011  -21.6612  -45.9499 N.am      11 UNK        -0.5000 
     20 C           0.7159  -22.6832  -45.1100 C.2       10 UNK         0.5000 
     21 O           0.7784  -23.8583  -45.4687 O.2       10 UNK        -0.5000 
     22 CA          0.8226  -22.3403  -43.6117 C.3       10 UNK         0.1400 
     23 CB          2.2605  -21.9707  -43.2264 C.3       10 UNK        -0.1800 
     24 N          -0.0858  -21.2580  -43.2285 N.am      10 UNK        -0.5000 
     25 C          -1.4185  -21.4033  -43.1756 C.2       9 UNK         0.5000 
     26 O          -1.9931  -22.4675  -43.3990 O.2       9 UNK        -0.5000 
     27 CA         -2.2607  -20.1525  -42.8725 C.3       9 UNK         0.1400 
     28 CB         -2.5433  -20.0524  -41.3675 C.3       9 UNK        -0.1800 
     29 N          -1.6515  -18.9148  -43.3660 N.am      9 UNK        -0.5000 
     30 C          -1.4735  -18.6431  -44.6687 C.2       8 UNK         0.5000 
     31 O          -1.7850  -19.4333  -45.5614 O.2       8 UNK        -0.5000 
     32 CA         -0.8019  -17.3138  -45.0655 C.3       8 UNK         0.1400 
     33 CB         -1.5615  -16.6158  -46.2079 C.3       8 UNK        -0.1800 
     34 N          -0.5390  -16.4115  -43.9419 N.am      8 UNK        -0.5000 
     35 C          -1.3999  -15.6571  -43.2437 C.2       7 UNK         0.5000 
     36 O          -2.5811  -15.4918  -43.5490 O.2       7 UNK        -0.5000 
     37 CA         -0.8195  -14.9696  -41.9865 C.3       7 UNK         0.1400 
     38 CB         -1.8924  -14.6737  -40.9176 C.3       7 UNK        -0.1800 
     39 N           0.3253  -15.6989  -41.4153 N.am      7 UNK        -0.5000 
     40 C           0.2973  -16.9343  -40.8934 C.2       6 UNK         0.5000 
     41 O          -0.7334  -17.5967  -40.7918 O.2       6 UNK        -0.5000 
     42 CA          1.6514  -17.5446  -40.4781 C.3       6 UNK         0.1400 
     43 CB          1.5238  -19.0032  -39.9875 C.3       6 UNK        -0.1800 
     44 N           2.6642  -17.4520  -41.5355 N.am      6 UNK        -0.5000 
     45 C           2.6151  -17.9725  -42.7698 C.2       5 UNK         0.5000 
     46 O           1.6417  -18.5841  -43.2179 O.2       5 UNK        -0.5000 
     47 CA          3.8638  -17.7372  -43.6511 C.3       5 UNK         0.1400 
     48 CB          3.7693  -18.4425  -45.0145 C.3       5 UNK        -0.1800 
     49 N           4.1007  -16.3149  -43.8969 N.am      5 UNK        -0.5000 
     50 C           4.5891  -15.4225  -43.0251 C.2       4 UNK         0.5000 
     51 O           4.9544  -15.7166  -41.8859 O.2       4 UNK        -0.5000 
     52 CA          4.6531  -13.9511  -43.4898 C.3       4 UNK         0.1400 
     53 CB          6.0881  -13.5801  -43.8939 C.3       4 UNK        -0.1800 
     54 N           3.7467  -13.6247  -44.5989 N.am      4 UNK        -0.5000 
     55 C           2.4107  -13.7070  -44.5469 C.2       3 UNK         0.5000 
     56 O           1.7958  -14.0971  -43.5528 O.2       3 UNK        -0.5000 
     57 CA          1.6522  -13.3587  -45.8418 C.3       3 UNK         0.1400 
     58 CB          1.8326  -14.4753  -46.8789 C.3       3 UNK        -0.1800 
     59 N           0.2203  -13.1700  -45.6024 N.am      3 UNK        -0.5000 
     60 C          -0.3115  -12.0906  -45.0169 C.2       2 UNK         0.5000 
     61 O           0.3443  -11.0908  -44.7168 O.2       2 UNK        -0.5000 
     62 CA         -1.8176  -12.1548  -44.6867 C.3       2 UNK         0.1400 
     63 CB         -2.4427  -10.7625  -44.4559 C.3       2 UNK        -0.1800 
     64 N          -2.6231  -12.9348  -45.6356 N.am      2 UNK        -0.5000 
     65 C          -2.8722  -12.6418  -46.9225 C.2       1 UNK         0.5000 
     66 O          -2.2870  -11.7491  -47.5370 O.2       1 UNK        -0.5000 
     67 C          -1.1526  -22.4168  -47.6407 C.2       11 UNK         0.5000 
     68 O          -1.2932  -23.2572  -48.5284 O.2       11 UNK        -0.5000 
     69 N          -2.1500  -22.0185  -46.8372 N.am      12 UNK        -0.5000 
     70 CA         -3.4992  -22.5824  -46.8637 C.3       12 UNK         0.1400 
     71 CB         -4.4350  -21.7348  -45.9910 C.3       12 UNK        -0.1800 
     72 C          -3.5247  -24.0626  -46.4345 C.2       12 UNK         0.5000 
     73 O          -4.1953  -24.8694  -47.0788 O.2       12 UNK        -0.5000 
     74 N          -2.7606  -24.4049  -45.3870 N.am      13 UNK        -0.5000 
     75 CA         -2.5686  -25.7766  -44.9095 C.3       13 UNK         0.1400 
     76 CB         -1.7972  -25.7573  -43.5817 C.3       13 UNK        -0.1800 
     77 C          -1.8578  -26.6791  -45.9358 C.2       13 UNK         0.5000 
     78 O          -2.1745  -27.8667  -46.0217 O.2       13 UNK        -0.5000 
     79 N          -0.9459  -26.0993  -46.7278 N.am      14 UNK        -0.5000 
     80 CA         -0.2421  -26.7402  -47.8389 C.3       14 UNK         0.1400 
     81 CB          1.0498  -25.9561  -48.1310 C.3       14 UNK        -0.1800 
     82 C          -1.1421  -26.8934  -49.0853 C.2       14 UNK         0.5000 
     83 O          -0.8238  -26.3660  -50.1514 O.2       14 UNK        -0.5000 
     84 N          -2.2547  -27.6225  -48.9212 N.am      15 UNK        -0.5000 
     85 CA         -3.2328  -28.0066  -49.9451 C.3       15 UNK         0.1400 
     86 CB         -2.6058  -29.0173  -50.9287 C.3       15 UNK        -0.1800 
     87 C          -3.8981  -26.8086  -50.6578 C.2       15 UNK         0.5000 
     88 O          -4.1243  -26.8616  -51.8682 O.2       15 UNK        -0.5000 
     89 N          -4.2105  -25.7555  -49.8873 N.am      16 UNK        -0.5000 
     90 CA         -4.8829  -24.5212  -50.3090 C.3       16 UNK         0.1400 
     91 CB         -6.3281  -24.8111  -50.7673 C.3       16 UNK        -0.1800 
     92 C          -4.0885  -23.6822  -51.3320 C.2       16 UNK         0.5000 
     93 O          -4.6891  -22.9097  -52.0792 O.2       16 UNK        -0.5000 
     94 N          -2.7548  -23.8070  -51.3361 N.am      17 UNK        -0.5000 
     95 CA         -1.8426  -23.0825  -52.2229 C.3       17 UNK         0.1400 
     96 CB         -0.5557  -23.9090  -52.3910 C.3       17 UNK        -0.1800 
     97 C          -1.5650  -21.6455  -51.7292 C.2       17 UNK         0.5000 
     98 O          -0.4061  -21.2565  -51.5856 O.2       17 UNK        -0.5000 
     99 N          -2.6363  -20.8878  -51.4804 N.am      18 UNK        -0.5000 
    100 CA        -2.6365  -19.4973  -51.0407 C.3       18 UNK         0.1400 
    101 CB        -2.9771  -19.4513  -49.5408 C.3       18 UNK        -0.1800 
    102 C         -3.6817  -18.7175  -51.8521 C.2       18 UNK         0.5000 
    103 O         -4.4819  -19.3234  -52.5673 O.2       18 UNK        -0.5000 
    104 N         -3.6758  -17.3858  -51.7050 N.am      19 UNK        -0.5000 
    105 CA        -4.6860  -16.4393  -52.2002 C.3       19 UNK         0.1400 
    106 CB        -5.9652  -16.5503  -51.3457 C.3       19 UNK        -0.1800 
    107 C         -4.9637  -16.5486  -53.7156 C.2       19 UNK         0.5000 
    108 O         -6.1194  -16.5224  -54.1414 O.2       19 UNK        -0.5000 
    109 N         -3.8804  -16.6921  -54.4917 N.am      20 UNK        -0.5000 
    110 CA        -3.8328  -16.8508  -55.9504 C.3       20 UNK         0.1400 
    111 CB        -4.5169  -15.6754  -56.6801 C.3       20 UNK        -0.1800 
    112 C         -4.3083  -18.2259  -56.4702 C.2       20 UNK         0.5000 
    113 O         -4.3381  -18.4225  -57.6854 O.2       20 UNK        -0.5000 
    114 N         -4.5887  -19.1816  -55.5708 N.am      21 UNK        -0.5000 
    115 CA        -4.7894  -20.6020  -55.8908 C.3       21 UNK         0.1400 
    116 CB        -5.8962  -21.1774  -54.9923 C.3       21 UNK        -0.1800 
    117 C         -3.4700  -21.3999  -55.7697 C.2       21 UNK         0.5000 
    118 O         -3.4912  -22.6297  -55.7292 O.2       21 UNK        -0.5000 
    119 N         -2.3479  -20.6726  -55.7269 N.am      22 UNK        -0.5000 
    120 CA        -0.9356  -21.0628  -55.5701 C.3       22 UNK         0.1400 
    121 C         -0.3533  -22.0741  -56.6112 C.2       22 UNK         0.5000 
    122 N         -1.1608  -22.8514  -57.3164 N.am      22 UNK        -0.7600 
    123 O          0.8596  -22.1662  -56.7799 O.2       22 UNK        -0.5000 
    124 C124       -0.0585  -19.7838  -55.4592 C.3       23 UNK        -0.0398 
    125 S125       -0.6319  -18.6416  -54.1489 S.3       23 UNK        -0.2404 
    126 C126        0.9297  -18.2739  -53.2843 C.3       23 UNK        -0.0205 
    127 H127       -5.2612  -16.6838  -45.6587 H         1 UNK         0.0600 
    128 H128       -6.8274  -15.9926  -45.2232 H         1 UNK         0.0600 
    129 H129       -5.4491  -15.8253  -44.1286 H         1 UNK         0.0600 
    130 H130       -4.1483  -15.4673  -47.1499 H         1 UNK         0.3000 
    131 H131       -4.8196  -12.7085  -47.7017 H         1 UNK         0.0600 
    132 H132       -3.1687  -13.0163  -49.6282 H         1 UNK         0.0800 
    133 H133       -4.6072  -13.9790  -49.6363 H         1 UNK         0.0800 
    134 H134       -0.7499  -14.0576  -49.6927 H         1 UNK         0.0800 
    135 H135       -1.6068  -14.4312  -51.1754 H         1 UNK         0.0800 
    136 H136       -0.6705  -16.1538  -52.5694 H         1 UNK         0.1150 
    137 H137        2.0896  -19.0075  -50.9446 H         1 UNK         0.1150 
    138 H138        0.2037  -16.1436  -48.3857 H         1 UNK         0.1150 
    139 H139        1.5354  -17.8060  -47.4008 H         1 UNK         0.0800 
    140 H140        3.0074  -17.7166  -48.3359 H         1 UNK         0.0800 
    141 H141        0.0798  -20.5791  -49.1865 H         1 UNK         0.0800 
    142 H142       -0.1830  -19.6871  -47.7104 H         1 UNK         0.0800 
    143 H143        0.9664  -22.5206  -47.7833 H         1 UNK         0.0600 
    144 H144        0.4337  -20.7288  -45.5706 H         1 UNK         0.3000 
    145 H145        0.5466  -23.2335  -43.0471 H         1 UNK         0.0600 
    146 H146        2.6002  -21.0866  -43.7609 H         1 UNK         0.0600 
    147 H147        2.9491  -22.7829  -43.4624 H         1 UNK         0.0600 
    148 H148        2.3446  -21.7694  -42.1583 H         1 UNK         0.0600 
    149 H149        0.3227  -20.3445  -43.0642 H         1 UNK         0.3000 
    150 H150       -3.2195  -20.2662  -43.3811 H         1 UNK         0.0600 
    151 H151       -1.6219  -20.0373  -40.7847 H         1 UNK         0.0600 
    152 H152       -3.1273  -20.9079  -41.0263 H         1 UNK         0.0600 
    153 H153       -3.1115  -19.1534  -41.1279 H         1 UNK         0.0600 
    154 H154       -1.3364  -18.2539  -42.6644 H         1 UNK         0.3000 
    155 H155        0.1816  -17.5872  -45.4476 H         1 UNK         0.0600 
    156 H156       -2.6063  -16.4492  -45.9507 H         1 UNK         0.0600 
    157 H157       -1.5524  -17.2317  -47.1077 H         1 UNK         0.0600 
    158 H158       -1.1183  -15.6548  -46.4626 H         1 UNK         0.0600 
    159 H159        0.4004  -16.4676  -43.5726 H         1 UNK         0.3000 
    160 H160       -0.4328  -14.0064  -42.3171 H         1 UNK         0.0600 
    161 H161       -2.4097  -15.5778  -40.5960 H         1 UNK         0.0600 
    162 H162       -2.6484  -13.9893  -41.3043 H         1 UNK         0.0600 
    163 H163       -1.4532  -14.2056  -40.0368 H         1 UNK         0.0600 
    164 H164        1.2207  -15.2408  -41.5284 H         1 UNK         0.3000 
    165 H165        2.0159  -16.9451  -39.6429 H         1 UNK         0.0600 
    166 H166        0.8495  -19.0701  -39.1329 H         1 UNK         0.0600 
    167 H167        1.1320  -19.6618  -40.7634 H         1 UNK         0.0600 
    168 H168        2.4888  -19.3981  -39.6703 H         1 UNK         0.0600 
    169 H169        3.4951  -16.9147  -41.3050 H         1 UNK         0.3000 
    170 H170        4.7244  -18.1480  -43.1191 H         1 UNK         0.0600 
    171 H171        4.6423  -18.2324  -45.6327 H         1 UNK         0.0600 
    172 H172        3.7149  -19.5236  -44.9005 H         1 UNK         0.0600 
    173 H173        2.8853  -18.1245  -45.5644 H         1 UNK         0.0600 
    174 H174        3.8158  -15.9686  -44.8000 H         1 UNK         0.3000 
    175 H175        4.3676  -13.3327  -42.6364 H         1 UNK         0.0600 
    176 H176        6.7881  -13.7808  -43.0817 H         1 UNK         0.0600 
    177 H177        6.4212  -14.1495  -44.7625 H         1 UNK         0.0600 
    178 H178        6.1692  -12.5199  -44.1347 H         1 UNK         0.0600 
    179 H179        4.1843  -13.3084  -45.4526 H         1 UNK         0.3000 
    180 H180        2.0676  -12.4334  -46.2467 H         1 UNK         0.0600 
    181 H181        1.4422  -15.4258  -46.5147 H         1 UNK         0.0600 
    182 H182        2.8841  -14.6260  -47.1259 H         1 UNK         0.0600 
    183 H183        1.3215  -14.2234  -47.8079 H         1 UNK         0.0600 
    184 H184       -0.3831  -13.9533  -45.7973 H         1 UNK         0.3000 
    185 H185       -1.8877  -12.6861  -43.7381 H         1 UNK         0.0600 
    186 H186       -1.9508  -10.2427  -43.6329 H         1 UNK         0.0600 
    187 H187       -2.3582  -10.1284  -45.3389 H         1 UNK         0.0600 
    188 H188       -3.4993  -10.8425  -44.1997 H         1 UNK         0.0600 
    189 H189       -3.1377  -13.7059  -45.2299 H         1 UNK         0.3000 
    190 H190       -1.9790  -21.2650  -46.1777 H         1 UNK         0.3000 
    191 H191       -3.8565  -22.5215  -47.8927 H         1 UNK         0.0600 
    192 H192       -4.4146  -20.6866  -46.2909 H         1 UNK         0.0600 
    193 H193       -5.4656  -22.0803  -46.0795 H         1 UNK         0.0600 
    194 H194       -4.1629  -21.7888  -44.9376 H         1 UNK         0.0600 
    195 H195       -2.2973  -23.6723  -44.8564 H         1 UNK         0.3000 
    196 H196       -3.5555  -26.2049  -44.7227 H         1 UNK         0.0600 
    197 H197       -0.8093  -25.3109  -43.6972 H         1 UNK         0.0600 
    198 H198       -1.6584  -26.7677  -43.1951 H         1 UNK         0.0600 
    199 H199       -2.3346  -25.1901  -42.8217 H         1 UNK         0.0600 
    200 H200       -0.7330  -25.1218  -46.5738 H         1 UNK         0.3000 
    201 H201        0.0499  -27.7458  -47.5296 H         1 UNK         0.0600 
    202 H202        0.8387  -24.9367  -48.4539 H         1 UNK         0.0600 
    203 H203        1.6866  -25.9017  -47.2479 H         1 UNK         0.0600 
    204 H204        1.6295  -26.4367  -48.9199 H         1 UNK         0.0600 
    205 H205       -2.4357  -27.9689  -47.9836 H         1 UNK         0.3000 
    206 H206       -4.0361  -28.5215  -49.4165 H         1 UNK         0.0600 
    207 H207       -2.1709  -29.8650  -50.3993 H         1 UNK         0.0600 
    208 H208       -3.3554  -29.4154  -51.6136 H         1 UNK         0.0600 
    209 H209       -1.8210  -28.5599  -51.5321 H         1 UNK         0.0600 
    210 H210       -3.9817  -25.7916  -48.8989 H         1 UNK         0.3000 
    211 H211       -4.9563  -23.8983  -49.4192 H         1 UNK         0.0600 
    212 H212       -6.8700  -25.3908  -50.0200 H         1 UNK         0.0600 
    213 H213       -6.8835  -23.8851  -50.9208 H         1 UNK         0.0600 
    214 H214       -6.3534  -25.3642  -51.7064 H         1 UNK         0.0600 
    215 H215       -2.3201  -24.4215  -50.6589 H         1 UNK         0.3000 
    216 H216       -2.3082  -22.9998  -53.2067 H         1 UNK         0.0600 
    217 H217       -0.0249  -24.0165  -51.4439 H         1 UNK         0.0600 
    218 H218        0.1258  -23.4384  -53.1005 H         1 UNK         0.0600 
    219 H219       -0.7755  -24.9089  -52.7658 H         1 UNK         0.0600 
    220 H220       -3.5511  -21.2634  -51.7147 H         1 UNK         0.3000 
    221 H221       -1.6584  -19.0454  -51.2085 H         1 UNK         0.0600 
    222 H222       -3.9845  -19.8205  -49.3444 H         1 UNK         0.0600 
    223 H223       -2.2874  -20.0578  -48.9601 H         1 UNK         0.0600 
    224 H224       -2.9155  -18.4355  -49.1502 H         1 UNK         0.0600 
    225 H225       -2.9798  -16.9801  -51.0928 H         1 UNK         0.3000 
    226 H226       -4.2742  -15.4414  -52.0435 H         1 UNK         0.0600 
    227 H227       -5.7423  -16.4245  -50.2860 H         1 UNK         0.0600 
    228 H228       -6.6881  -15.7803  -51.6172 H         1 UNK         0.0600 
    229 H229       -6.4509  -17.5184  -51.4732 H         1 UNK         0.0600 
    230 H230       -2.9840  -16.7375  -54.0271 H         1 UNK         0.3000 
    231 H231       -2.7725  -16.8029  -56.2029 H         1 UNK         0.0600 
    232 H232       -5.6010  -15.7008  -56.5701 H         1 UNK         0.0600 
    233 H233       -4.3020  -15.7026  -57.7490 H         1 UNK         0.0600 
    234 H234       -4.1616  -14.7159  -56.3045 H         1 UNK         0.0600 
    235 H235       -4.5509  -18.9603  -54.5801 H         1 UNK         0.3000 
    236 H236       -5.1250  -20.7035  -56.9246 H         1 UNK         0.0600 
    237 H237       -5.5991  -21.1948  -53.9448 H         1 UNK         0.0600 
    238 H238       -6.8128  -20.5929  -55.0710 H         1 UNK         0.0600 
    239 H239       -6.1387  -22.2020  -55.2766 H         1 UNK         0.0600 
    240 H240       -2.4837  -19.6749  -55.7686 H         1 UNK         0.3000 
    241 H241       -0.8662  -21.5837  -54.6165 H         1 UNK         0.0600 
    242 H242       -0.7804  -23.5041  -57.9833 H         1 UNK         0.3800 
    243 H243       -2.1474  -22.8724  -57.0818 H         1 UNK         0.3800 
    244 H244       -0.0570  -19.2426  -56.4067 H         1 UNK         0.0800 
    245 H245        0.9808  -20.0533  -55.2660 H         1 UNK         0.0800 
    246 H246        1.5282  -17.5944  -53.8922 H         1 UNK         0.0800 
    247 H247        1.5018  -19.1981  -53.1879 H         1 UNK         0.0800 
@<TRIPOS>BOND
     1    1    2 1    
     2    1  127 1    
     3    1  128 1    
     4    1  129 1    
     5    2    3 2    
     6    2    4 am   BACKBONE|DICT|INTERRES
     7    4    5 1    
     8    4  130 1    
     9    5    6 1    
    10    5   65 1    
    11    5  131 1    
    12    6    7 1    
    13    6  132 1    
    14    6  133 1    
    15    7    8 1    
    16    8    9 1    
    17    8  134 1    
    18    8  135 1    
    19    9   10 ar   
    20    9   14 ar   
    21   10   11 ar   
    22   10  136 1    
    23   11   12 ar   
    24   11  126 1    
    25   12   13 ar   
    26   12  137 1    
    27   13   14 ar   
    28   13   15 1    
    29   14  138 1    
    30   15   16 1    
    31   15  139 1    
    32   15  140 1    
    33   16   17 1    
    34   17   18 1    
    35   17  141 1    
    36   17  142 1    
    37   18   19 1    
    38   18   67 1    
    39   18  143 1    
    40   19   20 am   BACKBONE|DICT|INTERRES
    41   19  144 1    
    42   20   21 2    
    43   20   22 1    
    44   22   23 1    
    45   22   24 1    
    46   22  145 1    
    47   23  146 1    
    48   23  147 1    
    49   23  148 1    
    50   24   25 am   BACKBONE|DICT|INTERRES
    51   24  149 1    
    52   25   26 2    
    53   25   27 1    
    54   27   28 1    
    55   27   29 1    
    56   27  150 1    
    57   28  151 1    
    58   28  152 1    
    59   28  153 1    
    60   29   30 am   BACKBONE|DICT|INTERRES
    61   29  154 1    
    62   30   31 2    
    63   30   32 1    
    64   32   33 1    
    65   32   34 1    
    66   32  155 1    
    67   33  156 1    
    68   33  157 1    
    69   33  158 1    
    70   34   35 am   BACKBONE|DICT|INTERRES
    71   34  159 1    
    72   35   36 2    
    73   35   37 1    
    74   37   38 1    
    75   37   39 1    
    76   37  160 1    
    77   38  161 1    
    78   38  162 1    
    79   38  163 1    
    80   39   40 am   BACKBONE|DICT|INTERRES
    81   39  164 1    
    82   40   41 2    
    83   40   42 1    
    84   42   43 1    
    85   42   44 1    
    86   42  165 1    
    87   43  166 1    
    88   43  167 1    
    89   43  168 1    
    90   44   45 am   BACKBONE|DICT|INTERRES
    91   44  169 1    
    92   45   46 2    
    93   45   47 1    
    94   47   48 1    
    95   47   49 1    
    96   47  170 1    
    97   48  171 1    
    98   48  172 1    
    99   48  173 1    
   100   49   50 am   BACKBONE|DICT|INTERRES
   101   49  174 1    
   102   50   51 2    
   103   50   52 1    
   104   52   53 1    
   105   52   54 1    
   106   52  175 1    
   107   53  176 1    
   108   53  177 1    
   109   53  178 1    
   110   54   55 am   BACKBONE|DICT|INTERRES
   111   54  179 1    
   112   55   56 2    
   113   55   57 1    
   114   57   58 1    
   115   57   59 1    
   116   57  180 1    
   117   58  181 1    
   118   58  182 1    
   119   58  183 1    
   120   59   60 am   BACKBONE|DICT|INTERRES
   121   59  184 1    
   122   60   61 2    
   123   60   62 1    
   124   62   63 1    
   125   62   64 1    
   126   62  185 1    
   127   63  186 1    
   128   63  187 1    
   129   63  188 1    
   130   64   65 am   BACKBONE|DICT|INTERRES
   131   64  189 1    
   132   65   66 2    
   133   67   68 2    
   134   67   69 am   BACKBONE|DICT|INTERRES
   135   69   70 1    
   136   69  190 1    
   137   70   71 1    
   138   70   72 1    
   139   70  191 1    
   140   71  192 1    
   141   71  193 1    
   142   71  194 1    
   143   72   73 2    
   144   72   74 am   BACKBONE|DICT|INTERRES
   145   74   75 1    
   146   74  195 1    
   147   75   76 1    
   148   75   77 1    
   149   75  196 1    
   150   76  197 1    
   151   76  198 1    
   152   76  199 1    
   153   77   78 2    
   154   77   79 am   BACKBONE|DICT|INTERRES
   155   79   80 1    
   156   79  200 1    
   157   80   81 1    
   158   80   82 1    
   159   80  201 1    
   160   81  202 1    
   161   81  203 1    
   162   81  204 1    
   163   82   83 2    
   164   82   84 am   BACKBONE|DICT|INTERRES
   165   84   85 1    
   166   84  205 1    
   167   85   86 1    
   168   85   87 1    
   169   85  206 1    
   170   86  207 1    
   171   86  208 1    
   172   86  209 1    
   173   87   88 2    
   174   87   89 am   BACKBONE|DICT|INTERRES
   175   89   90 1    
   176   89  210 1    
   177   90   91 1    
   178   90   92 1    
   179   90  211 1    
   180   91  212 1    
   181   91  213 1    
   182   91  214 1    
   183   92   93 2    
   184   92   94 am   BACKBONE|DICT|INTERRES
   185   94   95 1    
   186   94  215 1    
   187   95   96 1    
   188   95   97 1    
   189   95  216 1    
   190   96  217 1    
   191   96  218 1    
   192   96  219 1    
   193   97   98 2    
   194   97   99 am   BACKBONE|DICT|INTERRES
   195   99  100 1    
   196   99  220 1    
   197  100  101 1    
   198  100  102 1    
   199  100  221 1    
   200  101  222 1    
   201  101  223 1    
   202  101  224 1    
   203  102  103 2    
   204  102  104 am   BACKBONE|DICT|INTERRES
   205  104  105 1    
   206  104  225 1    
   207  105  106 1    
   208  105  107 1    
   209  105  226 1    
   210  106  227 1    
   211  106  228 1    
   212  106  229 1    
   213  107  108 2    
   214  107  109 am   BACKBONE|DICT|INTERRES
   215  109  110 1    
   216  109  230 1    
   217  110  111 1    
   218  110  112 1    
   219  110  231 1    
   220  111  232 1    
   221  111  233 1    
   222  111  234 1    
   223  112  113 2    
   224  112  114 am   BACKBONE|DICT|INTERRES
   225  114  115 1    
   226  114  235 1    
   227  115  116 1    
   228  115  117 1    
   229  115  236 1    
   230  116  237 1    
   231  116  238 1    
   232  116  239 1    
   233  117  118 2    
   234  117  119 am   BACKBONE|DICT|INTERRES
   235  119  120 1    
   236  119  240 1    
   237  120  121 1    
   238  120  124 1    
   239  120  241 1    
   240  121  122 am   BACKBONE|DICT|INTERRES
   241  121  123 2    
   242  122  242 1    
   243  122  243 1    
   244  124  125 1    
   245  124  244 1    
   246  124  245 1    
   247  125  126 1    
   248  126  246 1    
   249  126  247 1    
@<TRIPOS>SUBSTRUCTURE
     1 UNK         1 GROUP             0       ****    0 ROOT    
