@<TRIPOS>MOLECULE
3R540
247   249    1
SMALL
USER_CHARGES


@<TRIPOS>ATOM
      1 CA          3.4595  -10.0447  -48.4702 C.3       0 UNK        -0.1800 
      2 C           3.9733  -11.3697  -47.9242 C.2       0 UNK         0.5000 
      3 O           5.1459  -11.4693  -47.5606 O.2       0 UNK        -0.5000 
      4 N           3.1049  -12.3866  -47.8752 N.am      1 UNK        -0.5000 
      5 CA          3.4003  -13.7198  -47.3383 C.3       1 UNK         0.1400 
      6 C6          2.3686  -14.7769  -47.8062 C.3       23 UNK        -0.0398 
      7 S7          2.1957  -14.8588  -49.6219 S.3       23 UNK        -0.2404 
      8 C8          3.4273  -16.1244  -50.0925 C.3       23 UNK        -0.0205 
      9 C9          2.8141  -17.4776  -50.4452 C.ar      23 UNK        -0.0193 
     10 C10         1.7626  -17.5616  -51.3649 C.ar      23 UNK        -0.1150 
     11 C11         1.2281  -18.7997  -51.7323 C.ar      23 UNK        -0.0193 
     12 C12         1.7704  -19.9683  -51.1901 C.ar      23 UNK        -0.1150 
     13 C13         2.8389  -19.9055  -50.2905 C.ar      23 UNK        -0.0193 
     14 C14         3.3478  -18.6569  -49.9131 C.ar      23 UNK        -0.1150 
     15 C15         3.4834  -21.1896  -49.7820 C.3       23 UNK        -0.0205 
     16 S16         3.3139  -21.4090  -47.9841 S.3       23 UNK        -0.2404 
     17 C17         1.5188  -21.6717  -47.7955 C.3       23 UNK        -0.0398 
     18 CA          1.1712  -22.7394  -46.7325 C.3       11 UNK         0.1400 
     19 N           1.7799  -22.4240  -45.4386 N.am      11 UNK        -0.5000 
     20 C           2.1811  -23.3152  -44.5263 C.2       10 UNK         0.5000 
     21 O           2.0650  -24.5325  -44.6639 O.2       10 UNK        -0.5000 
     22 CA          2.8239  -22.7486  -43.2436 C.3       10 UNK         0.1400 
     23 CB          4.3533  -22.7188  -43.3836 C.3       10 UNK        -0.1800 
     24 N           2.3521  -21.4007  -42.9128 N.am      10 UNK        -0.5000 
     25 C           1.1319  -21.1279  -42.4317 C.2       9 UNK         0.5000 
     26 O           0.2966  -21.9931  -42.1660 O.2       9 UNK        -0.5000 
     27 CA          0.7619  -19.6385  -42.2717 C.3       9 UNK         0.1400 
     28 CB          1.1597  -19.1169  -40.8845 C.3       9 UNK        -0.1800 
     29 N           1.3161  -18.7527  -43.3045 N.am      9 UNK        -0.5000 
     30 C           1.0878  -18.8867  -44.6162 C.2       8 UNK         0.5000 
     31 O           0.4516  -19.8238  -45.0946 O.2       8 UNK        -0.5000 
     32 CA          1.7310  -17.8542  -45.5562 C.3       8 UNK         0.1400 
     33 CB          3.2223  -18.1842  -45.7328 C.3       8 UNK        -0.1800 
     34 N           1.0984  -17.8307  -46.8781 N.am      8 UNK        -0.5000 
     35 C          -0.1660  -17.4633  -47.1250 C.2       7 UNK         0.5000 
     36 O          -0.9652  -17.0721  -46.2687 O.2       7 UNK        -0.5000 
     37 CA         -0.6180  -17.5573  -48.5869 C.3       7 UNK         0.1400 
     38 CB         -0.8969  -19.0083  -48.9929 C.3       7 UNK        -0.1800 
     39 N          -1.8388  -16.7840  -48.7212 N.am      7 UNK        -0.5000 
     40 C          -2.1478  -15.9680  -49.7308 C.2       6 UNK         0.5000 
     41 O          -1.5081  -15.8972  -50.7802 O.2       6 UNK        -0.5000 
     42 CA         -3.3815  -15.0646  -49.5291 C.3       6 UNK         0.1400 
     43 CB         -4.5485  -15.5503  -50.4031 C.3       6 UNK        -0.1800 
     44 N          -3.8405  -14.9713  -48.1364 N.am      6 UNK        -0.5000 
     45 C          -3.1717  -14.3934  -47.1264 C.2       5 UNK         0.5000 
     46 O          -2.0621  -13.8751  -47.2533 O.2       5 UNK        -0.5000 
     47 CA         -3.8552  -14.3765  -45.7490 C.3       5 UNK         0.1400 
     48 CB         -5.3112  -14.8959  -45.7507 C.3       5 UNK        -0.1800 
     49 N          -3.0630  -15.1331  -44.7788 N.am      5 UNK        -0.5000 
     50 C          -3.0472  -14.8716  -43.4653 C.2       4 UNK         0.5000 
     51 O          -3.6166  -13.9017  -42.9603 O.2       4 UNK        -0.5000 
     52 CA         -2.3206  -15.8565  -42.5263 C.3       4 UNK         0.1400 
     53 CB         -2.1271  -17.2758  -43.0956 C.3       4 UNK        -0.1800 
     54 N          -1.0689  -15.3102  -41.9954 N.am      4 UNK        -0.5000 
     55 C           0.0068  -14.9118  -42.6893 C.2       3 UNK         0.5000 
     56 O           0.1041  -14.9963  -43.9144 O.2       3 UNK        -0.5000 
     57 CA          1.1443  -14.2608  -41.8704 C.3       3 UNK         0.1400 
     58 CB          1.3534  -14.8983  -40.4782 C.3       3 UNK        -0.1800 
     59 N           2.4116  -14.1913  -42.6038 N.am      3 UNK        -0.5000 
     60 C           3.1836  -15.2081  -43.0076 C.2       2 UNK         0.5000 
     61 O           2.9321  -16.3984  -42.8018 O.2       2 UNK        -0.5000 
     62 CA          4.4556  -14.8080  -43.7842 C.3       2 UNK         0.1400 
     63 CB          5.6073  -15.8042  -43.5644 C.3       2 UNK        -0.1800 
     64 N           4.2133  -14.6687  -45.2219 N.am      2 UNK        -0.5000 
     65 C           3.5017  -13.6877  -45.7949 C.2       1 UNK         0.5000 
     66 O           2.9509  -12.7859  -45.1567 O.2       1 UNK        -0.5000 
     67 C          -0.3571  -22.8880  -46.5818 C.2       11 UNK         0.5000 
     68 O          -0.9630  -23.7351  -47.2380 O.2       11 UNK        -0.5000 
     69 N          -0.9569  -22.0916  -45.6859 N.am      12 UNK        -0.5000 
     70 CA         -2.3634  -22.1352  -45.2865 C.3       12 UNK         0.1400 
     71 CB         -2.6440  -20.9871  -44.3058 C.3       12 UNK        -0.1800 
     72 C          -2.7718  -23.4867  -44.6736 C.2       12 UNK         0.5000 
     73 O          -3.9051  -23.9220  -44.8725 O.2       12 UNK        -0.5000 
     74 N          -1.8220  -24.1627  -44.0115 N.am      13 UNK        -0.5000 
     75 CA         -1.9551  -25.5342  -43.5124 C.3       13 UNK         0.1400 
     76 CB         -0.7390  -25.8641  -42.6344 C.3       13 UNK        -0.1800 
     77 C          -2.1195  -26.5864  -44.6322 C.2       13 UNK         0.5000 
     78 O          -2.6803  -27.6524  -44.3782 O.2       13 UNK        -0.5000 
     79 N          -1.6615  -26.2599  -45.8492 N.am      14 UNK        -0.5000 
     80 CA         -1.8444  -27.0420  -47.0737 C.3       14 UNK         0.1400 
     81 CB         -0.5115  -27.0735  -47.8427 C.3       14 UNK        -0.1800 
     82 C          -2.9903  -26.4805  -47.9458 C.2       14 UNK         0.5000 
     83 O          -3.1116  -26.8710  -49.1073 O.2       14 UNK        -0.5000 
     84 N          -3.8058  -25.5778  -47.3769 N.am      15 UNK        -0.5000 
     85 CA         -4.9782  -24.9156  -47.9578 C.3       15 UNK         0.1400 
     86 CB         -6.0501  -25.9394  -48.3860 C.3       15 UNK        -0.1800 
     87 C          -4.6610  -23.8961  -49.0705 C.2       15 UNK         0.5000 
     88 O          -5.5810  -23.4707  -49.7706 O.2       15 UNK        -0.5000 
     89 N          -3.3987  -23.4581  -49.1958 N.am      16 UNK        -0.5000 
     90 CA         -2.9699  -22.4914  -50.2160 C.3       16 UNK         0.1400 
     91 CB         -1.4390  -22.4141  -50.2360 C.3       16 UNK        -0.1800 
     92 C          -3.5668  -21.0827  -50.0256 C.2       16 UNK         0.5000 
     93 O          -3.6610  -20.3297  -50.9919 O.2       16 UNK        -0.5000 
     94 N          -3.9587  -20.7485  -48.7881 N.am      17 UNK        -0.5000 
     95 CA         -4.6389  -19.4960  -48.4573 C.3       17 UNK         0.1400 
     96 CB         -4.4620  -19.1998  -46.9606 C.3       17 UNK        -0.1800 
     97 C          -6.1304  -19.5195  -48.8440 C.2       17 UNK         0.5000 
     98 O          -6.6961  -18.4604  -49.1129 O.2       17 UNK        -0.5000 
     99 N          -6.7356  -20.7169  -48.8764 N.am      18 UNK        -0.5000 
    100 CA        -8.0972  -20.9399  -49.3632 C.3       18 UNK         0.1400 
    101 CB        -8.6735  -22.2211  -48.7397 C.3       18 UNK        -0.1800 
    102 C         -8.1071  -21.0104  -50.8984 C.2       18 UNK         0.5000 
    103 O         -8.9112  -20.3325  -51.5393 O.2       18 UNK        -0.5000 
    104 N         -7.1589  -21.7679  -51.4670 N.am      19 UNK        -0.5000 
    105 CA        -6.8508  -21.8241  -52.8967 C.3       19 UNK         0.1400 
    106 CB        -6.1651  -23.1679  -53.2007 C.3       19 UNK        -0.1800 
    107 C         -5.9959  -20.6097  -53.3194 C.2       19 UNK         0.5000 
    108 O         -4.8927  -20.7749  -53.8441 O.2       19 UNK        -0.5000 
    109 N         -6.5299  -19.4065  -53.0634 N.am      20 UNK        -0.5000 
    110 CA        -5.8721  -18.0964  -53.1340 C.3       20 UNK         0.1400 
    111 CB        -6.8817  -17.0262  -52.6898 C.3       20 UNK        -0.1800 
    112 C         -5.2509  -17.7190  -54.4941 C.2       20 UNK         0.5000 
    113 O         -4.4311  -16.8016  -54.5469 O.2       20 UNK        -0.5000 
    114 N         -5.6246  -18.4380  -55.5611 N.am      21 UNK        -0.5000 
    115 CA        -4.9948  -18.3798  -56.8807 C.3       21 UNK         0.1400 
    116 CB        -5.8299  -19.2133  -57.8648 C.3       21 UNK        -0.1800 
    117 C         -3.5249  -18.8547  -56.8827 C.2       21 UNK         0.5000 
    118 O         -2.7750  -18.4615  -57.7770 O.2       21 UNK        -0.5000 
    119 N         -3.1354  -19.6683  -55.8873 N.am      22 UNK        -0.5000 
    120 CA        -1.7674  -20.1698  -55.6668 C.3       22 UNK         0.1400 
    121 C         -1.2919  -21.2214  -56.7204 C.2       22 UNK         0.5000 
    122 N         -2.1921  -21.8705  -57.4498 N.am      22 UNK        -0.7600 
    123 O         -0.1008  -21.4769  -56.8734 O.2       22 UNK        -0.5000 
    124 C124       -0.7595  -19.0058  -55.4291 C.3       23 UNK        -0.0398 
    125 S125        0.6507  -19.4400  -54.3530 S.3       23 UNK        -0.2404 
    126 C126        0.0744  -18.8723  -52.7224 C.3       23 UNK        -0.0205 
    127 H127        2.4117  -10.1067  -48.7652 H         1 UNK         0.0600 
    128 H128        4.0411   -9.7473  -49.3429 H         1 UNK         0.0600 
    129 H129        3.5542   -9.2655  -47.7139 H         1 UNK         0.0600 
    130 H130        2.1527  -12.2415  -48.1777 H         1 UNK         0.3000 
    131 H131        4.3781  -14.0181  -47.7231 H         1 UNK         0.0600 
    132 H132        2.6529  -15.7623  -47.4471 H         1 UNK         0.0800 
    133 H133        1.3843  -14.5680  -47.3815 H         1 UNK         0.0800 
    134 H134        3.9658  -15.7627  -50.9693 H         1 UNK         0.0800 
    135 H135        4.1742  -16.2267  -49.3040 H         1 UNK         0.0800 
    136 H136        1.3553  -16.6567  -51.7943 H         1 UNK         0.1150 
    137 H137        1.3725  -20.9272  -51.4912 H         1 UNK         0.1150 
    138 H138        4.1829  -18.6104  -49.2279 H         1 UNK         0.1150 
    139 H139        3.0734  -22.0635  -50.2908 H         1 UNK         0.0800 
    140 H140        4.5455  -21.1674  -50.0298 H         1 UNK         0.0800 
    141 H141        1.1080  -21.9567  -48.7635 H         1 UNK         0.0800 
    142 H142        1.0754  -20.7140  -47.5272 H         1 UNK         0.0800 
    143 H143        1.5587  -23.6987  -47.0825 H         1 UNK         0.0600 
    144 H144        1.8559  -21.4403  -45.2196 H         1 UNK         0.3000 
    145 H145        2.5680  -23.4190  -42.4203 H         1 UNK         0.0600 
    146 H146        4.8278  -22.3806  -42.4623 H         1 UNK         0.0600 
    147 H147        4.7446  -23.7130  -43.6036 H         1 UNK         0.0600 
    148 H148        4.6710  -22.0556  -44.1895 H         1 UNK         0.0600 
    149 H149        2.9801  -20.6332  -43.1012 H         1 UNK         0.3000 
    150 H150       -0.3241  -19.5866  -42.3502 H         1 UNK         0.0600 
    151 H151        2.2420  -19.0297  -40.7818 H         1 UNK         0.0600 
    152 H152        0.8042  -19.7819  -40.0962 H         1 UNK         0.0600 
    153 H153        0.7219  -18.1367  -40.6995 H         1 UNK         0.0600 
    154 H154        1.8762  -17.9633  -42.9881 H         1 UNK         0.3000 
    155 H155        1.6255  -16.8637  -45.1121 H         1 UNK         0.0600 
    156 H156        3.3641  -19.1616  -46.1909 H         1 UNK         0.0600 
    157 H157        3.7341  -18.2071  -44.7711 H         1 UNK         0.0600 
    158 H158        3.7339  -17.4509  -46.3533 H         1 UNK         0.0600 
    159 H159        1.6571  -18.1787  -47.6427 H         1 UNK         0.3000 
    160 H160        0.1608  -17.1303  -49.2178 H         1 UNK         0.0600 
    161 H161       -1.5064  -19.5267  -48.2530 H         1 UNK         0.0600 
    162 H162        0.0318  -19.5605  -49.1018 H         1 UNK         0.0600 
    163 H163       -1.4074  -19.0547  -49.9541 H         1 UNK         0.0600 
    164 H164       -2.3654  -16.7064  -47.8618 H         1 UNK         0.3000 
    165 H165       -3.1022  -14.0614  -49.8575 H         1 UNK         0.0600 
    166 H166       -5.4015  -14.8747  -50.3381 H         1 UNK         0.0600 
    167 H167       -4.2551  -15.6004  -51.4527 H         1 UNK         0.0600 
    168 H168       -4.8847  -16.5453  -50.1107 H         1 UNK         0.0600 
    169 H169       -4.7516  -15.3611  -47.9432 H         1 UNK         0.3000 
    170 H170       -3.8754  -13.3257  -45.4523 H         1 UNK         0.0600 
    171 H171       -5.7741  -14.7629  -44.7727 H         1 UNK         0.0600 
    172 H172       -5.9286  -14.3498  -46.4652 H         1 UNK         0.0600 
    173 H173       -5.3654  -15.9569  -45.9952 H         1 UNK         0.0600 
    174 H174       -2.4639  -15.8656  -45.1473 H         1 UNK         0.3000 
    175 H175       -2.9842  -15.9631  -41.6667 H         1 UNK         0.0600 
    176 H176       -3.0218  -17.6323  -43.6075 H         1 UNK         0.0600 
    177 H177       -1.2965  -17.3294  -43.7946 H         1 UNK         0.0600 
    178 H178       -1.9242  -17.9783  -42.2891 H         1 UNK         0.0600 
    179 H179       -1.0619  -15.1602  -40.9967 H         1 UNK         0.3000 
    180 H180        0.8396  -13.2252  -41.7132 H         1 UNK         0.0600 
    181 H181        1.5700  -15.9637  -40.5471 H         1 UNK         0.0600 
    182 H182        0.4751  -14.7793  -39.8435 H         1 UNK         0.0600 
    183 H183        2.1852  -14.4268  -39.9546 H         1 UNK         0.0600 
    184 H184        2.6562  -13.2714  -42.9480 H         1 UNK         0.3000 
    185 H185        4.7902  -13.8417  -43.4002 H         1 UNK         0.0600 
    186 H186        5.8035  -15.9434  -42.5004 H         1 UNK         0.0600 
    187 H187        5.3889  -16.7842  -43.9868 H         1 UNK         0.0600 
    188 H188        6.5305  -15.4439  -44.0185 H         1 UNK         0.0600 
    189 H189        4.6432  -15.3692  -45.8069 H         1 UNK         0.3000 
    190 H190       -0.4000  -21.3486  -45.2656 H         1 UNK         0.3000 
    191 H191       -2.9657  -21.9804  -46.1827 H         1 UNK         0.0600 
    192 H192       -2.3633  -20.0235  -44.7312 H         1 UNK         0.0600 
    193 H193       -3.7039  -20.9373  -44.0539 H         1 UNK         0.0600 
    194 H194       -2.0903  -21.1111  -43.3749 H         1 UNK         0.0600 
    195 H195       -0.9257  -23.7158  -43.8767 H         1 UNK         0.3000 
    196 H196       -2.8500  -25.5768  -42.8882 H         1 UNK         0.0600 
    197 H197       -0.8355  -26.8558  -42.1906 H         1 UNK         0.0600 
    198 H198       -0.6355  -25.1503  -41.8168 H         1 UNK         0.0600 
    199 H199        0.1869  -25.8517  -43.2099 H         1 UNK         0.0600 
    200 H200       -1.2417  -25.3477  -45.9853 H         1 UNK         0.3000 
    201 H201       -2.1103  -28.0708  -46.8234 H         1 UNK         0.0600 
    202 H202       -0.5769  -27.7253  -48.7146 H         1 UNK         0.0600 
    203 H203        0.2956  -27.4534  -47.2161 H         1 UNK         0.0600 
    204 H204       -0.2230  -26.0835  -48.1961 H         1 UNK         0.0600 
    205 H205       -3.6124  -25.3115  -46.4187 H         1 UNK         0.3000 
    206 H206       -5.4096  -24.3279  -47.1466 H         1 UNK         0.0600 
    207 H207       -6.2683  -26.6423  -47.5821 H         1 UNK         0.0600 
    208 H208       -6.9867  -25.4428  -48.6419 H         1 UNK         0.0600 
    209 H209       -5.7395  -26.5125  -49.2599 H         1 UNK         0.0600 
    210 H210       -2.6813  -23.8251  -48.5807 H         1 UNK         0.3000 
    211 H211       -3.3025  -22.8608  -51.1879 H         1 UNK         0.0600 
    212 H212       -1.0660  -21.9599  -49.3208 H         1 UNK         0.0600 
    213 H213       -1.0895  -21.8038  -51.0697 H         1 UNK         0.0600 
    214 H214       -0.9870  -23.4009  -50.3376 H         1 UNK         0.0600 
    215 H215       -3.8318  -21.4189  -48.0469 H         1 UNK         0.3000 
    216 H216       -4.1682  -18.6842  -49.0160 H         1 UNK         0.0600 
    217 H217       -4.9703  -18.2761  -46.6829 H         1 UNK         0.0600 
    218 H218       -3.4095  -19.0755  -46.7063 H         1 UNK         0.0600 
    219 H219       -4.8702  -19.9974  -46.3391 H         1 UNK         0.0600 
    220 H220       -6.1844  -21.5436  -48.6981 H         1 UNK         0.3000 
    221 H221       -8.7293  -20.1036  -49.0565 H         1 UNK         0.0600 
    222 H222       -8.1042  -23.1071  -49.0207 H         1 UNK         0.0600 
    223 H223       -8.6810  -22.1598  -47.6514 H         1 UNK         0.0600 
    224 H224       -9.7029  -22.3795  -49.0632 H         1 UNK         0.0600 
    225 H225       -6.5431  -22.3054  -50.8614 H         1 UNK         0.3000 
    226 H226       -7.7815  -21.7864  -53.4663 H         1 UNK         0.0600 
    227 H227       -5.9526  -23.2678  -54.2658 H         1 UNK         0.0600 
    228 H228       -5.2209  -23.2678  -52.6648 H         1 UNK         0.0600 
    229 H229       -6.7998  -24.0070  -52.9154 H         1 UNK         0.0600 
    230 H230       -7.4505  -19.4086  -52.6377 H         1 UNK         0.3000 
    231 H231       -5.0536  -18.1142  -52.4114 H         1 UNK         0.0600 
    232 H232       -7.7615  -17.0143  -53.3342 H         1 UNK         0.0600 
    233 H233       -6.4414  -16.0288  -52.7190 H         1 UNK         0.0600 
    234 H234       -7.2160  -17.2012  -51.6668 H         1 UNK         0.0600 
    235 H235       -6.3015  -19.1719  -55.4157 H         1 UNK         0.3000 
    236 H236       -5.0049  -17.3400  -57.2139 H         1 UNK         0.0600 
    237 H237       -6.8514  -18.8384  -57.9319 H         1 UNK         0.0600 
    238 H238       -5.4047  -19.1749  -58.8686 H         1 UNK         0.0600 
    239 H239       -5.8748  -20.2616  -57.5668 H         1 UNK         0.0600 
    240 H240       -3.8233  -19.9694  -55.2005 H         1 UNK         0.3000 
    241 H241       -1.8397  -20.7298  -54.7338 H         1 UNK         0.0600 
    242 H242       -3.1751  -21.6842  -57.3329 H         1 UNK         0.3800 
    243 H243       -1.8858  -22.5533  -58.1250 H         1 UNK         0.3800 
    244 H244       -0.3694  -18.6390  -56.3798 H         1 UNK         0.0800 
    245 H245       -1.2703  -18.1526  -54.9805 H         1 UNK         0.0800 
    246 H246       -0.3996  -17.8935  -52.8139 H         1 UNK         0.0800 
    247 H247       -0.6934  -19.5525  -52.3505 H         1 UNK         0.0800 
@<TRIPOS>BOND
     1    1    2 1    
     2    1  127 1    
     3    1  128 1    
     4    1  129 1    
     5    2    3 2    
     6    2    4 am   BACKBONE|DICT|INTERRES
     7    4    5 1    
     8    4  130 1    
     9    5    6 1    
    10    5   65 1    
    11    5  131 1    
    12    6    7 1    
    13    6  132 1    
    14    6  133 1    
    15    7    8 1    
    16    8    9 1    
    17    8  134 1    
    18    8  135 1    
    19    9   10 ar   
    20    9   14 ar   
    21   10   11 ar   
    22   10  136 1    
    23   11   12 ar   
    24   11  126 1    
    25   12   13 ar   
    26   12  137 1    
    27   13   14 ar   
    28   13   15 1    
    29   14  138 1    
    30   15   16 1    
    31   15  139 1    
    32   15  140 1    
    33   16   17 1    
    34   17   18 1    
    35   17  141 1    
    36   17  142 1    
    37   18   19 1    
    38   18   67 1    
    39   18  143 1    
    40   19   20 am   BACKBONE|DICT|INTERRES
    41   19  144 1    
    42   20   21 2    
    43   20   22 1    
    44   22   23 1    
    45   22   24 1    
    46   22  145 1    
    47   23  146 1    
    48   23  147 1    
    49   23  148 1    
    50   24   25 am   BACKBONE|DICT|INTERRES
    51   24  149 1    
    52   25   26 2    
    53   25   27 1    
    54   27   28 1    
    55   27   29 1    
    56   27  150 1    
    57   28  151 1    
    58   28  152 1    
    59   28  153 1    
    60   29   30 am   BACKBONE|DICT|INTERRES
    61   29  154 1    
    62   30   31 2    
    63   30   32 1    
    64   32   33 1    
    65   32   34 1    
    66   32  155 1    
    67   33  156 1    
    68   33  157 1    
    69   33  158 1    
    70   34   35 am   BACKBONE|DICT|INTERRES
    71   34  159 1    
    72   35   36 2    
    73   35   37 1    
    74   37   38 1    
    75   37   39 1    
    76   37  160 1    
    77   38  161 1    
    78   38  162 1    
    79   38  163 1    
    80   39   40 am   BACKBONE|DICT|INTERRES
    81   39  164 1    
    82   40   41 2    
    83   40   42 1    
    84   42   43 1    
    85   42   44 1    
    86   42  165 1    
    87   43  166 1    
    88   43  167 1    
    89   43  168 1    
    90   44   45 am   BACKBONE|DICT|INTERRES
    91   44  169 1    
    92   45   46 2    
    93   45   47 1    
    94   47   48 1    
    95   47   49 1    
    96   47  170 1    
    97   48  171 1    
    98   48  172 1    
    99   48  173 1    
   100   49   50 am   BACKBONE|DICT|INTERRES
   101   49  174 1    
   102   50   51 2    
   103   50   52 1    
   104   52   53 1    
   105   52   54 1    
   106   52  175 1    
   107   53  176 1    
   108   53  177 1    
   109   53  178 1    
   110   54   55 am   BACKBONE|DICT|INTERRES
   111   54  179 1    
   112   55   56 2    
   113   55   57 1    
   114   57   58 1    
   115   57   59 1    
   116   57  180 1    
   117   58  181 1    
   118   58  182 1    
   119   58  183 1    
   120   59   60 am   BACKBONE|DICT|INTERRES
   121   59  184 1    
   122   60   61 2    
   123   60   62 1    
   124   62   63 1    
   125   62   64 1    
   126   62  185 1    
   127   63  186 1    
   128   63  187 1    
   129   63  188 1    
   130   64   65 am   BACKBONE|DICT|INTERRES
   131   64  189 1    
   132   65   66 2    
   133   67   68 2    
   134   67   69 am   BACKBONE|DICT|INTERRES
   135   69   70 1    
   136   69  190 1    
   137   70   71 1    
   138   70   72 1    
   139   70  191 1    
   140   71  192 1    
   141   71  193 1    
   142   71  194 1    
   143   72   73 2    
   144   72   74 am   BACKBONE|DICT|INTERRES
   145   74   75 1    
   146   74  195 1    
   147   75   76 1    
   148   75   77 1    
   149   75  196 1    
   150   76  197 1    
   151   76  198 1    
   152   76  199 1    
   153   77   78 2    
   154   77   79 am   BACKBONE|DICT|INTERRES
   155   79   80 1    
   156   79  200 1    
   157   80   81 1    
   158   80   82 1    
   159   80  201 1    
   160   81  202 1    
   161   81  203 1    
   162   81  204 1    
   163   82   83 2    
   164   82   84 am   BACKBONE|DICT|INTERRES
   165   84   85 1    
   166   84  205 1    
   167   85   86 1    
   168   85   87 1    
   169   85  206 1    
   170   86  207 1    
   171   86  208 1    
   172   86  209 1    
   173   87   88 2    
   174   87   89 am   BACKBONE|DICT|INTERRES
   175   89   90 1    
   176   89  210 1    
   177   90   91 1    
   178   90   92 1    
   179   90  211 1    
   180   91  212 1    
   181   91  213 1    
   182   91  214 1    
   183   92   93 2    
   184   92   94 am   BACKBONE|DICT|INTERRES
   185   94   95 1    
   186   94  215 1    
   187   95   96 1    
   188   95   97 1    
   189   95  216 1    
   190   96  217 1    
   191   96  218 1    
   192   96  219 1    
   193   97   98 2    
   194   97   99 am   BACKBONE|DICT|INTERRES
   195   99  100 1    
   196   99  220 1    
   197  100  101 1    
   198  100  102 1    
   199  100  221 1    
   200  101  222 1    
   201  101  223 1    
   202  101  224 1    
   203  102  103 2    
   204  102  104 am   BACKBONE|DICT|INTERRES
   205  104  105 1    
   206  104  225 1    
   207  105  106 1    
   208  105  107 1    
   209  105  226 1    
   210  106  227 1    
   211  106  228 1    
   212  106  229 1    
   213  107  108 2    
   214  107  109 am   BACKBONE|DICT|INTERRES
   215  109  110 1    
   216  109  230 1    
   217  110  111 1    
   218  110  112 1    
   219  110  231 1    
   220  111  232 1    
   221  111  233 1    
   222  111  234 1    
   223  112  113 2    
   224  112  114 am   BACKBONE|DICT|INTERRES
   225  114  115 1    
   226  114  235 1    
   227  115  116 1    
   228  115  117 1    
   229  115  236 1    
   230  116  237 1    
   231  116  238 1    
   232  116  239 1    
   233  117  118 2    
   234  117  119 am   BACKBONE|DICT|INTERRES
   235  119  120 1    
   236  119  240 1    
   237  120  121 1    
   238  120  124 1    
   239  120  241 1    
   240  121  122 am   BACKBONE|DICT|INTERRES
   241  121  123 2    
   242  122  242 1    
   243  122  243 1    
   244  124  125 1    
   245  124  244 1    
   246  124  245 1    
   247  125  126 1    
   248  126  246 1    
   249  126  247 1    
@<TRIPOS>SUBSTRUCTURE
     1 UNK         1 GROUP             0       ****    0 ROOT    
