@<TRIPOS>MOLECULE
3R540
247   249    1
SMALL
USER_CHARGES


@<TRIPOS>ATOM
      1 CA          3.1645  -12.7173  -51.9635 C.3       0 UNK        -0.1800 
      2 C           2.3882  -13.7256  -51.1285 C.2       0 UNK         0.5000 
      3 O           2.6944  -14.9164  -51.1671 O.2       0 UNK        -0.5000 
      4 N           1.3945  -13.2497  -50.3673 N.am      1 UNK        -0.5000 
      5 CA          0.4948  -14.0708  -49.5414 C.3       1 UNK         0.1400 
      6 C6         -0.8903  -13.3969  -49.3444 C.3       23 UNK        -0.0398 
      7 S7         -1.6989  -12.9047  -50.9100 S.3       23 UNK        -0.2404 
      8 C8         -2.8081  -14.3133  -51.2367 C.3       23 UNK        -0.0205 
      9 C9         -2.0249  -15.5711  -51.5766 C.ar      23 UNK        -0.0193 
     10 C10        -1.4972  -15.7487  -52.8585 C.ar      23 UNK        -0.1150 
     11 C11        -0.7262  -16.8755  -53.1613 C.ar      23 UNK        -0.0193 
     12 C12        -0.4921  -17.8327  -52.1690 C.ar      23 UNK        -0.1150 
     13 C13        -1.0210  -17.6667  -50.8852 C.ar      23 UNK        -0.0193 
     14 C14        -1.7988  -16.5426  -50.5993 C.ar      23 UNK        -0.1150 
     15 C15        -0.7536  -18.6948  -49.8012 C.3       23 UNK        -0.0205 
     16 S16         0.9780  -18.6536  -49.2290 S.3       23 UNK        -0.2404 
     17 C17         0.7981  -19.0644  -47.4578 C.3       23 UNK        -0.0398 
     18 CA          0.6591  -20.5817  -47.1640 C.3       11 UNK         0.1400 
     19 N           0.9243  -20.9008  -45.7595 N.am      11 UNK        -0.5000 
     20 C           0.9429  -22.1340  -45.2306 C.2       10 UNK         0.5000 
     21 O           0.8294  -23.1685  -45.8894 O.2       10 UNK        -0.5000 
     22 CA          1.0384  -22.2225  -43.6960 C.3       10 UNK         0.1400 
     23 CB          2.4894  -22.0565  -43.2213 C.3       10 UNK        -0.1800 
     24 N           0.1781  -21.2437  -43.0260 N.am      10 UNK        -0.5000 
     25 C          -1.1604  -21.2307  -43.1179 C.2       9 UNK         0.5000 
     26 O          -1.8105  -22.0773  -43.7305 O.2       9 UNK        -0.5000 
     27 CA         -1.8971  -20.0539  -42.4548 C.3       9 UNK         0.1400 
     28 CB         -2.0542  -20.2905  -40.9456 C.3       9 UNK        -0.1800 
     29 N          -1.2368  -18.7699  -42.6934 N.am      9 UNK        -0.5000 
     30 C          -1.1028  -18.1961  -43.8983 C.2       8 UNK         0.5000 
     31 O          -1.5766  -18.6669  -44.9314 O.2       8 UNK        -0.5000 
     32 CA         -0.2483  -16.9165  -43.9755 C.3       8 UNK         0.1400 
     33 CB         -1.0601  -15.6822  -43.5600 C.3       8 UNK        -0.1800 
     34 N           0.9645  -17.0076  -43.1621 N.am      8 UNK        -0.5000 
     35 C           1.9472  -17.8952  -43.3723 C.2       7 UNK         0.5000 
     36 O           1.9605  -18.6882  -44.3120 O.2       7 UNK        -0.5000 
     37 CA          3.0798  -17.9434  -42.3356 C.3       7 UNK         0.1400 
     38 CB          4.1470  -16.8889  -42.6439 C.3       7 UNK        -0.1800 
     39 N           2.5765  -17.7565  -40.9766 N.am      7 UNK        -0.5000 
     40 C           1.8876  -18.6884  -40.3043 C.2       6 UNK         0.5000 
     41 O           1.6220  -19.8022  -40.7577 O.2       6 UNK        -0.5000 
     42 CA          1.3792  -18.2910  -38.9071 C.3       6 UNK         0.1400 
     43 CB          2.5008  -18.4108  -37.8643 C.3       6 UNK        -0.1800 
     44 N           0.8242  -16.9366  -38.8731 N.am      6 UNK        -0.5000 
     45 C          -0.2845  -16.5630  -39.5261 C.2       5 UNK         0.5000 
     46 O          -0.9520  -17.3208  -40.2274 O.2       5 UNK        -0.5000 
     47 CA         -0.7075  -15.0897  -39.4014 C.3       5 UNK         0.1400 
     48 CB         -1.5784  -14.8857  -38.1527 C.3       5 UNK        -0.1800 
     49 N           0.4076  -14.1397  -39.3744 N.am      5 UNK        -0.5000 
     50 C           1.3110  -13.9774  -40.3504 C.2       4 UNK         0.5000 
     51 O           1.3878  -14.7101  -41.3397 O.2       4 UNK        -0.5000 
     52 CA          2.2750  -12.7900  -40.1683 C.3       4 UNK         0.1400 
     53 CB          3.5352  -13.1991  -39.3795 C.3       4 UNK        -0.1800 
     54 N           2.5839  -12.1263  -41.4421 N.am      4 UNK        -0.5000 
     55 C           3.4118  -12.5251  -42.4171 C.2       3 UNK         0.5000 
     56 O           4.2012  -13.4671  -42.3313 O.2       3 UNK        -0.5000 
     57 CA          3.3845  -11.6870  -43.7051 C.3       3 UNK         0.1400 
     58 CB          4.4750  -10.6046  -43.6660 C.3       3 UNK        -0.1800 
     59 N           3.6132  -12.5488  -44.8633 N.am      3 UNK        -0.5000 
     60 C           2.6491  -13.1539  -45.5660 C.2       2 UNK         0.5000 
     61 O           1.4454  -12.9803  -45.3645 O.2       2 UNK        -0.5000 
     62 CA          3.1344  -14.1013  -46.6797 C.3       2 UNK         0.1400 
     63 CB          3.2496  -15.5555  -46.1818 C.3       2 UNK        -0.1800 
     64 N           2.3335  -13.9890  -47.9034 N.am      2 UNK        -0.5000 
     65 C           1.1088  -14.4672  -48.1762 C.2       1 UNK         0.5000 
     66 O           0.4572  -15.1852  -47.4167 O.2       1 UNK        -0.5000 
     67 C          -0.7185  -21.1174  -47.5966 C.2       11 UNK         0.5000 
     68 O          -0.7948  -21.8532  -48.5780 O.2       11 UNK        -0.5000 
     69 N          -1.7740  -20.7629  -46.8487 N.am      12 UNK        -0.5000 
     70 CA         -3.1526  -21.1769  -47.1084 C.3       12 UNK         0.1400 
     71 CB         -4.0998  -20.5139  -46.0988 C.3       12 UNK        -0.1800 
     72 C          -3.3381  -22.7025  -47.1086 C.2       12 UNK         0.5000 
     73 O          -4.0211  -23.2186  -47.9923 O.2       12 UNK        -0.5000 
     74 N          -2.7008  -23.3937  -46.1540 N.am      13 UNK        -0.5000 
     75 CA         -2.6736  -24.8529  -46.0614 C.3       13 UNK         0.1400 
     76 CB         -1.9984  -25.2753  -44.7480 C.3       13 UNK        -0.1800 
     77 C          -1.9860  -25.5096  -47.2721 C.2       13 UNK         0.5000 
     78 O          -2.5481  -26.4375  -47.8559 O.2       13 UNK        -0.5000 
     79 N          -0.8100  -24.9909  -47.6564 N.am      14 UNK        -0.5000 
     80 CA         -0.0544  -25.4296  -48.8340 C.3       14 UNK         0.1400 
     81 CB          1.3221  -24.7478  -48.8421 C.3       14 UNK        -0.1800 
     82 C          -0.8014  -25.1691  -50.1569 C.2       14 UNK         0.5000 
     83 O          -0.7485  -25.9996  -51.0638 O.2       14 UNK        -0.5000 
     84 N          -1.5197  -24.0423  -50.2179 N.am      15 UNK        -0.5000 
     85 CA         -2.3712  -23.6170  -51.3268 C.3       15 UNK         0.1400 
     86 CB         -2.4310  -22.0802  -51.3336 C.3       15 UNK        -0.1800 
     87 C          -3.7833  -24.2403  -51.3052 C.2       15 UNK         0.5000 
     88 O          -4.6564  -23.7447  -52.0160 O.2       15 UNK        -0.5000 
     89 N          -3.9973  -25.2973  -50.5058 N.am      16 UNK        -0.5000 
     90 CA         -5.2196  -26.1048  -50.4152 C.3       16 UNK         0.1400 
     91 CB         -5.4222  -26.9146  -51.7131 C.3       16 UNK        -0.1800 
     92 C          -6.4607  -25.2765  -50.0221 C.2       16 UNK         0.5000 
     93 O          -7.4619  -25.2705  -50.7407 O.2       16 UNK        -0.5000 
     94 N          -6.3444  -24.5811  -48.8836 N.am      17 UNK        -0.5000 
     95 CA         -7.2952  -23.6192  -48.3181 C.3       17 UNK         0.1400 
     96 CB         -8.6801  -24.2506  -48.0582 C.3       17 UNK        -0.1800 
     97 C          -7.3451  -22.3152  -49.1389 C.2       17 UNK         0.5000 
     98 O          -8.4249  -21.7730  -49.3805 O.2       17 UNK        -0.5000 
     99 N          -6.1527  -21.8354  -49.5244 N.am      18 UNK        -0.5000 
    100 CA        -5.8822  -20.5868  -50.2443 C.3       18 UNK         0.1400 
    101 CB        -6.1584  -19.3708  -49.3351 C.3       18 UNK        -0.1800 
    102 C         -6.5973  -20.4966  -51.6083 C.2       18 UNK         0.5000 
    103 O         -7.2794  -19.5076  -51.8876 O.2       18 UNK        -0.5000 
    104 N         -6.4284  -21.5331  -52.4400 N.am      19 UNK        -0.5000 
    105 CA        -6.9031  -21.5591  -53.8229 C.3       19 UNK         0.1400 
    106 CB        -6.7727  -22.9875  -54.3744 C.3       19 UNK        -0.1800 
    107 C         -6.1180  -20.5715  -54.7073 C.2       19 UNK         0.5000 
    108 O         -4.9420  -20.3051  -54.4449 O.2       19 UNK        -0.5000 
    109 N         -6.7692  -20.0849  -55.7724 N.am      20 UNK        -0.5000 
    110 CA        -6.2308  -19.1050  -56.7257 C.3       20 UNK         0.1400 
    111 CB        -7.3528  -18.6835  -57.6875 C.3       20 UNK        -0.1800 
    112 C         -4.9944  -19.5837  -57.5164 C.2       20 UNK         0.5000 
    113 O         -4.2641  -18.7544  -58.0596 O.2       20 UNK        -0.5000 
    114 N         -4.7746  -20.9044  -57.5559 N.am      21 UNK        -0.5000 
    115 CA        -3.5874  -21.5457  -58.1196 C.3       21 UNK         0.1400 
    116 CB        -3.8932  -23.0376  -58.3283 C.3       21 UNK        -0.1800 
    117 C         -2.3195  -21.3719  -57.2548 C.2       21 UNK         0.5000 
    118 O         -1.2227  -21.6102  -57.7633 O.2       21 UNK        -0.5000 
    119 N         -2.4828  -20.9743  -55.9830 N.am      22 UNK        -0.5000 
    120 CA        -1.4258  -20.8344  -54.9656 C.3       22 UNK         0.1400 
    121 C         -0.7854  -22.2007  -54.5583 C.2       22 UNK         0.5000 
    122 N          0.3039  -22.2032  -53.7995 N.am      22 UNK        -0.7600 
    123 O         -1.2882  -23.2755  -54.8797 O.2       22 UNK        -0.5000 
    124 C124       -0.3713  -19.7460  -55.3275 C.3       23 UNK        -0.0398 
    125 S125       -1.1037  -18.0986  -55.6337 S.3       23 UNK        -0.2404 
    126 C126       -0.1120  -17.0245  -54.5460 C.3       23 UNK        -0.0205 
    127 H127        3.0858  -12.9682  -53.0214 H         1 UNK         0.0600 
    128 H128        4.2185  -12.7316  -51.6861 H         1 UNK         0.0600 
    129 H129        2.7900  -11.7025  -51.8265 H         1 UNK         0.0600 
    130 H130        1.1834  -12.2619  -50.3881 H         1 UNK         0.3000 
    131 H131        0.3357  -15.0099  -50.0713 H         1 UNK         0.0600 
    132 H132       -1.5644  -14.0550  -48.7935 H         1 UNK         0.0800 
    133 H133       -0.7857  -12.4996  -48.7320 H         1 UNK         0.0800 
    134 H134       -3.4577  -14.4790  -50.3758 H         1 UNK         0.0800 
    135 H135       -3.4655  -14.0596  -52.0696 H         1 UNK         0.0800 
    136 H136       -1.6671  -14.9940  -53.6136 H         1 UNK         0.1150 
    137 H137        0.1172  -18.6981  -52.3844 H         1 UNK         0.1150 
    138 H138       -2.2010  -16.4063  -49.6052 H         1 UNK         0.1150 
    139 H139       -1.4301  -18.5328  -48.9607 H         1 UNK         0.0800 
    140 H140       -0.9787  -19.6870  -50.1908 H         1 UNK         0.0800 
    141 H141       -0.0230  -18.4879  -47.0309 H         1 UNK         0.0800 
    142 H142        1.6975  -18.6855  -46.9710 H         1 UNK         0.0800 
    143 H143        1.4155  -21.1098  -47.7484 H         1 UNK         0.0600 
    144 H144        1.0883  -20.1087  -45.1426 H         1 UNK         0.3000 
    145 H145        0.6992  -23.2175  -43.4006 H         1 UNK         0.0600 
    146 H146        2.5659  -22.1718  -42.1399 H         1 UNK         0.0600 
    147 H147        3.1354  -22.8086  -43.6757 H         1 UNK         0.0600 
    148 H148        2.8921  -21.0784  -43.4824 H         1 UNK         0.0600 
    149 H149        0.6391  -20.5374  -42.4633 H         1 UNK         0.3000 
    150 H150       -2.8959  -20.0001  -42.8923 H         1 UNK         0.0600 
    151 H151       -2.5429  -21.2454  -40.7480 H         1 UNK         0.0600 
    152 H152       -2.6651  -19.5126  -40.4875 H         1 UNK         0.0600 
    153 H153       -1.0904  -20.3019  -40.4360 H         1 UNK         0.0600 
    154 H154       -0.8752  -18.2887  -41.8745 H         1 UNK         0.3000 
    155 H155        0.0579  -16.7836  -45.0153 H         1 UNK         0.0600 
    156 H156       -1.3961  -15.7501  -42.5257 H         1 UNK         0.0600 
    157 H157       -0.4693  -14.7713  -43.6633 H         1 UNK         0.0600 
    158 H158       -1.9447  -15.5695  -44.1878 H         1 UNK         0.0600 
    159 H159        1.0533  -16.3475  -42.3950 H         1 UNK         0.3000 
    160 H160        3.5528  -18.9260  -42.3937 H         1 UNK         0.0600 
    161 H161        4.9209  -16.8633  -41.8767 H         1 UNK         0.0600 
    162 H162        3.7057  -15.8964  -42.7145 H         1 UNK         0.0600 
    163 H163        4.6366  -17.1007  -43.5947 H         1 UNK         0.0600 
    164 H164        2.7008  -16.8435  -40.5636 H         1 UNK         0.3000 
    165 H165        0.5847  -18.9887  -38.6336 H         1 UNK         0.0600 
    166 H166        2.1270  -18.2134  -36.8595 H         1 UNK         0.0600 
    167 H167        2.9239  -19.4163  -37.8608 H         1 UNK         0.0600 
    168 H168        3.3147  -17.7126  -38.0632 H         1 UNK         0.0600 
    169 H169        1.3177  -16.2481  -38.3244 H         1 UNK         0.3000 
    170 H170       -1.3151  -14.8514  -40.2764 H         1 UNK         0.0600 
    171 H171       -1.0166  -15.0658  -37.2353 H         1 UNK         0.0600 
    172 H172       -1.9766  -13.8717  -38.1099 H         1 UNK         0.0600 
    173 H173       -2.4305  -15.5671  -38.1550 H         1 UNK         0.0600 
    174 H174        0.4279  -13.5073  -38.5872 H         1 UNK         0.3000 
    175 H175        1.7558  -12.0333  -39.5779 H         1 UNK         0.0600 
    176 H176        4.2458  -12.3754  -39.3118 H         1 UNK         0.0600 
    177 H177        4.0454  -14.0500  -39.8317 H         1 UNK         0.0600 
    178 H178        3.2754  -13.4886  -38.3608 H         1 UNK         0.0600 
    179 H179        1.9978  -11.3272  -41.6396 H         1 UNK         0.3000 
    180 H180        2.4135  -11.1947  -43.7948 H         1 UNK         0.0600 
    181 H181        5.4712  -11.0381  -43.5670 H         1 UNK         0.0600 
    182 H182        4.3256   -9.9301  -42.8219 H         1 UNK         0.0600 
    183 H183        4.4613   -9.9986  -44.5721 H         1 UNK         0.0600 
    184 H184        4.5774  -12.7872  -45.0459 H         1 UNK         0.3000 
    185 H185        4.1359  -13.7813  -46.9722 H         1 UNK         0.0600 
    186 H186        4.0064  -15.6324  -45.4016 H         1 UNK         0.0600 
    187 H187        2.3134  -15.9182  -45.7578 H         1 UNK         0.0600 
    188 H188        3.5394  -16.2315  -46.9862 H         1 UNK         0.0600 
    189 H189        2.7411  -13.4046  -48.6191 H         1 UNK         0.3000 
    190 H190       -1.6344  -20.1291  -46.0644 H         1 UNK         0.3000 
    191 H191       -3.4152  -20.8153  -48.1041 H         1 UNK         0.0600 
    192 H192       -4.0439  -19.4271  -46.1613 H         1 UNK         0.0600 
    193 H193       -5.1356  -20.7984  -46.2887 H         1 UNK         0.0600 
    194 H194       -3.8628  -20.8023  -45.0748 H         1 UNK         0.0600 
    195 H195       -2.2006  -22.8817  -45.4319 H         1 UNK         0.3000 
    196 H196       -3.7078  -25.2026  -46.0376 H         1 UNK         0.0600 
    197 H197       -1.9756  -26.3613  -44.6511 H         1 UNK         0.0600 
    198 H198       -2.5370  -24.8824  -43.8855 H         1 UNK         0.0600 
    199 H199       -0.9702  -24.9173  -44.6890 H         1 UNK         0.0600 
    200 H200       -0.4074  -24.2301  -47.1175 H         1 UNK         0.3000 
    201 H201        0.1004  -26.5071  -48.7482 H         1 UNK         0.0600 
    202 H202        1.8865  -24.9898  -47.9413 H         1 UNK         0.0600 
    203 H203        1.2340  -23.6624  -48.8982 H         1 UNK         0.0600 
    204 H204        1.9157  -25.0745  -49.6967 H         1 UNK         0.0600 
    205 H205       -1.4424  -23.3868  -49.4435 H         1 UNK         0.3000 
    206 H206       -1.9091  -23.9374  -52.2618 H         1 UNK         0.0600 
    207 H207       -1.4363  -21.6559  -51.4656 H         1 UNK         0.0600 
    208 H208       -3.0530  -21.7016  -52.1458 H         1 UNK         0.0600 
    209 H209       -2.8322  -21.6976  -50.3964 H         1 UNK         0.0600 
    210 H210       -3.2370  -25.5943  -49.9079 H         1 UNK         0.3000 
    211 H211       -5.0563  -26.8183  -49.6061 H         1 UNK         0.0600 
    212 H212       -5.6111  -26.2676  -52.5706 H         1 UNK         0.0600 
    213 H213       -6.2717  -27.5923  -51.6215 H         1 UNK         0.0600 
    214 H214       -4.5457  -27.5220  -51.9388 H         1 UNK         0.0600 
    215 H215       -5.4334  -24.5761  -48.4359 H         1 UNK         0.3000 
    216 H216       -6.8868  -23.3402  -47.3456 H         1 UNK         0.0600 
    217 H217       -9.3103  -23.5739  -47.4801 H         1 UNK         0.0600 
    218 H218       -8.5918  -25.1763  -47.4898 H         1 UNK         0.0600 
    219 H219       -9.2111  -24.4723  -48.9839 H         1 UNK         0.0600 
    220 H220       -5.3386  -22.3822  -49.2645 H         1 UNK         0.3000 
    221 H221       -4.8166  -20.5805  -50.4681 H         1 UNK         0.0600 
    222 H222       -7.2148  -19.2883  -49.0782 H         1 UNK         0.0600 
    223 H223       -5.5924  -19.4331  -48.4068 H         1 UNK         0.0600 
    224 H224       -5.8674  -18.4418  -49.8268 H         1 UNK         0.0600 
    225 H225       -5.8329  -22.3103  -52.1612 H         1 UNK         0.3000 
    226 H226       -7.9582  -21.2777  -53.8264 H         1 UNK         0.0600 
    227 H227       -7.2817  -23.7072  -53.7324 H         1 UNK         0.0600 
    228 H228       -7.2152  -23.0669  -55.3680 H         1 UNK         0.0600 
    229 H229       -5.7288  -23.2937  -54.4555 H         1 UNK         0.0600 
    230 H230       -7.7252  -20.3714  -55.9280 H         1 UNK         0.3000 
    231 H231       -5.9225  -18.2267  -56.1547 H         1 UNK         0.0600 
    232 H232       -7.7218  -19.5291  -58.2692 H         1 UNK         0.0600 
    233 H233       -7.0019  -17.9286  -58.3926 H         1 UNK         0.0600 
    234 H234       -8.1957  -18.2522  -57.1472 H         1 UNK         0.0600 
    235 H235       -5.4351  -21.5074  -57.0891 H         1 UNK         0.3000 
    236 H236       -3.3833  -21.0980  -59.0945 H         1 UNK         0.0600 
    237 H237       -4.7493  -23.1777  -58.9885 H         1 UNK         0.0600 
    238 H238       -3.0454  -23.5505  -58.7845 H         1 UNK         0.0600 
    239 H239       -4.1093  -23.5387  -57.3837 H         1 UNK         0.0600 
    240 H240       -3.4225  -20.7994  -55.6428 H         1 UNK         0.3000 
    241 H241       -1.9467  -20.4957  -54.0696 H         1 UNK         0.0600 
    242 H242        0.7476  -21.3557  -53.4869 H         1 UNK         0.3800 
    243 H243        0.7011  -23.0908  -53.5354 H         1 UNK         0.3800 
    244 H244        0.3648  -19.6511  -54.5307 H         1 UNK         0.0800 
    245 H245        0.1947  -20.0373  -56.2128 H         1 UNK         0.0800 
    246 H246       -0.0320  -16.0443  -55.0184 H         1 UNK         0.0800 
    247 H247        0.9111  -17.3952  -54.4685 H         1 UNK         0.0800 
@<TRIPOS>BOND
     1    1    2 1    
     2    1  127 1    
     3    1  128 1    
     4    1  129 1    
     5    2    3 2    
     6    2    4 am   BACKBONE|DICT|INTERRES
     7    4    5 1    
     8    4  130 1    
     9    5    6 1    
    10    5   65 1    
    11    5  131 1    
    12    6    7 1    
    13    6  132 1    
    14    6  133 1    
    15    7    8 1    
    16    8    9 1    
    17    8  134 1    
    18    8  135 1    
    19    9   10 ar   
    20    9   14 ar   
    21   10   11 ar   
    22   10  136 1    
    23   11   12 ar   
    24   11  126 1    
    25   12   13 ar   
    26   12  137 1    
    27   13   14 ar   
    28   13   15 1    
    29   14  138 1    
    30   15   16 1    
    31   15  139 1    
    32   15  140 1    
    33   16   17 1    
    34   17   18 1    
    35   17  141 1    
    36   17  142 1    
    37   18   19 1    
    38   18   67 1    
    39   18  143 1    
    40   19   20 am   BACKBONE|DICT|INTERRES
    41   19  144 1    
    42   20   21 2    
    43   20   22 1    
    44   22   23 1    
    45   22   24 1    
    46   22  145 1    
    47   23  146 1    
    48   23  147 1    
    49   23  148 1    
    50   24   25 am   BACKBONE|DICT|INTERRES
    51   24  149 1    
    52   25   26 2    
    53   25   27 1    
    54   27   28 1    
    55   27   29 1    
    56   27  150 1    
    57   28  151 1    
    58   28  152 1    
    59   28  153 1    
    60   29   30 am   BACKBONE|DICT|INTERRES
    61   29  154 1    
    62   30   31 2    
    63   30   32 1    
    64   32   33 1    
    65   32   34 1    
    66   32  155 1    
    67   33  156 1    
    68   33  157 1    
    69   33  158 1    
    70   34   35 am   BACKBONE|DICT|INTERRES
    71   34  159 1    
    72   35   36 2    
    73   35   37 1    
    74   37   38 1    
    75   37   39 1    
    76   37  160 1    
    77   38  161 1    
    78   38  162 1    
    79   38  163 1    
    80   39   40 am   BACKBONE|DICT|INTERRES
    81   39  164 1    
    82   40   41 2    
    83   40   42 1    
    84   42   43 1    
    85   42   44 1    
    86   42  165 1    
    87   43  166 1    
    88   43  167 1    
    89   43  168 1    
    90   44   45 am   BACKBONE|DICT|INTERRES
    91   44  169 1    
    92   45   46 2    
    93   45   47 1    
    94   47   48 1    
    95   47   49 1    
    96   47  170 1    
    97   48  171 1    
    98   48  172 1    
    99   48  173 1    
   100   49   50 am   BACKBONE|DICT|INTERRES
   101   49  174 1    
   102   50   51 2    
   103   50   52 1    
   104   52   53 1    
   105   52   54 1    
   106   52  175 1    
   107   53  176 1    
   108   53  177 1    
   109   53  178 1    
   110   54   55 am   BACKBONE|DICT|INTERRES
   111   54  179 1    
   112   55   56 2    
   113   55   57 1    
   114   57   58 1    
   115   57   59 1    
   116   57  180 1    
   117   58  181 1    
   118   58  182 1    
   119   58  183 1    
   120   59   60 am   BACKBONE|DICT|INTERRES
   121   59  184 1    
   122   60   61 2    
   123   60   62 1    
   124   62   63 1    
   125   62   64 1    
   126   62  185 1    
   127   63  186 1    
   128   63  187 1    
   129   63  188 1    
   130   64   65 am   BACKBONE|DICT|INTERRES
   131   64  189 1    
   132   65   66 2    
   133   67   68 2    
   134   67   69 am   BACKBONE|DICT|INTERRES
   135   69   70 1    
   136   69  190 1    
   137   70   71 1    
   138   70   72 1    
   139   70  191 1    
   140   71  192 1    
   141   71  193 1    
   142   71  194 1    
   143   72   73 2    
   144   72   74 am   BACKBONE|DICT|INTERRES
   145   74   75 1    
   146   74  195 1    
   147   75   76 1    
   148   75   77 1    
   149   75  196 1    
   150   76  197 1    
   151   76  198 1    
   152   76  199 1    
   153   77   78 2    
   154   77   79 am   BACKBONE|DICT|INTERRES
   155   79   80 1    
   156   79  200 1    
   157   80   81 1    
   158   80   82 1    
   159   80  201 1    
   160   81  202 1    
   161   81  203 1    
   162   81  204 1    
   163   82   83 2    
   164   82   84 am   BACKBONE|DICT|INTERRES
   165   84   85 1    
   166   84  205 1    
   167   85   86 1    
   168   85   87 1    
   169   85  206 1    
   170   86  207 1    
   171   86  208 1    
   172   86  209 1    
   173   87   88 2    
   174   87   89 am   BACKBONE|DICT|INTERRES
   175   89   90 1    
   176   89  210 1    
   177   90   91 1    
   178   90   92 1    
   179   90  211 1    
   180   91  212 1    
   181   91  213 1    
   182   91  214 1    
   183   92   93 2    
   184   92   94 am   BACKBONE|DICT|INTERRES
   185   94   95 1    
   186   94  215 1    
   187   95   96 1    
   188   95   97 1    
   189   95  216 1    
   190   96  217 1    
   191   96  218 1    
   192   96  219 1    
   193   97   98 2    
   194   97   99 am   BACKBONE|DICT|INTERRES
   195   99  100 1    
   196   99  220 1    
   197  100  101 1    
   198  100  102 1    
   199  100  221 1    
   200  101  222 1    
   201  101  223 1    
   202  101  224 1    
   203  102  103 2    
   204  102  104 am   BACKBONE|DICT|INTERRES
   205  104  105 1    
   206  104  225 1    
   207  105  106 1    
   208  105  107 1    
   209  105  226 1    
   210  106  227 1    
   211  106  228 1    
   212  106  229 1    
   213  107  108 2    
   214  107  109 am   BACKBONE|DICT|INTERRES
   215  109  110 1    
   216  109  230 1    
   217  110  111 1    
   218  110  112 1    
   219  110  231 1    
   220  111  232 1    
   221  111  233 1    
   222  111  234 1    
   223  112  113 2    
   224  112  114 am   BACKBONE|DICT|INTERRES
   225  114  115 1    
   226  114  235 1    
   227  115  116 1    
   228  115  117 1    
   229  115  236 1    
   230  116  237 1    
   231  116  238 1    
   232  116  239 1    
   233  117  118 2    
   234  117  119 am   BACKBONE|DICT|INTERRES
   235  119  120 1    
   236  119  240 1    
   237  120  121 1    
   238  120  124 1    
   239  120  241 1    
   240  121  122 am   BACKBONE|DICT|INTERRES
   241  121  123 2    
   242  122  242 1    
   243  122  243 1    
   244  124  125 1    
   245  124  244 1    
   246  124  245 1    
   247  125  126 1    
   248  126  246 1    
   249  126  247 1    
@<TRIPOS>SUBSTRUCTURE
     1 UNK         1 GROUP             0       ****    0 ROOT    
