@<TRIPOS>MOLECULE
3R540
247   249    1
SMALL
USER_CHARGES


@<TRIPOS>ATOM
      1 CA          7.0426  -13.4829  -51.7958 C.3       0 UNK        -0.1800 
      2 C           6.5632  -13.3422  -50.3581 C.2       0 UNK         0.5000 
      3 O           7.1735  -12.6132  -49.5764 O.2       0 UNK        -0.5000 
      4 N           5.4698  -14.0316  -50.0084 N.am      1 UNK        -0.5000 
      5 CA          4.8588  -14.0253  -48.6722 C.3       1 UNK         0.1400 
      6 C6          4.0836  -15.3359  -48.3937 C.3       23 UNK        -0.0398 
      7 S7          2.7132  -15.6784  -49.5551 S.3       23 UNK        -0.2404 
      8 C8          1.6668  -16.7090  -48.4868 C.3       23 UNK        -0.0205 
      9 C9          0.5597  -17.3949  -49.2648 C.ar      23 UNK        -0.0193 
     10 C10        -0.6781  -16.7705  -49.4173 C.ar      23 UNK        -0.1150 
     11 C11        -1.7187  -17.4080  -50.0987 C.ar      23 UNK        -0.0193 
     12 C12        -1.5149  -18.6992  -50.5963 C.ar      23 UNK        -0.1150 
     13 C13        -0.2901  -19.3532  -50.4274 C.ar      23 UNK        -0.0193 
     14 C14         0.7553  -18.6753  -49.7884 C.ar      23 UNK        -0.1150 
     15 C15        -0.1372  -20.7889  -50.9385 C.3       23 UNK        -0.0205 
     16 S16         0.9839  -21.8574  -49.9608 S.3       23 UNK        -0.2404 
     17 C17         0.3732  -21.5909  -48.2640 C.3       23 UNK        -0.0398 
     18 CA          0.5212  -22.8242  -47.3384 C.3       11 UNK         0.1400 
     19 N           0.6671  -22.4201  -45.9348 N.am      11 UNK        -0.5000 
     20 C           0.8716  -23.2395  -44.8940 C.2       10 UNK         0.5000 
     21 O           1.0032  -24.4573  -44.9997 O.2       10 UNK        -0.5000 
     22 CA          0.8641  -22.6013  -43.4923 C.3       10 UNK         0.1400 
     23 CB          2.2124  -21.9389  -43.1731 C.3       10 UNK        -0.1800 
     24 N          -0.2204  -21.6312  -43.3349 N.am      10 UNK        -0.5000 
     25 C          -1.5222  -21.9544  -43.3439 C.2       9 UNK         0.5000 
     26 O          -1.9371  -23.1120  -43.4016 O.2       9 UNK        -0.5000 
     27 CA         -2.5305  -20.7904  -43.3353 C.3       9 UNK         0.1400 
     28 CB         -2.7770  -20.2895  -41.9046 C.3       9 UNK        -0.1800 
     29 N          -2.1147  -19.6732  -44.1852 N.am      9 UNK        -0.5000 
     30 C          -1.9559  -19.7499  -45.5143 C.2       8 UNK         0.5000 
     31 O          -2.1901  -20.7635  -46.1708 O.2       8 UNK        -0.5000 
     32 CA         -1.3882  -18.5066  -46.2216 C.3       8 UNK         0.1400 
     33 CB         -2.4927  -17.4644  -46.4515 C.3       8 UNK        -0.1800 
     34 N          -0.2776  -17.9013  -45.4836 N.am      8 UNK        -0.5000 
     35 C           0.8849  -18.5134  -45.2152 C.2       7 UNK         0.5000 
     36 O           1.1706  -19.6371  -45.6212 O.2       7 UNK        -0.5000 
     37 CA          1.8709  -17.7822  -44.2886 C.3       7 UNK         0.1400 
     38 CB          2.7375  -16.7780  -45.0582 C.3       7 UNK        -0.1800 
     39 N           1.1815  -17.0998  -43.1980 N.am      7 UNK        -0.5000 
     40 C           0.6140  -17.7280  -42.1600 C.2       6 UNK         0.5000 
     41 O           0.6490  -18.9479  -41.9951 O.2       6 UNK        -0.5000 
     42 CA         -0.1544  -16.8403  -41.1646 C.3       6 UNK         0.1400 
     43 CB          0.8024  -16.2315  -40.1289 C.3       6 UNK        -0.1800 
     44 N          -0.8958  -15.7677  -41.8324 N.am      6 UNK        -0.5000 
     45 C          -1.9505  -15.9740  -42.6328 C.2       5 UNK         0.5000 
     46 O          -2.4192  -17.0869  -42.8690 O.2       5 UNK        -0.5000 
     47 CA         -2.5620  -14.7356  -43.3114 C.3       5 UNK         0.1400 
     48 CB         -3.5764  -14.0566  -42.3791 C.3       5 UNK        -0.1800 
     49 N          -1.5748  -13.7476  -43.7575 N.am      5 UNK        -0.5000 
     50 C          -0.6279  -13.9738  -44.6777 C.2       4 UNK         0.5000 
     51 O          -0.3945  -15.0811  -45.1655 O.2       4 UNK        -0.5000 
     52 CA          0.2125  -12.7614  -45.1178 C.3       4 UNK         0.1400 
     53 CB          1.6142  -12.8212  -44.4931 C.3       4 UNK        -0.1800 
     54 N           0.3351  -12.6861  -46.5747 N.am      4 UNK        -0.5000 
     55 C          -0.6907  -12.4859  -47.4178 C.2       3 UNK         0.5000 
     56 O          -1.8482  -12.2974  -47.0383 O.2       3 UNK        -0.5000 
     57 CA         -0.3731  -12.4914  -48.9313 C.3       3 UNK         0.1400 
     58 CB         -1.4103  -11.7108  -49.7670 C.3       3 UNK        -0.1800 
     59 N           0.9877  -12.0484  -49.2515 N.am      3 UNK        -0.5000 
     60 C           1.5333  -10.8476  -49.0004 C.2       2 UNK         0.5000 
     61 O           0.9224   -9.9100  -48.4848 O.2       2 UNK        -0.5000 
     62 CA          3.0176  -10.6746  -49.3936 C.3       2 UNK         0.1400 
     63 CB          3.7419   -9.6261  -48.5234 C.3       2 UNK        -0.1800 
     64 N           3.7775  -11.9323  -49.4179 N.am      2 UNK        -0.5000 
     65 C           3.9905  -12.7764  -48.3949 C.2       1 UNK         0.5000 
     66 O           3.5092  -12.6193  -47.2721 O.2       1 UNK        -0.5000 
     67 C          -0.6416  -23.8191  -47.5317 C.2       11 UNK         0.5000 
     68 O          -0.4514  -24.8721  -48.1400 O.2       11 UNK        -0.5000 
     69 N          -1.8011  -23.4903  -46.9443 N.am      12 UNK        -0.5000 
     70 CA         -3.0139  -24.3067  -46.9493 C.3       12 UNK         0.1400 
     71 CB         -4.1646  -23.4933  -46.3360 C.3       12 UNK        -0.1800 
     72 C          -2.8687  -25.6607  -46.2280 C.2       12 UNK         0.5000 
     73 O          -3.5985  -26.5949  -46.5592 O.2       12 UNK        -0.5000 
     74 N          -1.9534  -25.7420  -45.2540 N.am      13 UNK        -0.5000 
     75 CA         -1.6246  -26.9691  -44.5333 C.3       13 UNK         0.1400 
     76 CB         -1.1410  -26.6127  -43.1185 C.3       13 UNK        -0.1800 
     77 C          -0.5681  -27.8031  -45.2798 C.2       13 UNK         0.5000 
     78 O          -0.7053  -29.0245  -45.3585 O.2       13 UNK        -0.5000 
     79 N           0.4755  -27.1366  -45.7920 N.am      14 UNK        -0.5000 
     80 CA          1.6180  -27.7594  -46.4610 C.3       14 UNK         0.1400 
     81 CB          2.7711  -26.7462  -46.5324 C.3       14 UNK        -0.1800 
     82 C           1.2960  -28.2984  -47.8658 C.2       14 UNK         0.5000 
     83 O           1.8450  -29.3310  -48.2540 O.2       14 UNK        -0.5000 
     84 N           0.4354  -27.5894  -48.6026 N.am      15 UNK        -0.5000 
     85 CA          0.0271  -27.9054  -49.9678 C.3       15 UNK         0.1400 
     86 CB          0.7235  -26.9206  -50.9300 C.3       15 UNK        -0.1800 
     87 C          -1.5096  -27.8803  -50.0633 C.2       15 UNK         0.5000 
     88 O          -2.1900  -28.2128  -49.0904 O.2       15 UNK        -0.5000 
     89 N          -2.0374  -27.5122  -51.2376 N.am      16 UNK        -0.5000 
     90 CA         -3.4607  -27.2656  -51.4707 C.3       16 UNK         0.1400 
     91 CB         -3.7035  -27.1808  -52.9861 C.3       16 UNK        -0.1800 
     92 C          -3.9270  -25.9725  -50.7737 C.2       16 UNK         0.5000 
     93 O          -3.1038  -25.0968  -50.4969 O.2       16 UNK        -0.5000 
     94 N          -5.2405  -25.8737  -50.5238 N.am      17 UNK        -0.5000 
     95 CA         -5.9006  -24.7425  -49.8655 C.3       17 UNK         0.1400 
     96 CB         -7.4144  -24.9996  -49.8146 C.3       17 UNK        -0.1800 
     97 C          -5.6054  -23.3914  -50.5461 C.2       17 UNK         0.5000 
     98 O          -5.7045  -23.2903  -51.7710 O.2       17 UNK        -0.5000 
     99 N          -5.2421  -22.3916  -49.7321 N.am      18 UNK        -0.5000 
    100 CA        -4.8210  -21.0631  -50.1763 C.3       18 UNK         0.1400 
    101 CB        -4.2427  -20.2969  -48.9768 C.3       18 UNK        -0.1800 
    102 C         -5.9479  -20.2613  -50.8493 C.2       18 UNK         0.5000 
    103 O         -5.6996  -19.5972  -51.8554 O.2       18 UNK        -0.5000 
    104 N         -7.1589  -20.3376  -50.2727 N.am      19 UNK        -0.5000 
    105 CA        -8.4332  -19.7985  -50.7774 C.3       19 UNK         0.1400 
    106 CB        -8.8941  -20.6309  -51.9918 C.3       19 UNK        -0.1800 
    107 C         -8.4374  -18.2814  -51.0861 C.2       19 UNK         0.5000 
    108 O         -9.2765  -17.8212  -51.8618 O.2       19 UNK        -0.5000 
    109 N         -7.4826  -17.5411  -50.5007 N.am      20 UNK        -0.5000 
    110 CA        -7.1364  -16.1404  -50.7803 C.3       20 UNK         0.1400 
    111 CB        -8.2824  -15.1932  -50.3687 C.3       20 UNK        -0.1800 
    112 C         -6.6498  -15.8891  -52.2288 C.2       20 UNK         0.5000 
    113 O         -6.6127  -14.7390  -52.6682 O.2       20 UNK        -0.5000 
    114 N         -6.2490  -16.9524  -52.9393 N.am      21 UNK        -0.5000 
    115 CA        -5.7206  -16.9267  -54.3022 C.3       21 UNK         0.1400 
    116 CB        -6.3032  -18.1226  -55.0771 C.3       21 UNK        -0.1800 
    117 C         -4.1823  -16.9384  -54.2485 C.2       21 UNK         0.5000 
    118 O         -3.5391  -17.8353  -54.7970 O.2       21 UNK        -0.5000 
    119 N         -3.6294  -15.9621  -53.5227 N.am      22 UNK        -0.5000 
    120 CA        -2.2024  -15.8349  -53.2066 C.3       22 UNK         0.1400 
    121 C         -1.3217  -15.5175  -54.4468 C.2       22 UNK         0.5000 
    122 N         -0.0842  -15.9937  -54.4727 N.am      22 UNK        -0.7600 
    123 O         -1.7318  -14.8080  -55.3632 O.2       22 UNK        -0.5000 
    124 C124       -1.9689  -14.7827  -52.0910 C.3       23 UNK        -0.0398 
    125 S125       -3.0151  -14.9456  -50.5949 S.3       23 UNK        -0.2404 
    126 C126       -3.0816  -16.7419  -50.2690 C.3       23 UNK        -0.0205 
    127 H127        6.4055  -14.1544  -52.3719 H         1 UNK         0.0600 
    128 H128        8.0582  -13.8780  -51.8154 H         1 UNK         0.0600 
    129 H129        7.0445  -12.5102  -52.2879 H         1 UNK         0.0600 
    130 H130        5.0061  -14.6150  -50.6915 H         1 UNK         0.3000 
    131 H131        5.6684  -13.9839  -47.9402 H         1 UNK         0.0600 
    132 H132        4.7731  -16.1802  -48.4334 H         1 UNK         0.0800 
    133 H133        3.6979  -15.3237  -47.3736 H         1 UNK         0.0800 
    134 H134        2.2812  -17.4636  -47.9942 H         1 UNK         0.0800 
    135 H135        1.2351  -16.0907  -47.6982 H         1 UNK         0.0800 
    136 H136       -0.8327  -15.7904  -48.9922 H         1 UNK         0.1150 
    137 H137       -2.3215  -19.2055  -51.1076 H         1 UNK         0.1150 
    138 H138        1.7157  -19.1545  -49.6644 H         1 UNK         0.1150 
    139 H139       -1.1136  -21.2755  -50.9701 H         1 UNK         0.0800 
    140 H140        0.2233  -20.7544  -51.9671 H         1 UNK         0.0800 
    141 H141        0.9641  -20.7648  -47.8719 H         1 UNK         0.0800 
    142 H142       -0.6562  -21.2300  -48.2892 H         1 UNK         0.0800 
    143 H143        1.4453  -23.3444  -47.5993 H         1 UNK         0.0600 
    144 H144        0.6256  -21.4204  -45.7527 H         1 UNK         0.3000 
    145 H145        0.7043  -23.4010  -42.7659 H         1 UNK         0.0600 
    146 H146        2.2182  -21.5239  -42.1650 H         1 UNK         0.0600 
    147 H147        3.0245  -22.6646  -43.2318 H         1 UNK         0.0600 
    148 H148        2.4453  -21.1319  -43.8668 H         1 UNK         0.0600 
    149 H149        0.0421  -20.6571  -43.2440 H         1 UNK         0.3000 
    150 H150       -3.4757  -21.1705  -43.7283 H         1 UNK         0.0600 
    151 H151       -3.1063  -21.1031  -41.2572 H         1 UNK         0.0600 
    152 H152       -3.5521  -19.5233  -41.8842 H         1 UNK         0.0600 
    153 H153       -1.8750  -19.8636  -41.4650 H         1 UNK         0.0600 
    154 H154       -1.9615  -18.7812  -43.7238 H         1 UNK         0.3000 
    155 H155       -1.0080  -18.8221  -47.1948 H         1 UNK         0.0600 
    156 H156       -2.1051  -16.5743  -46.9462 H         1 UNK         0.0600 
    157 H157       -2.9518  -17.1487  -45.5155 H         1 UNK         0.0600 
    158 H158       -3.2835  -17.8724  -47.0813 H         1 UNK         0.0600 
    159 H159       -0.4076  -16.9422  -45.1707 H         1 UNK         0.3000 
    160 H160        2.5367  -18.5319  -43.8554 H         1 UNK         0.0600 
    161 H161        2.1344  -16.0028  -45.5290 H         1 UNK         0.0600 
    162 H162        3.3102  -17.2801  -45.8381 H         1 UNK         0.0600 
    163 H163        3.4533  -16.2881  -44.3981 H         1 UNK         0.0600 
    164 H164        1.0565  -16.1028  -43.2903 H         1 UNK         0.3000 
    165 H165       -0.8705  -17.4744  -40.6374 H         1 UNK         0.0600 
    166 H166        1.5310  -15.5657  -40.5933 H         1 UNK         0.0600 
    167 H167        0.2575  -15.6610  -39.3765 H         1 UNK         0.0600 
    168 H168        1.3571  -17.0113  -39.6052 H         1 UNK         0.0600 
    169 H169       -0.5720  -14.8225  -41.6894 H         1 UNK         0.3000 
    170 H170       -3.0987  -15.0817  -44.1969 H         1 UNK         0.0600 
    171 H171       -4.3363  -14.7652  -42.0464 H         1 UNK         0.0600 
    172 H172       -3.0963  -13.6481  -41.4890 H         1 UNK         0.0600 
    173 H173       -4.0945  -13.2422  -42.8858 H         1 UNK         0.0600 
    174 H174       -1.6922  -12.8101  -43.4011 H         1 UNK         0.3000 
    175 H175       -0.2773  -11.8472  -44.7762 H         1 UNK         0.0600 
    176 H176        2.1928  -11.9314  -44.7423 H         1 UNK         0.0600 
    177 H177        1.5587  -12.8790  -43.4054 H         1 UNK         0.0600 
    178 H178        2.1750  -13.6886  -44.8420 H         1 UNK         0.0600 
    179 H179        1.2654  -12.8091  -46.9541 H         1 UNK         0.3000 
    180 H180       -0.4268  -13.5345  -49.2417 H         1 UNK         0.0600 
    181 H181       -1.1819  -11.7679  -50.8311 H         1 UNK         0.0600 
    182 H182       -2.4123  -12.1188  -49.6311 H         1 UNK         0.0600 
    183 H183       -1.4499  -10.6581  -49.4868 H         1 UNK         0.0600 
    184 H184        1.5862  -12.7475  -49.6681 H         1 UNK         0.3000 
    185 H185        3.0129  -10.3030  -50.4192 H         1 UNK         0.0600 
    186 H186        4.7843   -9.5175  -48.8231 H         1 UNK         0.0600 
    187 H187        3.2752   -8.6451  -48.6194 H         1 UNK         0.0600 
    188 H188        3.7230   -9.8949  -47.4668 H         1 UNK         0.0600 
    189 H189        4.2019  -12.1694  -50.3035 H         1 UNK         0.3000 
    190 H190       -1.8719  -22.5835  -46.4876 H         1 UNK         0.3000 
    191 H191       -3.2583  -24.5173  -47.9896 H         1 UNK         0.0600 
    192 H192       -5.1041  -24.0452  -46.3810 H         1 UNK         0.0600 
    193 H193       -4.3104  -22.5502  -46.8614 H         1 UNK         0.0600 
    194 H194       -3.9726  -23.2602  -45.2883 H         1 UNK         0.0600 
    195 H195       -1.4181  -24.9160  -45.0210 H         1 UNK         0.3000 
    196 H196       -2.5242  -27.5800  -44.4312 H         1 UNK         0.0600 
    197 H197       -0.9130  -27.5127  -42.5463 H         1 UNK         0.0600 
    198 H198       -1.9051  -26.0618  -42.5697 H         1 UNK         0.0600 
    199 H199       -0.2399  -25.9993  -43.1386 H         1 UNK         0.0600 
    200 H200        0.5384  -26.1328  -45.6394 H         1 UNK         0.3000 
    201 H201        1.9484  -28.6031  -45.8514 H         1 UNK         0.0600 
    202 H202        3.0715  -26.4202  -45.5364 H         1 UNK         0.0600 
    203 H203        2.4904  -25.8600  -47.1034 H         1 UNK         0.0600 
    204 H204        3.6487  -27.1828  -47.0107 H         1 UNK         0.0600 
    205 H205        0.0173  -26.7492  -48.2101 H         1 UNK         0.3000 
    206 H206        0.3335  -28.9194  -50.2313 H         1 UNK         0.0600 
    207 H207        1.8028  -26.9217  -50.7763 H         1 UNK         0.0600 
    208 H208        0.5535  -27.1886  -51.9730 H         1 UNK         0.0600 
    209 H209        0.3702  -25.8987  -50.7815 H         1 UNK         0.0600 
    210 H210       -1.4105  -27.2252  -51.9742 H         1 UNK         0.3000 
    211 H211       -4.0307  -28.1057  -51.0682 H         1 UNK         0.0600 
    212 H212       -3.1553  -26.3515  -53.4351 H         1 UNK         0.0600 
    213 H213       -4.7611  -27.0310  -53.2067 H         1 UNK         0.0600 
    214 H214       -3.3955  -28.0985  -53.4876 H         1 UNK         0.0600 
    215 H215       -5.8452  -26.6267  -50.8173 H         1 UNK         0.3000 
    216 H216       -5.5299  -24.7093  -48.8400 H         1 UNK         0.0600 
    217 H217       -7.9331  -24.1835  -49.3097 H         1 UNK         0.0600 
    218 H218       -7.6426  -25.9149  -49.2681 H         1 UNK         0.0600 
    219 H219       -7.8404  -25.0892  -50.8149 H         1 UNK         0.0600 
    220 H220       -5.1950  -22.5634  -48.7398 H         1 UNK         0.3000 
    221 H221       -4.0259  -21.1905  -50.9141 H         1 UNK         0.0600 
    222 H222       -4.9409  -20.2591  -48.1400 H         1 UNK         0.0600 
    223 H223       -3.3217  -20.7623  -48.6254 H         1 UNK         0.0600 
    224 H224       -4.0026  -19.2694  -49.2427 H         1 UNK         0.0600 
    225 H225       -7.2333  -20.8918  -49.4315 H         1 UNK         0.3000 
    226 H226       -9.1633  -19.9430  -49.9799 H         1 UNK         0.0600 
    227 H227       -8.9061  -21.6957  -51.7584 H         1 UNK         0.0600 
    228 H228       -9.9039  -20.3577  -52.3002 H         1 UNK         0.0600 
    229 H229       -8.2372  -20.4848  -52.8503 H         1 UNK         0.0600 
    230 H230       -6.8528  -18.0259  -49.8781 H         1 UNK         0.3000 
    231 H231       -6.2819  -15.9126  -50.1414 H         1 UNK         0.0600 
    232 H232       -7.9644  -14.1511  -50.4162 H         1 UNK         0.0600 
    233 H233       -8.6048  -15.3853  -49.3454 H         1 UNK         0.0600 
    234 H234       -9.1502  -15.2975  -51.0201 H         1 UNK         0.0600 
    235 H235       -6.2316  -17.8634  -52.4879 H         1 UNK         0.3000 
    236 H236       -6.0280  -16.0125  -54.8139 H         1 UNK         0.0600 
    237 H237       -7.3923  -18.0805  -55.1021 H         1 UNK         0.0600 
    238 H238       -5.9534  -18.1281  -56.1100 H         1 UNK         0.0600 
    239 H239       -6.0173  -19.0735  -54.6254 H         1 UNK         0.0600 
    240 H240       -4.2362  -15.2644  -53.1156 H         1 UNK         0.3000 
    241 H241       -1.8783  -16.8068  -52.8329 H         1 UNK         0.0600 
    242 H242        0.2784  -16.5701  -53.7291 H         1 UNK         0.3800 
    243 H243        0.5037  -15.7829  -55.2643 H         1 UNK         0.3800 
    244 H244       -0.9268  -14.8102  -51.7679 H         1 UNK         0.0800 
    245 H245       -2.1317  -13.7777  -52.4845 H         1 UNK         0.0800 
    246 H246       -3.6519  -17.2292  -51.0606 H         1 UNK         0.0800 
    247 H247       -3.6512  -16.8910  -49.3519 H         1 UNK         0.0800 
@<TRIPOS>BOND
     1    1    2 1    
     2    1  127 1    
     3    1  128 1    
     4    1  129 1    
     5    2    3 2    
     6    2    4 am   BACKBONE|DICT|INTERRES
     7    4    5 1    
     8    4  130 1    
     9    5    6 1    
    10    5   65 1    
    11    5  131 1    
    12    6    7 1    
    13    6  132 1    
    14    6  133 1    
    15    7    8 1    
    16    8    9 1    
    17    8  134 1    
    18    8  135 1    
    19    9   10 ar   
    20    9   14 ar   
    21   10   11 ar   
    22   10  136 1    
    23   11   12 ar   
    24   11  126 1    
    25   12   13 ar   
    26   12  137 1    
    27   13   14 ar   
    28   13   15 1    
    29   14  138 1    
    30   15   16 1    
    31   15  139 1    
    32   15  140 1    
    33   16   17 1    
    34   17   18 1    
    35   17  141 1    
    36   17  142 1    
    37   18   19 1    
    38   18   67 1    
    39   18  143 1    
    40   19   20 am   BACKBONE|DICT|INTERRES
    41   19  144 1    
    42   20   21 2    
    43   20   22 1    
    44   22   23 1    
    45   22   24 1    
    46   22  145 1    
    47   23  146 1    
    48   23  147 1    
    49   23  148 1    
    50   24   25 am   BACKBONE|DICT|INTERRES
    51   24  149 1    
    52   25   26 2    
    53   25   27 1    
    54   27   28 1    
    55   27   29 1    
    56   27  150 1    
    57   28  151 1    
    58   28  152 1    
    59   28  153 1    
    60   29   30 am   BACKBONE|DICT|INTERRES
    61   29  154 1    
    62   30   31 2    
    63   30   32 1    
    64   32   33 1    
    65   32   34 1    
    66   32  155 1    
    67   33  156 1    
    68   33  157 1    
    69   33  158 1    
    70   34   35 am   BACKBONE|DICT|INTERRES
    71   34  159 1    
    72   35   36 2    
    73   35   37 1    
    74   37   38 1    
    75   37   39 1    
    76   37  160 1    
    77   38  161 1    
    78   38  162 1    
    79   38  163 1    
    80   39   40 am   BACKBONE|DICT|INTERRES
    81   39  164 1    
    82   40   41 2    
    83   40   42 1    
    84   42   43 1    
    85   42   44 1    
    86   42  165 1    
    87   43  166 1    
    88   43  167 1    
    89   43  168 1    
    90   44   45 am   BACKBONE|DICT|INTERRES
    91   44  169 1    
    92   45   46 2    
    93   45   47 1    
    94   47   48 1    
    95   47   49 1    
    96   47  170 1    
    97   48  171 1    
    98   48  172 1    
    99   48  173 1    
   100   49   50 am   BACKBONE|DICT|INTERRES
   101   49  174 1    
   102   50   51 2    
   103   50   52 1    
   104   52   53 1    
   105   52   54 1    
   106   52  175 1    
   107   53  176 1    
   108   53  177 1    
   109   53  178 1    
   110   54   55 am   BACKBONE|DICT|INTERRES
   111   54  179 1    
   112   55   56 2    
   113   55   57 1    
   114   57   58 1    
   115   57   59 1    
   116   57  180 1    
   117   58  181 1    
   118   58  182 1    
   119   58  183 1    
   120   59   60 am   BACKBONE|DICT|INTERRES
   121   59  184 1    
   122   60   61 2    
   123   60   62 1    
   124   62   63 1    
   125   62   64 1    
   126   62  185 1    
   127   63  186 1    
   128   63  187 1    
   129   63  188 1    
   130   64   65 am   BACKBONE|DICT|INTERRES
   131   64  189 1    
   132   65   66 2    
   133   67   68 2    
   134   67   69 am   BACKBONE|DICT|INTERRES
   135   69   70 1    
   136   69  190 1    
   137   70   71 1    
   138   70   72 1    
   139   70  191 1    
   140   71  192 1    
   141   71  193 1    
   142   71  194 1    
   143   72   73 2    
   144   72   74 am   BACKBONE|DICT|INTERRES
   145   74   75 1    
   146   74  195 1    
   147   75   76 1    
   148   75   77 1    
   149   75  196 1    
   150   76  197 1    
   151   76  198 1    
   152   76  199 1    
   153   77   78 2    
   154   77   79 am   BACKBONE|DICT|INTERRES
   155   79   80 1    
   156   79  200 1    
   157   80   81 1    
   158   80   82 1    
   159   80  201 1    
   160   81  202 1    
   161   81  203 1    
   162   81  204 1    
   163   82   83 2    
   164   82   84 am   BACKBONE|DICT|INTERRES
   165   84   85 1    
   166   84  205 1    
   167   85   86 1    
   168   85   87 1    
   169   85  206 1    
   170   86  207 1    
   171   86  208 1    
   172   86  209 1    
   173   87   88 2    
   174   87   89 am   BACKBONE|DICT|INTERRES
   175   89   90 1    
   176   89  210 1    
   177   90   91 1    
   178   90   92 1    
   179   90  211 1    
   180   91  212 1    
   181   91  213 1    
   182   91  214 1    
   183   92   93 2    
   184   92   94 am   BACKBONE|DICT|INTERRES
   185   94   95 1    
   186   94  215 1    
   187   95   96 1    
   188   95   97 1    
   189   95  216 1    
   190   96  217 1    
   191   96  218 1    
   192   96  219 1    
   193   97   98 2    
   194   97   99 am   BACKBONE|DICT|INTERRES
   195   99  100 1    
   196   99  220 1    
   197  100  101 1    
   198  100  102 1    
   199  100  221 1    
   200  101  222 1    
   201  101  223 1    
   202  101  224 1    
   203  102  103 2    
   204  102  104 am   BACKBONE|DICT|INTERRES
   205  104  105 1    
   206  104  225 1    
   207  105  106 1    
   208  105  107 1    
   209  105  226 1    
   210  106  227 1    
   211  106  228 1    
   212  106  229 1    
   213  107  108 2    
   214  107  109 am   BACKBONE|DICT|INTERRES
   215  109  110 1    
   216  109  230 1    
   217  110  111 1    
   218  110  112 1    
   219  110  231 1    
   220  111  232 1    
   221  111  233 1    
   222  111  234 1    
   223  112  113 2    
   224  112  114 am   BACKBONE|DICT|INTERRES
   225  114  115 1    
   226  114  235 1    
   227  115  116 1    
   228  115  117 1    
   229  115  236 1    
   230  116  237 1    
   231  116  238 1    
   232  116  239 1    
   233  117  118 2    
   234  117  119 am   BACKBONE|DICT|INTERRES
   235  119  120 1    
   236  119  240 1    
   237  120  121 1    
   238  120  124 1    
   239  120  241 1    
   240  121  122 am   BACKBONE|DICT|INTERRES
   241  121  123 2    
   242  122  242 1    
   243  122  243 1    
   244  124  125 1    
   245  124  244 1    
   246  124  245 1    
   247  125  126 1    
   248  126  246 1    
   249  126  247 1    
@<TRIPOS>SUBSTRUCTURE
     1 UNK         1 GROUP             0       ****    0 ROOT    
