@<TRIPOS>MOLECULE
3R540
247   249    1
SMALL
USER_CHARGES


@<TRIPOS>ATOM
      1 CA          7.1056  -11.7227  -46.4657 C.3       0 UNK        -0.1800 
      2 C           5.6716  -12.1943  -46.2753 C.2       0 UNK         0.5000 
      3 O           5.0070  -11.7731  -45.3287 O.2       0 UNK        -0.5000 
      4 N           5.1817  -13.0530  -47.1802 N.am      1 UNK        -0.5000 
      5 CA          3.8288  -13.6296  -47.1581 C.3       1 UNK         0.1400 
      6 C6          3.6594  -14.7774  -48.1850 C.3       23 UNK        -0.0398 
      7 S7          4.0418  -14.2865  -49.9032 S.3       23 UNK        -0.2404 
      8 C8          5.0494  -15.6925  -50.4729 C.3       23 UNK        -0.0205 
      9 C9          4.2290  -16.9616  -50.6691 C.ar      23 UNK        -0.0193 
     10 C10         3.1621  -16.9750  -51.5714 C.ar      23 UNK        -0.1150 
     11 C11         2.4388  -18.1471  -51.8040 C.ar      23 UNK        -0.0193 
     12 C12         2.8018  -19.3198  -51.1351 C.ar      23 UNK        -0.1150 
     13 C13         3.8582  -19.3232  -50.2141 C.ar      23 UNK        -0.0193 
     14 C14         4.5635  -18.1359  -49.9878 C.ar      23 UNK        -0.1150 
     15 C15         4.3108  -20.5963  -49.4975 C.3       23 UNK        -0.0205 
     16 S16         3.0229  -21.8712  -49.2770 S.3       23 UNK        -0.2404 
     17 C17         2.0599  -21.1810  -47.8916 C.3       23 UNK        -0.0398 
     18 CA          0.9649  -22.1674  -47.4150 C.3       11 UNK         0.1400 
     19 N           0.6200  -21.9936  -46.0008 N.am      11 UNK        -0.5000 
     20 C          -0.1424  -22.8475  -45.3010 C.2       10 UNK         0.5000 
     21 O          -0.5986  -23.8913  -45.7650 O.2       10 UNK        -0.5000 
     22 CA         -0.5001  -22.4535  -43.8577 C.3       10 UNK         0.1400 
     23 CB          0.6501  -22.7907  -42.8979 C.3       10 UNK        -0.1800 
     24 N          -0.8576  -21.0408  -43.7342 N.am      10 UNK        -0.5000 
     25 C          -1.9127  -20.4699  -44.3335 C.2       9 UNK         0.5000 
     26 O          -2.7346  -21.0917  -45.0064 O.2       9 UNK        -0.5000 
     27 CA         -2.0370  -18.9399  -44.2112 C.3       9 UNK         0.1400 
     28 CB         -2.6434  -18.5405  -42.8582 C.3       9 UNK        -0.1800 
     29 N          -0.7550  -18.2593  -44.3943 N.am      9 UNK        -0.5000 
     30 C          -0.0209  -18.3014  -45.5156 C.2       8 UNK         0.5000 
     31 O          -0.3650  -18.8818  -46.5444 O.2       8 UNK        -0.5000 
     32 CA          1.3594  -17.6312  -45.4522 C.3       8 UNK         0.1400 
     33 CB          1.2370  -16.1095  -45.6192 C.3       8 UNK        -0.1800 
     34 N           2.0448  -17.9412  -44.1970 N.am      8 UNK        -0.5000 
     35 C           2.5332  -19.1501  -43.8840 C.2       7 UNK         0.5000 
     36 O           2.4886  -20.1186  -44.6418 O.2       7 UNK        -0.5000 
     37 CA          3.1392  -19.3151  -42.4774 C.3       7 UNK         0.1400 
     38 CB          4.6068  -18.8627  -42.4667 C.3       7 UNK        -0.1800 
     39 N           2.3989  -18.5796  -41.4512 N.am      7 UNK        -0.5000 
     40 C           1.1475  -18.8669  -41.0651 C.2       6 UNK         0.5000 
     41 O           0.5016  -19.8187  -41.4999 O.2       6 UNK        -0.5000 
     42 CA          0.4854  -17.8930  -40.0701 C.3       6 UNK         0.1400 
     43 CB          0.7894  -18.3108  -38.6240 C.3       6 UNK        -0.1800 
     44 N           0.8824  -16.4943  -40.2669 N.am      6 UNK        -0.5000 
     45 C           0.7070  -15.8054  -41.4024 C.2       5 UNK         0.5000 
     46 O           0.1916  -16.2879  -42.4141 O.2       5 UNK        -0.5000 
     47 CA          1.2690  -14.3706  -41.4220 C.3       5 UNK         0.1400 
     48 CB          2.8059  -14.3995  -41.4742 C.3       5 UNK        -0.1800 
     49 N           0.7934  -13.5980  -42.5678 N.am      5 UNK        -0.5000 
     50 C          -0.4639  -13.1795  -42.7616 C.2       4 UNK         0.5000 
     51 O          -1.3769  -13.3456  -41.9500 O.2       4 UNK        -0.5000 
     52 CA         -0.7138  -12.4347  -44.0896 C.3       4 UNK         0.1400 
     53 CB         -2.0927  -11.7454  -44.1583 C.3       4 UNK        -0.1800 
     54 N           0.3663  -11.4944  -44.4131 N.am      4 UNK        -0.5000 
     55 C           0.7400  -10.4106  -43.7101 C.2       3 UNK         0.5000 
     56 O           0.1808  -10.0379  -42.6780 O.2       3 UNK        -0.5000 
     57 CA          1.9531   -9.6052  -44.2261 C.3       3 UNK         0.1400 
     58 CB          3.1581   -9.8023  -43.2928 C.3       3 UNK        -0.1800 
     59 N           2.3532   -9.9555  -45.5901 N.am      3 UNK        -0.5000 
     60 C           1.6615   -9.6428  -46.6965 C.2       2 UNK         0.5000 
     61 O           0.6616   -8.9242  -46.6902 O.2       2 UNK        -0.5000 
     62 CA          2.1395  -10.2552  -48.0308 C.3       2 UNK         0.1400 
     63 CB          2.8648   -9.1986  -48.8781 C.3       2 UNK        -0.1800 
     64 N           3.0165  -11.4198  -47.8822 N.am      2 UNK        -0.5000 
     65 C           2.7007  -12.5800  -47.2871 C.2       1 UNK         0.5000 
     66 O           1.5940  -12.8166  -46.8003 O.2       1 UNK        -0.5000 
     67 C          -0.2838  -22.1238  -48.3206 C.2       11 UNK         0.5000 
     68 O          -0.4417  -22.9970  -49.1722 O.2       11 UNK        -0.5000 
     69 N          -1.1754  -21.1509  -48.0830 N.am      12 UNK        -0.5000 
     70 CA         -2.4600  -21.0111  -48.7706 C.3       12 UNK         0.1400 
     71 CB         -3.1349  -19.7002  -48.3406 C.3       12 UNK        -0.1800 
     72 C          -3.3969  -22.2140  -48.5574 C.2       12 UNK         0.5000 
     73 O          -4.0579  -22.6360  -49.5045 O.2       12 UNK        -0.5000 
     74 N          -3.4181  -22.7582  -47.3331 N.am      13 UNK        -0.5000 
     75 CA         -4.1572  -23.9696  -46.9832 C.3       13 UNK         0.1400 
     76 CB         -4.2105  -24.1198  -45.4556 C.3       13 UNK        -0.1800 
     77 C          -3.5691  -25.2321  -47.6414 C.2       13 UNK         0.5000 
     78 O          -4.3249  -26.0461  -48.1724 O.2       13 UNK        -0.5000 
     79 N          -2.2368  -25.3722  -47.6073 N.am      14 UNK        -0.5000 
     80 CA         -1.5068  -26.4957  -48.1970 C.3       14 UNK         0.1400 
     81 CB         -0.0349  -26.4389  -47.7609 C.3       14 UNK        -0.1800 
     82 C          -1.6152  -26.5428  -49.7311 C.2       14 UNK         0.5000 
     83 O          -1.8109  -27.6197  -50.2975 O.2       14 UNK        -0.5000 
     84 N          -1.5085  -25.3758  -50.3769 N.am      15 UNK        -0.5000 
     85 CA         -1.5908  -25.1984  -51.8239 C.3       15 UNK         0.1400 
     86 CB         -0.8488  -23.9094  -52.2045 C.3       15 UNK        -0.1800 
     87 C          -3.0492  -25.2159  -52.3250 C.2       15 UNK         0.5000 
     88 O          -3.5526  -24.1986  -52.8048 O.2       15 UNK        -0.5000 
     89 N          -3.6769  -26.3950  -52.2159 N.am      16 UNK        -0.5000 
     90 CA         -4.9998  -26.7645  -52.7310 C.3       16 UNK         0.1400 
     91 CB         -5.0196  -26.7122  -54.2738 C.3       16 UNK        -0.1800 
     92 C          -6.1781  -26.0116  -52.0765 C.2       16 UNK         0.5000 
     93 O          -7.1891  -25.7663  -52.7384 O.2       16 UNK        -0.5000 
     94 N          -6.0443  -25.7132  -50.7749 N.am      17 UNK        -0.5000 
     95 CA         -7.0315  -25.0752  -49.8951 C.3       17 UNK         0.1400 
     96 CB         -8.3055  -25.9422  -49.7890 C.3       17 UNK        -0.1800 
     97 C          -7.3589  -23.6165  -50.2713 C.2       17 UNK         0.5000 
     98 O          -6.8676  -23.0895  -51.2703 O.2       17 UNK        -0.5000 
     99 N          -8.2168  -22.9817  -49.4603 N.am      18 UNK        -0.5000 
    100 CA        -8.6593  -21.5889  -49.6030 C.3       18 UNK         0.1400 
    101 CB        -9.5064  -21.2125  -48.3780 C.3       18 UNK        -0.1800 
    102 C         -9.4253  -21.2804  -50.9083 C.2       18 UNK         0.5000 
    103 O         -9.5717  -20.1094  -51.2581 O.2       18 UNK        -0.5000 
    104 N         -9.8816  -22.3243  -51.6145 N.am      19 UNK        -0.5000 
    105 CA       -10.4462  -22.2412  -52.9612 C.3       19 UNK         0.1400 
    106 CB       -11.0664  -23.5985  -53.3265 C.3       19 UNK        -0.1800 
    107 C         -9.4063  -21.8200  -54.0203 C.2       19 UNK         0.5000 
    108 O         -9.7695  -21.1395  -54.9806 O.2       19 UNK        -0.5000 
    109 N         -8.1423  -22.2186  -53.8221 N.am      20 UNK        -0.5000 
    110 CA        -7.0052  -21.8368  -54.6579 C.3       20 UNK         0.1400 
    111 CB        -6.1476  -23.0782  -54.9361 C.3       20 UNK        -0.1800 
    112 C         -6.1654  -20.7448  -53.9763 C.2       20 UNK         0.5000 
    113 O         -5.7308  -19.8103  -54.6510 O.2       20 UNK        -0.5000 
    114 N         -5.9558  -20.8817  -52.6573 N.am      21 UNK        -0.5000 
    115 CA        -5.2479  -19.9670  -51.7560 C.3       21 UNK         0.1400 
    116 CB        -6.1198  -18.7280  -51.4690 C.3       21 UNK        -0.1800 
    117 C         -3.8315  -19.6020  -52.2477 C.2       21 UNK         0.5000 
    118 O         -3.4719  -18.4255  -52.2518 O.2       21 UNK        -0.5000 
    119 N         -3.0927  -20.6235  -52.7026 N.am      22 UNK        -0.5000 
    120 CA        -1.7804  -20.5556  -53.3729 C.3       22 UNK         0.1400 
    121 C         -1.7331  -19.7952  -54.7358 C.2       22 UNK         0.5000 
    122 N         -2.8547  -19.4019  -55.3285 N.am      22 UNK        -0.7600 
    123 O         -0.6596  -19.6061  -55.3011 O.2       22 UNK        -0.5000 
    124 C124       -0.5859  -20.2510  -52.4135 C.3       23 UNK        -0.0398 
    125 S125       -0.3096  -18.4934  -51.9830 S.3       23 UNK        -0.2404 
    126 C126        1.2835  -18.1433  -52.7953 C.3       23 UNK        -0.0205 
    127 H127        7.7048  -11.9857  -45.5941 H         1 UNK         0.0600 
    128 H128        7.1309  -10.6395  -46.5842 H         1 UNK         0.0600 
    129 H129        7.5671  -12.1729  -47.3450 H         1 UNK         0.0600 
    130 H130        5.7647  -13.3477  -47.9510 H         1 UNK         0.3000 
    131 H131        3.7107  -14.0662  -46.1655 H         1 UNK         0.0600 
    132 H132        2.6448  -15.1780  -48.1608 H         1 UNK         0.0800 
    133 H133        4.3049  -15.6080  -47.8968 H         1 UNK         0.0800 
    134 H134        5.5089  -15.4270  -51.4259 H         1 UNK         0.0800 
    135 H135        5.8715  -15.8570  -49.7746 H         1 UNK         0.0800 
    136 H136        2.9024  -16.0680  -52.0993 H         1 UNK         0.1150 
    137 H137        2.2553  -20.2281  -51.3407 H         1 UNK         0.1150 
    138 H138        5.3958  -18.1337  -49.2977 H         1 UNK         0.1150 
    139 H139        5.1241  -21.0342  -50.0773 H         1 UNK         0.0800 
    140 H140        4.7300  -20.3499  -48.5206 H         1 UNK         0.0800 
    141 H141        1.6442  -20.2102  -48.1691 H         1 UNK         0.0800 
    142 H142        2.7657  -20.9894  -47.0833 H         1 UNK         0.0800 
    143 H143        1.3734  -23.1779  -47.4899 H         1 UNK         0.0600 
    144 H144        0.9989  -21.1762  -45.5346 H         1 UNK         0.3000 
    145 H145       -1.3704  -23.0422  -43.5604 H         1 UNK         0.0600 
    146 H146        0.3691  -22.5956  -41.8629 H         1 UNK         0.0600 
    147 H147        0.9205  -23.8451  -42.9677 H         1 UNK         0.0600 
    148 H148        1.5440  -22.2071  -43.1175 H         1 UNK         0.0600 
    149 H149       -0.2630  -20.4726  -43.1377 H         1 UNK         0.3000 
    150 H150       -2.7091  -18.5960  -44.9999 H         1 UNK         0.0600 
    151 H151       -3.6295  -18.9877  -42.7268 H         1 UNK         0.0600 
    152 H152       -2.7620  -17.4594  -42.7824 H         1 UNK         0.0600 
    153 H153       -2.0220  -18.8676  -42.0249 H         1 UNK         0.0600 
    154 H154       -0.4024  -17.7212  -43.6079 H         1 UNK         0.3000 
    155 H155        1.9641  -18.0167  -46.2763 H         1 UNK         0.0600 
    156 H156        0.5569  -15.6671  -44.8922 H         1 UNK         0.0600 
    157 H157        0.8558  -15.8572  -46.6092 H         1 UNK         0.0600 
    158 H158        2.2044  -15.6260  -45.5036 H         1 UNK         0.0600 
    159 H159        2.0405  -17.2203  -43.4905 H         1 UNK         0.3000 
    160 H160        3.1072  -20.3768  -42.2238 H         1 UNK         0.0600 
    161 H161        4.7037  -17.7990  -42.6878 H         1 UNK         0.0600 
    162 H162        5.1881  -19.4074  -43.2120 H         1 UNK         0.0600 
    163 H163        5.0693  -19.0480  -41.4971 H         1 UNK         0.0600 
    164 H164        2.8581  -17.7814  -41.0388 H         1 UNK         0.3000 
    165 H165       -0.5939  -17.9528  -40.2221 H         1 UNK         0.0600 
    166 H166        0.2512  -17.6859  -37.9111 H         1 UNK         0.0600 
    167 H167        0.4847  -19.3427  -38.4438 H         1 UNK         0.0600 
    168 H168        1.8541  -18.2386  -38.3985 H         1 UNK         0.0600 
    169 H169        1.3221  -16.0385  -39.4802 H         1 UNK         0.3000 
    170 H170        0.9511  -13.8634  -40.5089 H         1 UNK         0.0600 
    171 H171        3.2244  -14.9143  -40.6086 H         1 UNK         0.0600 
    172 H172        3.1696  -14.9095  -42.3674 H         1 UNK         0.0600 
    173 H173        3.2185  -13.3901  -41.4754 H         1 UNK         0.0600 
    174 H174        1.4676  -13.4167  -43.2954 H         1 UNK         0.3000 
    175 H175       -0.6931  -13.1971  -44.8699 H         1 UNK         0.0600 
    176 H176       -2.2198  -11.0064  -43.3669 H         1 UNK         0.0600 
    177 H177       -2.2329  -11.2409  -45.1143 H         1 UNK         0.0600 
    178 H178       -2.8973  -12.4743  -44.0553 H         1 UNK         0.0600 
    179 H179        0.8944  -11.7271  -45.2482 H         1 UNK         0.3000 
    180 H180        1.6769   -8.5489  -44.2097 H         1 UNK         0.0600 
    181 H181        3.4578  -10.8498  -43.2400 H         1 UNK         0.0600 
    182 H182        2.9249   -9.4775  -42.2780 H         1 UNK         0.0600 
    183 H183        4.0187   -9.2237  -43.6290 H         1 UNK         0.0600 
    184 H184        3.1726  -10.5450  -45.6781 H         1 UNK         0.3000 
    185 H185        1.2496  -10.5803  -48.5734 H         1 UNK         0.0600 
    186 H186        2.2319   -8.3253  -49.0419 H         1 UNK         0.0600 
    187 H187        3.7798   -8.8548  -48.3938 H         1 UNK         0.0600 
    188 H188        3.1306   -9.5930  -49.8591 H         1 UNK         0.0600 
    189 H189        3.9548  -11.3215  -48.2414 H         1 UNK         0.3000 
    190 H190       -0.9539  -20.4421  -47.3871 H         1 UNK         0.3000 
    191 H191       -2.2583  -20.9480  -49.8397 H         1 UNK         0.0600 
    192 H192       -2.5171  -18.8394  -48.5983 H         1 UNK         0.0600 
    193 H193       -4.0972  -19.5690  -48.8354 H         1 UNK         0.0600 
    194 H194       -3.3138  -19.6733  -47.2659 H         1 UNK         0.0600 
    195 H195       -2.8965  -22.3075  -46.5876 H         1 UNK         0.3000 
    196 H196       -5.1812  -23.8508  -47.3420 H         1 UNK         0.0600 
    197 H197       -4.7796  -25.0052  -45.1699 H         1 UNK         0.0600 
    198 H198       -4.6928  -23.2588  -44.9924 H         1 UNK         0.0600 
    199 H199       -3.2144  -24.2157  -45.0232 H         1 UNK         0.0600 
    200 H200       -1.6812  -24.6828  -47.1070 H         1 UNK         0.3000 
    201 H201       -1.9404  -27.4184  -47.8059 H         1 UNK         0.0600 
    202 H202        0.0568  -26.4970  -46.6762 H         1 UNK         0.0600 
    203 H203        0.4460  -25.5162  -48.0878 H         1 UNK         0.0600 
    204 H204        0.5306  -27.2719  -48.1803 H         1 UNK         0.0600 
    205 H205       -1.3233  -24.5339  -49.8362 H         1 UNK         0.3000 
    206 H206       -1.0695  -26.0264  -52.3089 H         1 UNK         0.0600 
    207 H207        0.1871  -23.9320  -51.8655 H         1 UNK         0.0600 
    208 H208       -0.8354  -23.7719  -53.2859 H         1 UNK         0.0600 
    209 H209       -1.3282  -23.0400  -51.7563 H         1 UNK         0.0600 
    210 H210       -3.1694  -27.1340  -51.7393 H         1 UNK         0.3000 
    211 H211       -5.1401  -27.8090  -52.4493 H         1 UNK         0.0600 
    212 H212       -4.8940  -25.6969  -54.6481 H         1 UNK         0.0600 
    213 H213       -5.9617  -27.0926  -54.6701 H         1 UNK         0.0600 
    214 H214       -4.2231  -27.3238  -54.6973 H         1 UNK         0.0600 
    215 H215       -5.1608  -25.9255  -50.3295 H         1 UNK         0.3000 
    216 H216       -6.5775  -25.0381  -48.9065 H         1 UNK         0.0600 
    217 H217       -8.9585  -25.5964  -48.9874 H         1 UNK         0.0600 
    218 H218       -8.0562  -26.9802  -49.5681 H         1 UNK         0.0600 
    219 H219       -8.8880  -25.9280  -50.7107 H         1 UNK         0.0600 
    220 H220       -8.5893  -23.4798  -48.6650 H         1 UNK         0.3000 
    221 H221       -7.7652  -20.9622  -49.6041 H         1 UNK         0.0600 
    222 H222      -10.4048  -21.8270  -48.3071 H         1 UNK         0.0600 
    223 H223       -8.9410  -21.3337  -47.4538 H         1 UNK         0.0600 
    224 H224       -9.8247  -20.1702  -48.4263 H         1 UNK         0.0600 
    225 H225       -9.7271  -23.2501  -51.2447 H         1 UNK         0.3000 
    226 H226      -11.2394  -21.4906  -52.9534 H         1 UNK         0.0600 
    227 H227      -11.8518  -23.8760  -52.6232 H         1 UNK         0.0600 
    228 H228      -11.5164  -23.5672  -54.3196 H         1 UNK         0.0600 
    229 H229      -10.3198  -24.3942  -53.3289 H         1 UNK         0.0600 
    230 H230       -7.9211  -22.7513  -52.9877 H         1 UNK         0.3000 
    231 H231       -7.3485  -21.4446  -55.6174 H         1 UNK         0.0600 
    232 H232       -6.7113  -23.8317  -55.4863 H         1 UNK         0.0600 
    233 H233       -5.8024  -23.5345  -54.0086 H         1 UNK         0.0600 
    234 H234       -5.2673  -22.8270  -55.5289 H         1 UNK         0.0600 
    235 H235       -6.3027  -21.7287  -52.2066 H         1 UNK         0.3000 
    236 H236       -5.1210  -20.5067  -50.8177 H         1 UNK         0.0600 
    237 H237       -5.6508  -18.0811  -50.7267 H         1 UNK         0.0600 
    238 H238       -6.2829  -18.1338  -52.3687 H         1 UNK         0.0600 
    239 H239       -7.0948  -19.0125  -51.0764 H         1 UNK         0.0600 
    240 H240       -3.5083  -21.5461  -52.6735 H         1 UNK         0.3000 
    241 H241       -1.6340  -21.5860  -53.6930 H         1 UNK         0.0600 
    242 H242       -2.7985  -18.9298  -56.2165 H         1 UNK         0.3800 
    243 H243       -3.7631  -19.5474  -54.9007 H         1 UNK         0.3800 
    244 H244       -0.7061  -20.8001  -51.4812 H         1 UNK         0.0800 
    245 H245        0.3269  -20.6571  -52.8502 H         1 UNK         0.0800 
    246 H246        1.4824  -18.8557  -53.5965 H         1 UNK         0.0800 
    247 H247        1.2035  -17.1693  -53.2800 H         1 UNK         0.0800 
@<TRIPOS>BOND
     1    1    2 1    
     2    1  127 1    
     3    1  128 1    
     4    1  129 1    
     5    2    3 2    
     6    2    4 am   BACKBONE|DICT|INTERRES
     7    4    5 1    
     8    4  130 1    
     9    5    6 1    
    10    5   65 1    
    11    5  131 1    
    12    6    7 1    
    13    6  132 1    
    14    6  133 1    
    15    7    8 1    
    16    8    9 1    
    17    8  134 1    
    18    8  135 1    
    19    9   10 ar   
    20    9   14 ar   
    21   10   11 ar   
    22   10  136 1    
    23   11   12 ar   
    24   11  126 1    
    25   12   13 ar   
    26   12  137 1    
    27   13   14 ar   
    28   13   15 1    
    29   14  138 1    
    30   15   16 1    
    31   15  139 1    
    32   15  140 1    
    33   16   17 1    
    34   17   18 1    
    35   17  141 1    
    36   17  142 1    
    37   18   19 1    
    38   18   67 1    
    39   18  143 1    
    40   19   20 am   BACKBONE|DICT|INTERRES
    41   19  144 1    
    42   20   21 2    
    43   20   22 1    
    44   22   23 1    
    45   22   24 1    
    46   22  145 1    
    47   23  146 1    
    48   23  147 1    
    49   23  148 1    
    50   24   25 am   BACKBONE|DICT|INTERRES
    51   24  149 1    
    52   25   26 2    
    53   25   27 1    
    54   27   28 1    
    55   27   29 1    
    56   27  150 1    
    57   28  151 1    
    58   28  152 1    
    59   28  153 1    
    60   29   30 am   BACKBONE|DICT|INTERRES
    61   29  154 1    
    62   30   31 2    
    63   30   32 1    
    64   32   33 1    
    65   32   34 1    
    66   32  155 1    
    67   33  156 1    
    68   33  157 1    
    69   33  158 1    
    70   34   35 am   BACKBONE|DICT|INTERRES
    71   34  159 1    
    72   35   36 2    
    73   35   37 1    
    74   37   38 1    
    75   37   39 1    
    76   37  160 1    
    77   38  161 1    
    78   38  162 1    
    79   38  163 1    
    80   39   40 am   BACKBONE|DICT|INTERRES
    81   39  164 1    
    82   40   41 2    
    83   40   42 1    
    84   42   43 1    
    85   42   44 1    
    86   42  165 1    
    87   43  166 1    
    88   43  167 1    
    89   43  168 1    
    90   44   45 am   BACKBONE|DICT|INTERRES
    91   44  169 1    
    92   45   46 2    
    93   45   47 1    
    94   47   48 1    
    95   47   49 1    
    96   47  170 1    
    97   48  171 1    
    98   48  172 1    
    99   48  173 1    
   100   49   50 am   BACKBONE|DICT|INTERRES
   101   49  174 1    
   102   50   51 2    
   103   50   52 1    
   104   52   53 1    
   105   52   54 1    
   106   52  175 1    
   107   53  176 1    
   108   53  177 1    
   109   53  178 1    
   110   54   55 am   BACKBONE|DICT|INTERRES
   111   54  179 1    
   112   55   56 2    
   113   55   57 1    
   114   57   58 1    
   115   57   59 1    
   116   57  180 1    
   117   58  181 1    
   118   58  182 1    
   119   58  183 1    
   120   59   60 am   BACKBONE|DICT|INTERRES
   121   59  184 1    
   122   60   61 2    
   123   60   62 1    
   124   62   63 1    
   125   62   64 1    
   126   62  185 1    
   127   63  186 1    
   128   63  187 1    
   129   63  188 1    
   130   64   65 am   BACKBONE|DICT|INTERRES
   131   64  189 1    
   132   65   66 2    
   133   67   68 2    
   134   67   69 am   BACKBONE|DICT|INTERRES
   135   69   70 1    
   136   69  190 1    
   137   70   71 1    
   138   70   72 1    
   139   70  191 1    
   140   71  192 1    
   141   71  193 1    
   142   71  194 1    
   143   72   73 2    
   144   72   74 am   BACKBONE|DICT|INTERRES
   145   74   75 1    
   146   74  195 1    
   147   75   76 1    
   148   75   77 1    
   149   75  196 1    
   150   76  197 1    
   151   76  198 1    
   152   76  199 1    
   153   77   78 2    
   154   77   79 am   BACKBONE|DICT|INTERRES
   155   79   80 1    
   156   79  200 1    
   157   80   81 1    
   158   80   82 1    
   159   80  201 1    
   160   81  202 1    
   161   81  203 1    
   162   81  204 1    
   163   82   83 2    
   164   82   84 am   BACKBONE|DICT|INTERRES
   165   84   85 1    
   166   84  205 1    
   167   85   86 1    
   168   85   87 1    
   169   85  206 1    
   170   86  207 1    
   171   86  208 1    
   172   86  209 1    
   173   87   88 2    
   174   87   89 am   BACKBONE|DICT|INTERRES
   175   89   90 1    
   176   89  210 1    
   177   90   91 1    
   178   90   92 1    
   179   90  211 1    
   180   91  212 1    
   181   91  213 1    
   182   91  214 1    
   183   92   93 2    
   184   92   94 am   BACKBONE|DICT|INTERRES
   185   94   95 1    
   186   94  215 1    
   187   95   96 1    
   188   95   97 1    
   189   95  216 1    
   190   96  217 1    
   191   96  218 1    
   192   96  219 1    
   193   97   98 2    
   194   97   99 am   BACKBONE|DICT|INTERRES
   195   99  100 1    
   196   99  220 1    
   197  100  101 1    
   198  100  102 1    
   199  100  221 1    
   200  101  222 1    
   201  101  223 1    
   202  101  224 1    
   203  102  103 2    
   204  102  104 am   BACKBONE|DICT|INTERRES
   205  104  105 1    
   206  104  225 1    
   207  105  106 1    
   208  105  107 1    
   209  105  226 1    
   210  106  227 1    
   211  106  228 1    
   212  106  229 1    
   213  107  108 2    
   214  107  109 am   BACKBONE|DICT|INTERRES
   215  109  110 1    
   216  109  230 1    
   217  110  111 1    
   218  110  112 1    
   219  110  231 1    
   220  111  232 1    
   221  111  233 1    
   222  111  234 1    
   223  112  113 2    
   224  112  114 am   BACKBONE|DICT|INTERRES
   225  114  115 1    
   226  114  235 1    
   227  115  116 1    
   228  115  117 1    
   229  115  236 1    
   230  116  237 1    
   231  116  238 1    
   232  116  239 1    
   233  117  118 2    
   234  117  119 am   BACKBONE|DICT|INTERRES
   235  119  120 1    
   236  119  240 1    
   237  120  121 1    
   238  120  124 1    
   239  120  241 1    
   240  121  122 am   BACKBONE|DICT|INTERRES
   241  121  123 2    
   242  122  242 1    
   243  122  243 1    
   244  124  125 1    
   245  124  244 1    
   246  124  245 1    
   247  125  126 1    
   248  126  246 1    
   249  126  247 1    
@<TRIPOS>SUBSTRUCTURE
     1 UNK         1 GROUP             0       ****    0 ROOT    
