@<TRIPOS>MOLECULE
3R540
247   249    1
SMALL
USER_CHARGES


@<TRIPOS>ATOM
      1 CA         -4.2115  -11.2140  -47.5594 C.3       0 UNK        -0.1800 
      2 C          -2.9634  -12.0473  -47.3086 C.2       0 UNK         0.5000 
      3 O          -2.0730  -11.6087  -46.5823 O.2       0 UNK        -0.5000 
      4 N          -2.9008  -13.2511  -47.8942 N.am      1 UNK        -0.5000 
      5 CA         -1.7890  -14.2025  -47.7671 C.3       1 UNK         0.1400 
      6 C6         -1.9860  -15.4151  -48.7103 C.3       23 UNK        -0.0398 
      7 S7         -0.5178  -16.4904  -48.8529 S.3       23 UNK        -0.2404 
      8 C8         -0.5712  -16.9518  -50.6129 C.3       23 UNK        -0.0205 
      9 C9          0.0143  -18.3368  -50.8529 C.ar      23 UNK        -0.0193 
     10 C10        -0.7980  -19.3716  -51.3277 C.ar      23 UNK        -0.1150 
     11 C11        -0.2690  -20.6420  -51.5644 C.ar      23 UNK        -0.0193 
     12 C12         1.0794  -20.8808  -51.2956 C.ar      23 UNK        -0.1150 
     13 C13         1.8984  -19.8677  -50.7935 C.ar      23 UNK        -0.0193 
     14 C14         1.3654  -18.5904  -50.5959 C.ar      23 UNK        -0.1150 
     15 C15         3.3525  -20.1604  -50.4486 C.3       23 UNK        -0.0205 
     16 S16         3.5455  -21.6017  -49.3430 S.3       23 UNK        -0.2404 
     17 C17         2.6713  -21.0546  -47.8375 C.3       23 UNK        -0.0398 
     18 CA          1.6774  -22.1128  -47.2900 C.3       11 UNK         0.1400 
     19 N           1.4742  -21.9684  -45.8452 N.am      11 UNK        -0.5000 
     20 C           0.7970  -22.8248  -45.0664 C.2       10 UNK         0.5000 
     21 O           0.3183  -23.8859  -45.4671 O.2       10 UNK        -0.5000 
     22 CA          0.5824  -22.4047  -43.5994 C.3       10 UNK         0.1400 
     23 CB          1.8049  -22.7600  -42.7403 C.3       10 UNK        -0.1800 
     24 N           0.2788  -20.9795  -43.4575 N.am      10 UNK        -0.5000 
     25 C          -0.8203  -20.3867  -43.9458 C.2       9 UNK         0.5000 
     26 O          -1.7230  -20.9907  -44.5226 O.2       9 UNK        -0.5000 
     27 CA         -0.9020  -18.8552  -43.8165 C.3       9 UNK         0.1400 
     28 CB         -1.3216  -18.4546  -42.3921 C.3       9 UNK        -0.1800 
     29 N           0.3547  -18.1950  -44.1792 N.am      9 UNK        -0.5000 
     30 C           0.9367  -18.2797  -45.3858 C.2       8 UNK         0.5000 
     31 O           0.4380  -18.8714  -46.3412 O.2       8 UNK        -0.5000 
     32 CA          2.3504  -17.6872  -45.5280 C.3       8 UNK         0.1400 
     33 CB          2.3153  -16.1850  -45.8384 C.3       8 UNK        -0.1800 
     34 N           3.1637  -17.9268  -44.3365 N.am      8 UNK        -0.5000 
     35 C           3.6267  -19.1301  -43.9699 C.2       7 UNK         0.5000 
     36 O           3.4548  -20.1557  -44.6264 O.2       7 UNK        -0.5000 
     37 CA          4.3620  -19.2059  -42.6197 C.3       7 UNK         0.1400 
     38 CB          5.8313  -18.7876  -42.7774 C.3       7 UNK        -0.1800 
     39 N           3.7262  -18.3736  -41.5981 N.am      7 UNK        -0.5000 
     40 C           2.5047  -18.5968  -41.0917 C.2       6 UNK         0.5000 
     41 O           1.8192  -19.5776  -41.3780 O.2       6 UNK        -0.5000 
     42 CA          1.9368  -17.5143  -40.1523 C.3       6 UNK         0.1400 
     43 CB          2.3163  -17.8110  -38.6943 C.3       6 UNK        -0.1800 
     44 N           2.3880  -16.1651  -40.5094 N.am      6 UNK        -0.5000 
     45 C           2.0597  -15.5386  -41.6466 C.2       5 UNK         0.5000 
     46 O           1.2942  -16.0098  -42.4906 O.2       5 UNK        -0.5000 
     47 CA          2.7756  -14.2120  -41.9246 C.3       5 UNK         0.1400 
     48 CB          4.1797  -14.4912  -42.5013 C.3       5 UNK        -0.1800 
     49 N           1.9830  -13.4258  -42.8653 N.am      5 UNK        -0.5000 
     50 C           2.2018  -12.1450  -43.1871 C.2       4 UNK         0.5000 
     51 O           3.1084  -11.4617  -42.7088 O.2       4 UNK        -0.5000 
     52 CA          1.2376  -11.5099  -44.2038 C.3       4 UNK         0.1400 
     53 CB          1.6353  -11.8863  -45.6397 C.3       4 UNK        -0.1800 
     54 N          -0.1586  -11.8759  -43.9657 N.am      4 UNK        -0.5000 
     55 C          -0.8925  -11.4272  -42.9355 C.2       3 UNK         0.5000 
     56 O          -0.4525  -10.6753  -42.0647 O.2       3 UNK        -0.5000 
     57 CA         -2.3670  -11.8693  -42.8598 C.3       3 UNK         0.1400 
     58 CB         -3.2973  -10.7435  -43.3391 C.3       3 UNK        -0.1800 
     59 N          -2.6342  -13.0741  -43.6431 N.am      3 UNK        -0.5000 
     60 C          -2.3808  -14.3197  -43.2211 C.2       2 UNK         0.5000 
     61 O          -1.9623  -14.5836  -42.0942 O.2       2 UNK        -0.5000 
     62 CA         -2.6263  -15.4638  -44.2241 C.3       2 UNK         0.1400 
     63 CB         -3.9249  -16.2157  -43.8969 C.3       2 UNK        -0.1800 
     64 N          -2.6588  -15.0321  -45.6230 N.am      2 UNK        -0.5000 
     65 C          -1.5732  -14.6338  -46.3005 C.2       1 UNK         0.5000 
     66 O          -0.4583  -14.5384  -45.7909 O.2       1 UNK        -0.5000 
     67 C           0.3342  -22.1158  -48.0532 C.2       11 UNK         0.5000 
     68 O           0.1051  -23.0020  -48.8770 O.2       11 UNK        -0.5000 
     69 N          -0.5526  -21.1672  -47.7172 N.am      12 UNK        -0.5000 
     70 CA         -1.9104  -21.0696  -48.2502 C.3       12 UNK         0.1400 
     71 CB         -2.5600  -19.7554  -47.7938 C.3       12 UNK        -0.1800 
     72 C          -2.7845  -22.2786  -47.8822 C.2       12 UNK         0.5000 
     73 O          -3.4146  -22.8612  -48.7653 O.2       12 UNK        -0.5000 
     74 N          -2.7766  -22.6601  -46.5975 N.am      13 UNK        -0.5000 
     75 CA         -3.5504  -23.7716  -46.0371 C.3       13 UNK         0.1400 
     76 CB         -3.3852  -23.7841  -44.5102 C.3       13 UNK        -0.1800 
     77 C          -3.2062  -25.1545  -46.6229 C.2       13 UNK         0.5000 
     78 O          -4.0525  -26.0478  -46.5797 O.2       13 UNK        -0.5000 
     79 N          -1.9930  -25.3097  -47.1720 N.am      14 UNK        -0.5000 
     80 CA         -1.5482  -26.5200  -47.8641 C.3       14 UNK         0.1400 
     81 CB         -0.0355  -26.4375  -48.1171 C.3       14 UNK        -0.1800 
     82 C          -2.3091  -26.7778  -49.1808 C.2       14 UNK         0.5000 
     83 O          -2.4964  -27.9392  -49.5461 O.2       14 UNK        -0.5000 
     84 N          -2.7441  -25.7046  -49.8558 N.am      15 UNK        -0.5000 
     85 CA         -3.5877  -25.7663  -51.0508 C.3       15 UNK         0.1400 
     86 CB         -3.1292  -24.6970  -52.0505 C.3       15 UNK        -0.1800 
     87 C          -5.0702  -25.5616  -50.6963 C.2       15 UNK         0.5000 
     88 O          -5.9255  -26.2436  -51.2626 O.2       15 UNK        -0.5000 
     89 N          -5.3361  -24.6377  -49.7609 N.am      16 UNK        -0.5000 
     90 CA         -6.6482  -24.1947  -49.2884 C.3       16 UNK         0.1400 
     91 CB         -7.3785  -25.3371  -48.5470 C.3       16 UNK        -0.1800 
     92 C          -7.4779  -23.5258  -50.4079 C.2       16 UNK         0.5000 
     93 O          -6.9024  -22.8853  -51.2931 O.2       16 UNK        -0.5000 
     94 N          -8.8119  -23.6520  -50.3299 N.am      17 UNK        -0.5000 
     95 CA         -9.8101  -23.0612  -51.2271 C.3       17 UNK         0.1400 
     96 CB         -9.7707  -23.7581  -52.6071 C.3       17 UNK        -0.1800 
     97 C          -9.6689  -21.5247  -51.2835 C.2       17 UNK         0.5000 
     98 O          -9.8575  -20.8682  -50.2575 O.2       17 UNK        -0.5000 
     99 N          -9.3148  -20.9895  -52.4556 N.am      18 UNK        -0.5000 
    100 CA        -8.9861  -19.5840  -52.6843 C.3       18 UNK         0.1400 
    101 CB       -10.1897  -18.8788  -53.3371 C.3       18 UNK        -0.1800 
    102 C         -7.6958  -19.4704  -53.5196 C.2       18 UNK         0.5000 
    103 O         -7.5560  -18.5347  -54.3096 O.2       18 UNK        -0.5000 
    104 N         -6.7832  -20.4402  -53.3584 N.am      19 UNK        -0.5000 
    105 CA        -5.4956  -20.4916  -54.0509 C.3       19 UNK         0.1400 
    106 CB        -4.9020  -21.8949  -53.8674 C.3       19 UNK        -0.1800 
    107 C         -4.5264  -19.4056  -53.5404 C.2       19 UNK         0.5000 
    108 O         -4.5698  -19.0498  -52.3596 O.2       19 UNK        -0.5000 
    109 N         -3.6655  -18.9065  -54.4336 N.am      20 UNK        -0.5000 
    110 CA        -2.6945  -17.8513  -54.1602 C.3       20 UNK         0.1400 
    111 CB        -3.3089  -16.4832  -54.4996 C.3       20 UNK        -0.1800 
    112 C         -1.4201  -18.0988  -54.9778 C.2       20 UNK         0.5000 
    113 O         -1.5175  -18.5490  -56.1220 O.2       20 UNK        -0.5000 
    114 N         -0.2647  -17.7635  -54.3820 N.am      21 UNK        -0.5000 
    115 CA         1.0868  -17.8107  -54.9577 C.3       21 UNK         0.1400 
    116 CB         1.2564  -16.6847  -55.9986 C.3       21 UNK        -0.1800 
    117 C          1.4717  -19.2013  -55.5078 C.2       21 UNK         0.5000 
    118 O          1.9804  -19.3113  -56.6253 O.2       21 UNK        -0.5000 
    119 N          1.1873  -20.2425  -54.7168 N.am      22 UNK        -0.5000 
    120 CA         1.2917  -21.6557  -55.1219 C.3       22 UNK         0.1400 
    121 C          2.7418  -22.2102  -55.2476 C.2       22 UNK         0.5000 
    122 N          3.7694  -21.4990  -54.8004 N.am      22 UNK        -0.7600 
    123 O          2.9373  -23.3070  -55.7641 O.2       22 UNK        -0.5000 
    124 C124        0.4252  -22.5945  -54.2388 C.3       23 UNK        -0.0398 
    125 S125       -1.2308  -21.9259  -53.8498 S.3       23 UNK        -0.2404 
    126 C126       -1.1702  -21.7727  -52.0363 C.3       23 UNK        -0.0205 
    127 H127       -4.7136  -10.9986  -46.6162 H         1 UNK         0.0600 
    128 H128       -4.9181  -11.7267  -48.2124 H         1 UNK         0.0600 
    129 H129       -3.9414  -10.2670  -48.0266 H         1 UNK         0.0600 
    130 H130       -3.6696  -13.5477  -48.4785 H         1 UNK         0.3000 
    131 H131       -0.8861  -13.6756  -48.0841 H         1 UNK         0.0600 
    132 H132       -2.2374  -15.0477  -49.7062 H         1 UNK         0.0800 
    133 H133       -2.8327  -16.0264  -48.3934 H         1 UNK         0.0800 
    134 H134       -0.0189  -16.2122  -51.1941 H         1 UNK         0.0800 
    135 H135       -1.6033  -16.9194  -50.9645 H         1 UNK         0.0800 
    136 H136       -1.8524  -19.2033  -51.4896 H         1 UNK         0.1150 
    137 H137        1.4885  -21.8715  -51.4270 H         1 UNK         0.1150 
    138 H138        1.9914  -17.7968  -50.2126 H         1 UNK         0.1150 
    139 H139        3.8993  -20.3508  -51.3729 H         1 UNK         0.0800 
    140 H140        3.8240  -19.2937  -49.9825 H         1 UNK         0.0800 
    141 H141        2.1783  -20.0956  -48.0034 H         1 UNK         0.0800 
    142 H142        3.4509  -20.8606  -47.1015 H         1 UNK         0.0800 
    143 H143        2.1262  -23.0988  -47.4290 H         1 UNK         0.0600 
    144 H144        1.8846  -21.1478  -45.4125 H         1 UNK         0.3000 
    145 H145       -0.2724  -22.9652  -43.2161 H         1 UNK         0.0600 
    146 H146        1.6298  -22.5245  -41.6903 H         1 UNK         0.0600 
    147 H147        2.6952  -22.2183  -43.0592 H         1 UNK         0.0600 
    148 H148        2.0287  -23.8256  -42.8026 H         1 UNK         0.0600 
    149 H149        0.9484  -20.4175  -42.9406 H         1 UNK         0.3000 
    150 H150       -1.6661  -18.5038  -44.5125 H         1 UNK         0.0600 
    151 H151       -2.3483  -18.7641  -42.1938 H         1 UNK         0.0600 
    152 H152       -1.2695  -17.3775  -42.2378 H         1 UNK         0.0600 
    153 H153       -0.6939  -18.9227  -41.6352 H         1 UNK         0.0600 
    154 H154        0.8018  -17.6294  -43.4644 H         1 UNK         0.3000 
    155 H155        2.8313  -18.1863  -46.3720 H         1 UNK         0.0600 
    156 H156        1.8697  -15.6127  -45.0259 H         1 UNK         0.0600 
    157 H157        1.7289  -15.9882  -46.7365 H         1 UNK         0.0600 
    158 H158        3.3172  -15.7933  -46.0129 H         1 UNK         0.0600 
    159 H159        3.3025  -17.1433  -43.7180 H         1 UNK         0.3000 
    160 H160        4.3346  -20.2439  -42.2812 H         1 UNK         0.0600 
    161 H161        5.9248  -17.7471  -43.0914 H         1 UNK         0.0600 
    162 H162        6.3333  -19.4028  -43.5253 H         1 UNK         0.0600 
    163 H163        6.3772  -18.9063  -41.8413 H         1 UNK         0.0600 
    164 H164        4.2312  -17.5544  -41.2955 H         1 UNK         0.3000 
    165 H165        0.8484  -17.5403  -40.2346 H         1 UNK         0.0600 
    166 H166        1.8593  -17.0922  -38.0139 H         1 UNK         0.0600 
    167 H167        1.9724  -18.8025  -38.3963 H         1 UNK         0.0600 
    168 H168        3.3960  -17.7786  -38.5429 H         1 UNK         0.0600 
    169 H169        3.0245  -15.7175  -39.8652 H         1 UNK         0.3000 
    170 H170        2.8615  -13.6589  -40.9872 H         1 UNK         0.0600 
    171 H171        4.1239  -14.9833  -43.4729 H         1 UNK         0.0600 
    172 H172        4.7522  -13.5729  -42.6286 H         1 UNK         0.0600 
    173 H173        4.7610  -15.1338  -41.8390 H         1 UNK         0.0600 
    174 H174        1.2040  -13.9242  -43.2793 H         1 UNK         0.3000 
    175 H175        1.3194  -10.4249  -44.1097 H         1 UNK         0.0600 
    176 H176        1.6413  -12.9660  -45.7896 H         1 UNK         0.0600 
    177 H177        0.9507  -11.4503  -46.3678 H         1 UNK         0.0600 
    178 H178        2.6362  -11.5212  -45.8726 H         1 UNK         0.0600 
    179 H179       -0.5888  -12.4889  -44.6464 H         1 UNK         0.3000 
    180 H180       -2.5971  -12.0692  -41.8110 H         1 UNK         0.0600 
    181 H181       -4.3445  -11.0361  -43.2619 H         1 UNK         0.0600 
    182 H182       -3.1003  -10.4682  -44.3752 H         1 UNK         0.0600 
    183 H183       -3.1659   -9.8462  -42.7332 H         1 UNK         0.0600 
    184 H184       -2.9468  -12.9376  -44.5933 H         1 UNK         0.3000 
    185 H185       -1.7905  -16.1545  -44.1174 H         1 UNK         0.0600 
    186 H186       -4.8005  -15.5767  -44.0169 H         1 UNK         0.0600 
    187 H187       -4.0500  -17.0856  -44.5421 H         1 UNK         0.0600 
    188 H188       -3.9194  -16.5756  -42.8671 H         1 UNK         0.0600 
    189 H189       -3.5544  -15.0490  -46.0888 H         1 UNK         0.3000 
    190 H190       -0.2681  -20.4400  -47.0647 H         1 UNK         0.3000 
    191 H191       -1.8401  -21.0453  -49.3354 H         1 UNK         0.0600 
    192 H192       -2.6334  -19.6919  -46.7083 H         1 UNK         0.0600 
    193 H193       -3.5667  -19.6544  -48.2009 H         1 UNK         0.0600 
    194 H194       -1.9836  -18.8984  -48.1380 H         1 UNK         0.0600 
    195 H195       -2.2467  -22.1037  -45.9298 H         1 UNK         0.3000 
    196 H196       -4.6015  -23.5818  -46.2633 H         1 UNK         0.0600 
    197 H197       -3.7293  -22.8491  -44.0679 H         1 UNK         0.0600 
    198 H198       -2.3433  -23.9287  -44.2233 H         1 UNK         0.0600 
    199 H199       -3.9661  -24.5889  -44.0579 H         1 UNK         0.0600 
    200 H200       -1.3385  -24.5389  -47.1283 H         1 UNK         0.3000 
    201 H201       -1.7338  -27.3689  -47.2027 H         1 UNK         0.0600 
    202 H202        0.5129  -26.2663  -47.1905 H         1 UNK         0.0600 
    203 H203        0.2141  -25.6328  -48.8085 H         1 UNK         0.0600 
    204 H204        0.3372  -27.3665  -48.5501 H         1 UNK         0.0600 
    205 H205       -2.5742  -24.7863  -49.4649 H         1 UNK         0.3000 
    206 H206       -3.4873  -26.7398  -51.5352 H         1 UNK         0.0600 
    207 H207       -3.2404  -23.6969  -51.6338 H         1 UNK         0.0600 
    208 H208       -2.0846  -24.8354  -52.3295 H         1 UNK         0.0600 
    209 H209       -3.7203  -24.7372  -52.9663 H         1 UNK         0.0600 
    210 H210       -4.5604  -24.0773  -49.4141 H         1 UNK         0.3000 
    211 H211       -6.4451  -23.4091  -48.5595 H         1 UNK         0.0600 
    212 H212       -7.7186  -26.1155  -49.2307 H         1 UNK         0.0600 
    213 H213       -8.2479  -24.9674  -48.0027 H         1 UNK         0.0600 
    214 H214       -6.7227  -25.8057  -47.8127 H         1 UNK         0.0600 
    215 H215       -9.1884  -24.1697  -49.5487 H         1 UNK         0.3000 
    216 H216      -10.7872  -23.2614  -50.7849 H         1 UNK         0.0600 
    217 H217      -10.5469  -23.3697  -53.2677 H         1 UNK         0.0600 
    218 H218       -9.9483  -24.8286  -52.5034 H         1 UNK         0.0600 
    219 H219       -8.8100  -23.6353  -53.1085 H         1 UNK         0.0600 
    220 H220       -9.1577  -21.6096  -53.2381 H         1 UNK         0.3000 
    221 H221       -8.7726  -19.0895  -51.7346 H         1 UNK         0.0600 
    222 H222      -10.4197  -19.3025  -54.3152 H         1 UNK         0.0600 
    223 H223      -11.0811  -18.9668  -52.7157 H         1 UNK         0.0600 
    224 H224       -9.9963  -17.8142  -53.4742 H         1 UNK         0.0600 
    225 H225       -6.9391  -21.1522  -52.6534 H         1 UNK         0.3000 
    226 H226       -5.6777  -20.3301  -55.1155 H         1 UNK         0.0600 
    227 H227       -5.6190  -22.6703  -54.1378 H         1 UNK         0.0600 
    228 H228       -4.0283  -22.0318  -54.5029 H         1 UNK         0.0600 
    229 H229       -4.5973  -22.0683  -52.8348 H         1 UNK         0.0600 
    230 H230       -3.6254  -19.2845  -55.3714 H         1 UNK         0.3000 
    231 H231       -2.4324  -17.8512  -53.1039 H         1 UNK         0.0600 
    232 H232       -4.1940  -16.2876  -53.8938 H         1 UNK         0.0600 
    233 H233       -3.6015  -16.4238  -55.5487 H         1 UNK         0.0600 
    234 H234       -2.5994  -15.6770  -54.3088 H         1 UNK         0.0600 
    235 H235       -0.3050  -17.4194  -53.4342 H         1 UNK         0.3000 
    236 H236        1.7782  -17.6083  -54.1383 H         1 UNK         0.0600 
    237 H237        0.6103  -16.8345  -56.8643 H         1 UNK         0.0600 
    238 H238        1.0191  -15.7117  -55.5684 H         1 UNK         0.0600 
    239 H239        2.2842  -16.6360  -56.3602 H         1 UNK         0.0600 
    240 H240        0.7502  -20.0739  -53.8220 H         1 UNK         0.3000 
    241 H241        0.8745  -21.7112  -56.1294 H         1 UNK         0.0600 
    242 H242        4.7043  -21.8646  -54.8903 H         1 UNK         0.3800 
    243 H243        3.6207  -20.5924  -54.3885 H         1 UNK         0.3800 
    244 H244        0.9433  -22.8491  -53.3158 H         1 UNK         0.0800 
    245 H245        0.2787  -23.5456  -54.7533 H         1 UNK         0.0800 
    246 H246       -2.1851  -21.5987  -51.6765 H         1 UNK         0.0800 
    247 H247       -0.8507  -22.7172  -51.5930 H         1 UNK         0.0800 
@<TRIPOS>BOND
     1    1    2 1    
     2    1  127 1    
     3    1  128 1    
     4    1  129 1    
     5    2    3 2    
     6    2    4 am   BACKBONE|DICT|INTERRES
     7    4    5 1    
     8    4  130 1    
     9    5    6 1    
    10    5   65 1    
    11    5  131 1    
    12    6    7 1    
    13    6  132 1    
    14    6  133 1    
    15    7    8 1    
    16    8    9 1    
    17    8  134 1    
    18    8  135 1    
    19    9   10 ar   
    20    9   14 ar   
    21   10   11 ar   
    22   10  136 1    
    23   11   12 ar   
    24   11  126 1    
    25   12   13 ar   
    26   12  137 1    
    27   13   14 ar   
    28   13   15 1    
    29   14  138 1    
    30   15   16 1    
    31   15  139 1    
    32   15  140 1    
    33   16   17 1    
    34   17   18 1    
    35   17  141 1    
    36   17  142 1    
    37   18   19 1    
    38   18   67 1    
    39   18  143 1    
    40   19   20 am   BACKBONE|DICT|INTERRES
    41   19  144 1    
    42   20   21 2    
    43   20   22 1    
    44   22   23 1    
    45   22   24 1    
    46   22  145 1    
    47   23  146 1    
    48   23  147 1    
    49   23  148 1    
    50   24   25 am   BACKBONE|DICT|INTERRES
    51   24  149 1    
    52   25   26 2    
    53   25   27 1    
    54   27   28 1    
    55   27   29 1    
    56   27  150 1    
    57   28  151 1    
    58   28  152 1    
    59   28  153 1    
    60   29   30 am   BACKBONE|DICT|INTERRES
    61   29  154 1    
    62   30   31 2    
    63   30   32 1    
    64   32   33 1    
    65   32   34 1    
    66   32  155 1    
    67   33  156 1    
    68   33  157 1    
    69   33  158 1    
    70   34   35 am   BACKBONE|DICT|INTERRES
    71   34  159 1    
    72   35   36 2    
    73   35   37 1    
    74   37   38 1    
    75   37   39 1    
    76   37  160 1    
    77   38  161 1    
    78   38  162 1    
    79   38  163 1    
    80   39   40 am   BACKBONE|DICT|INTERRES
    81   39  164 1    
    82   40   41 2    
    83   40   42 1    
    84   42   43 1    
    85   42   44 1    
    86   42  165 1    
    87   43  166 1    
    88   43  167 1    
    89   43  168 1    
    90   44   45 am   BACKBONE|DICT|INTERRES
    91   44  169 1    
    92   45   46 2    
    93   45   47 1    
    94   47   48 1    
    95   47   49 1    
    96   47  170 1    
    97   48  171 1    
    98   48  172 1    
    99   48  173 1    
   100   49   50 am   BACKBONE|DICT|INTERRES
   101   49  174 1    
   102   50   51 2    
   103   50   52 1    
   104   52   53 1    
   105   52   54 1    
   106   52  175 1    
   107   53  176 1    
   108   53  177 1    
   109   53  178 1    
   110   54   55 am   BACKBONE|DICT|INTERRES
   111   54  179 1    
   112   55   56 2    
   113   55   57 1    
   114   57   58 1    
   115   57   59 1    
   116   57  180 1    
   117   58  181 1    
   118   58  182 1    
   119   58  183 1    
   120   59   60 am   BACKBONE|DICT|INTERRES
   121   59  184 1    
   122   60   61 2    
   123   60   62 1    
   124   62   63 1    
   125   62   64 1    
   126   62  185 1    
   127   63  186 1    
   128   63  187 1    
   129   63  188 1    
   130   64   65 am   BACKBONE|DICT|INTERRES
   131   64  189 1    
   132   65   66 2    
   133   67   68 2    
   134   67   69 am   BACKBONE|DICT|INTERRES
   135   69   70 1    
   136   69  190 1    
   137   70   71 1    
   138   70   72 1    
   139   70  191 1    
   140   71  192 1    
   141   71  193 1    
   142   71  194 1    
   143   72   73 2    
   144   72   74 am   BACKBONE|DICT|INTERRES
   145   74   75 1    
   146   74  195 1    
   147   75   76 1    
   148   75   77 1    
   149   75  196 1    
   150   76  197 1    
   151   76  198 1    
   152   76  199 1    
   153   77   78 2    
   154   77   79 am   BACKBONE|DICT|INTERRES
   155   79   80 1    
   156   79  200 1    
   157   80   81 1    
   158   80   82 1    
   159   80  201 1    
   160   81  202 1    
   161   81  203 1    
   162   81  204 1    
   163   82   83 2    
   164   82   84 am   BACKBONE|DICT|INTERRES
   165   84   85 1    
   166   84  205 1    
   167   85   86 1    
   168   85   87 1    
   169   85  206 1    
   170   86  207 1    
   171   86  208 1    
   172   86  209 1    
   173   87   88 2    
   174   87   89 am   BACKBONE|DICT|INTERRES
   175   89   90 1    
   176   89  210 1    
   177   90   91 1    
   178   90   92 1    
   179   90  211 1    
   180   91  212 1    
   181   91  213 1    
   182   91  214 1    
   183   92   93 2    
   184   92   94 am   BACKBONE|DICT|INTERRES
   185   94   95 1    
   186   94  215 1    
   187   95   96 1    
   188   95   97 1    
   189   95  216 1    
   190   96  217 1    
   191   96  218 1    
   192   96  219 1    
   193   97   98 2    
   194   97   99 am   BACKBONE|DICT|INTERRES
   195   99  100 1    
   196   99  220 1    
   197  100  101 1    
   198  100  102 1    
   199  100  221 1    
   200  101  222 1    
   201  101  223 1    
   202  101  224 1    
   203  102  103 2    
   204  102  104 am   BACKBONE|DICT|INTERRES
   205  104  105 1    
   206  104  225 1    
   207  105  106 1    
   208  105  107 1    
   209  105  226 1    
   210  106  227 1    
   211  106  228 1    
   212  106  229 1    
   213  107  108 2    
   214  107  109 am   BACKBONE|DICT|INTERRES
   215  109  110 1    
   216  109  230 1    
   217  110  111 1    
   218  110  112 1    
   219  110  231 1    
   220  111  232 1    
   221  111  233 1    
   222  111  234 1    
   223  112  113 2    
   224  112  114 am   BACKBONE|DICT|INTERRES
   225  114  115 1    
   226  114  235 1    
   227  115  116 1    
   228  115  117 1    
   229  115  236 1    
   230  116  237 1    
   231  116  238 1    
   232  116  239 1    
   233  117  118 2    
   234  117  119 am   BACKBONE|DICT|INTERRES
   235  119  120 1    
   236  119  240 1    
   237  120  121 1    
   238  120  124 1    
   239  120  241 1    
   240  121  122 am   BACKBONE|DICT|INTERRES
   241  121  123 2    
   242  122  242 1    
   243  122  243 1    
   244  124  125 1    
   245  124  244 1    
   246  124  245 1    
   247  125  126 1    
   248  126  246 1    
   249  126  247 1    
@<TRIPOS>SUBSTRUCTURE
     1 UNK         1 GROUP             0       ****    0 ROOT    
