@<TRIPOS>MOLECULE
3R540
247   249    1
SMALL
USER_CHARGES


@<TRIPOS>ATOM
      1 CA         -1.6423  -12.4700  -44.7139 C.3       0 UNK        -0.1800 
      2 C          -0.8850  -12.4326  -46.0339 C.2       0 UNK         0.5000 
      3 O          -0.0304  -11.5678  -46.2229 O.2       0 UNK        -0.5000 
      4 N          -1.1763  -13.3786  -46.9390 N.am      1 UNK        -0.5000 
      5 CA         -0.5676  -13.5085  -48.2744 C.3       1 UNK         0.1400 
      6 C6         -1.2579  -14.6292  -49.0952 C.3       23 UNK        -0.0398 
      7 S7         -1.2185  -14.3277  -50.8945 S.3       23 UNK        -0.2404 
      8 C8         -2.2411  -15.7040  -51.5100 C.3       23 UNK        -0.0205 
      9 C9         -1.4444  -16.9940  -51.6374 C.ar      23 UNK        -0.0193 
     10 C10        -0.8296  -17.3235  -52.8491 C.ar      23 UNK        -0.1150 
     11 C11        -0.0968  -18.5076  -52.9751 C.ar      23 UNK        -0.0193 
     12 C12         0.0137  -19.3679  -51.8798 C.ar      23 UNK        -0.1150 
     13 C13        -0.5930  -19.0481  -50.6627 C.ar      23 UNK        -0.0193 
     14 C14        -1.3272  -17.8639  -50.5498 C.ar      23 UNK        -0.1150 
     15 C15        -0.4715  -19.9894  -49.4764 C.3       23 UNK        -0.0205 
     16 S16         1.2452  -20.1063  -48.8707 S.3       23 UNK        -0.2404 
     17 C17         0.9941  -20.1819  -47.0651 C.3       23 UNK        -0.0398 
     18 CA          0.7651  -21.6071  -46.5016 C.3       11 UNK         0.1400 
     19 N           0.8617  -21.6273  -45.0412 N.am      11 UNK        -0.5000 
     20 C           0.7840  -22.7169  -44.2641 C.2       10 UNK         0.5000 
     21 O           0.6991  -23.8661  -44.6978 O.2       10 UNK        -0.5000 
     22 CA          0.7344  -22.4714  -42.7440 C.3       10 UNK         0.1400 
     23 CB          2.1406  -22.2240  -42.1782 C.3       10 UNK        -0.1800 
     24 N          -0.1452  -21.3555  -42.3862 N.am      10 UNK        -0.5000 
     25 C          -1.4701  -21.3413  -42.5968 C.2       9 UNK         0.5000 
     26 O          -2.0973  -22.2902  -43.0684 O.2       9 UNK        -0.5000 
     27 CA         -2.2119  -20.0310  -42.2747 C.3       9 UNK         0.1400 
     28 CB         -2.4623  -19.8966  -40.7654 C.3       9 UNK        -0.1800 
     29 N          -1.5017  -18.8497  -42.7670 N.am      9 UNK        -0.5000 
     30 C          -1.2728  -18.5896  -44.0618 C.2       8 UNK         0.5000 
     31 O          -1.6902  -19.2894  -44.9821 O.2       8 UNK        -0.5000 
     32 CA         -0.3822  -17.3795  -44.3901 C.3       8 UNK         0.1400 
     33 CB         -1.1964  -16.0797  -44.3988 C.3       8 UNK        -0.1800 
     34 N           0.7493  -17.2494  -43.4741 N.am      8 UNK        -0.5000 
     35 C           1.7420  -18.1437  -43.3616 C.2       7 UNK         0.5000 
     36 O           1.8239  -19.1608  -44.0468 O.2       7 UNK        -0.5000 
     37 CA          2.7934  -17.8825  -42.2715 C.3       7 UNK         0.1400 
     38 CB          3.8465  -16.8712  -42.7461 C.3       7 UNK        -0.1800 
     39 N           2.1793  -17.4120  -41.0323 N.am      7 UNK        -0.5000 
     40 C           1.3967  -18.1653  -40.2470 C.2       6 UNK         0.5000 
     41 O           1.1483  -19.3526  -40.4612 O.2       6 UNK        -0.5000 
     42 CA          0.7478  -17.4504  -39.0488 C.3       6 UNK         0.1400 
     43 CB          1.7218  -17.3819  -37.8632 C.3       6 UNK        -0.1800 
     44 N           0.2950  -16.0989  -39.3874 N.am      6 UNK        -0.5000 
     45 C          -0.7116  -15.8337  -40.2319 C.2       5 UNK         0.5000 
     46 O          -1.3731  -16.7020  -40.7996 O.2       5 UNK        -0.5000 
     47 CA         -0.9996  -14.3503  -40.5218 C.3       5 UNK         0.1400 
     48 CB         -1.8913  -13.7467  -39.4267 C.3       5 UNK        -0.1800 
     49 N           0.2132  -13.5401  -40.6668 N.am      5 UNK        -0.5000 
     50 C           1.1040  -13.6876  -41.6548 C.2       4 UNK         0.5000 
     51 O           1.0376  -14.5708  -42.5134 O.2       4 UNK        -0.5000 
     52 CA          2.2659  -12.6909  -41.6969 C.3       4 UNK         0.1400 
     53 CB          3.5047  -13.2469  -40.9741 C.3       4 UNK        -0.1800 
     54 N           2.5638  -12.4281  -43.0991 N.am      4 UNK        -0.5000 
     55 C           3.1650  -11.3380  -43.5860 C.2       3 UNK         0.5000 
     56 O           3.6311  -10.4489  -42.8713 O.2       3 UNK        -0.5000 
     57 CA          3.2097  -11.1799  -45.1213 C.3       3 UNK         0.1400 
     58 CB          4.5503  -10.6026  -45.6233 C.3       3 UNK        -0.1800 
     59 N           2.8172  -12.3827  -45.8692 N.am      3 UNK        -0.5000 
     60 C           3.5082  -13.5221  -46.0350 C.2       2 UNK         0.5000 
     61 O           4.6189  -13.7205  -45.5427 O.2       2 UNK        -0.5000 
     62 CA          2.8476  -14.6415  -46.8729 C.3       2 UNK         0.1400 
     63 CB          2.9447  -16.0005  -46.1644 C.3       2 UNK        -0.1800 
     64 N           1.4361  -14.3843  -47.1622 N.am      2 UNK        -0.5000 
     65 C           0.9652  -13.7180  -48.2248 C.2       1 UNK         0.5000 
     66 O           1.6819  -13.2495  -49.1095 O.2       1 UNK        -0.5000 
     67 C          -0.5738  -22.2032  -46.9781 C.2       11 UNK         0.5000 
     68 O          -0.5671  -23.1011  -47.8177 O.2       11 UNK        -0.5000 
     69 N          -1.6917  -21.7186  -46.4188 N.am      12 UNK        -0.5000 
     70 CA         -3.0448  -22.1738  -46.7358 C.3       12 UNK         0.1400 
     71 CB         -4.0755  -21.2956  -46.0125 C.3       12 UNK        -0.1800 
     72 C          -3.2724  -23.6617  -46.4267 C.2       12 UNK         0.5000 
     73 O          -3.8748  -24.3588  -47.2421 O.2       12 UNK        -0.5000 
     74 N          -2.7489  -24.1316  -45.2865 N.am      13 UNK        -0.5000 
     75 CA         -2.7777  -25.5384  -44.8858 C.3       13 UNK         0.1400 
     76 CB         -2.2590  -25.6697  -43.4458 C.3       13 UNK        -0.1800 
     77 C          -1.9846  -26.4544  -45.8387 C.2       13 UNK         0.5000 
     78 O          -2.4288  -27.5699  -46.1130 O.2       13 UNK        -0.5000 
     79 N          -0.8375  -25.9679  -46.3307 N.am      14 UNK        -0.5000 
     80 CA          0.0228  -26.6792  -47.2735 C.3       14 UNK         0.1400 
     81 CB          1.4338  -26.0710  -47.2320 C.3       14 UNK        -0.1800 
     82 C          -0.5344  -26.6722  -48.7090 C.2       14 UNK         0.5000 
     83 O          -0.5799  -27.7245  -49.3477 O.2       14 UNK        -0.5000 
     84 N          -0.9231  -25.4879  -49.1991 N.am      15 UNK        -0.5000 
     85 CA         -1.3455  -25.2613  -50.5822 C.3       15 UNK         0.1400 
     86 CB         -1.1834  -23.7709  -50.9188 C.3       15 UNK        -0.1800 
     87 C          -2.7871  -25.7107  -50.8725 C.2       15 UNK         0.5000 
     88 O          -3.0941  -26.0122  -52.0269 O.2       15 UNK        -0.5000 
     89 N          -3.6472  -25.7146  -49.8436 N.am      16 UNK        -0.5000 
     90 CA         -5.0826  -26.0235  -49.8452 C.3       16 UNK         0.1400 
     91 CB         -5.3578  -27.4670  -50.3102 C.3       16 UNK        -0.1800 
     92 C          -5.9321  -24.9966  -50.6199 C.2       16 UNK         0.5000 
     93 O          -6.8085  -24.3649  -50.0291 O.2       16 UNK        -0.5000 
     94 N          -5.6575  -24.8431  -51.9207 N.am      17 UNK        -0.5000 
     95 CA         -6.2973  -23.8705  -52.8061 C.3       17 UNK         0.1400 
     96 CB         -6.0873  -24.3017  -54.2642 C.3       17 UNK        -0.1800 
     97 C          -5.7663  -22.4455  -52.5753 C.2       17 UNK         0.5000 
     98 O          -6.5563  -21.5002  -52.5682 O.2       17 UNK        -0.5000 
     99 N          -4.4433  -22.3284  -52.3723 N.am      18 UNK        -0.5000 
    100 CA        -3.7023  -21.1041  -52.0487 C.3       18 UNK         0.1400 
    101 CB        -3.9718  -20.7210  -50.5774 C.3       18 UNK        -0.1800 
    102 C         -3.9869  -19.9702  -53.0549 C.2       18 UNK         0.5000 
    103 O         -3.6309  -20.1008  -54.2270 O.2       18 UNK        -0.5000 
    104 N         -4.6778  -18.9141  -52.6044 N.am      19 UNK        -0.5000 
    105 CA        -5.0964  -17.7597  -53.4001 C.3       19 UNK         0.1400 
    106 CB        -5.8721  -16.7875  -52.4993 C.3       19 UNK        -0.1800 
    107 C         -5.9341  -18.1134  -54.6464 C.2       19 UNK         0.5000 
    108 O         -5.8516  -17.3976  -55.6447 O.2       19 UNK        -0.5000 
    109 N         -6.6891  -19.2204  -54.5937 N.am      20 UNK        -0.5000 
    110 CA        -7.4706  -19.7273  -55.7231 C.3       20 UNK         0.1400 
    111 CB        -8.5120  -20.7339  -55.2103 C.3       20 UNK        -0.1800 
    112 C         -6.6050  -20.3615  -56.8313 C.2       20 UNK         0.5000 
    113 O         -7.0646  -20.4402  -57.9714 O.2       20 UNK        -0.5000 
    114 N         -5.3869  -20.8049  -56.4900 N.am      21 UNK        -0.5000 
    115 CA        -4.4415  -21.4216  -57.4198 C.3       21 UNK         0.1400 
    116 CB        -3.7819  -22.6337  -56.7441 C.3       21 UNK        -0.1800 
    117 C         -3.3675  -20.4330  -57.9003 C.2       21 UNK         0.5000 
    118 O         -2.9659  -20.5072  -59.0627 O.2       21 UNK        -0.5000 
    119 N         -2.9055  -19.5464  -57.0109 N.am      22 UNK        -0.5000 
    120 CA        -1.7348  -18.6829  -57.2400 C.3       22 UNK         0.1400 
    121 C         -1.8529  -17.2539  -56.6389 C.2       22 UNK         0.5000 
    122 N         -3.0275  -16.7914  -56.2337 N.am      22 UNK        -0.7600 
    123 O         -0.8679  -16.5238  -56.5728 O.2       22 UNK        -0.5000 
    124 C124       -0.4029  -19.4061  -56.8899 C.3       23 UNK        -0.0398 
    125 S125       -0.3556  -20.1107  -55.2033 S.3       23 UNK        -0.2404 
    126 C126        0.5879  -18.8543  -54.2867 C.3       23 UNK        -0.0205 
    127 H127       -2.1206  -11.5084  -44.5286 H         1 UNK         0.0600 
    128 H128       -2.4147  -13.2392  -44.7100 H         1 UNK         0.0600 
    129 H129       -0.9544  -12.6734  -43.8932 H         1 UNK         0.0600 
    130 H130       -1.9000  -14.0488  -46.7228 H         1 UNK         0.3000 
    131 H131       -0.7429  -12.5541  -48.7759 H         1 UNK         0.0600 
    132 H132       -2.3102  -14.6997  -48.8162 H         1 UNK         0.0800 
    133 H133       -0.8235  -15.6051  -48.8736 H         1 UNK         0.0800 
    134 H134       -3.0988  -15.8520  -50.8531 H         1 UNK         0.0800 
    135 H135       -2.6503  -15.4273  -52.4829 H         1 UNK         0.0800 
    136 H136       -0.9181  -16.6551  -53.6942 H         1 UNK         0.1150 
    137 H137        0.5780  -20.2854  -51.9728 H         1 UNK         0.1150 
    138 H138       -1.8095  -17.6187  -49.6145 H         1 UNK         0.1150 
    139 H139       -1.1364  -19.6666  -48.6740 H         1 UNK         0.0800 
    140 H140       -0.8116  -20.9820  -49.7722 H         1 UNK         0.0800 
    141 H141        0.1904  -19.5048  -46.7794 H         1 UNK         0.0800 
    142 H142        1.8974  -19.7637  -46.6195 H         1 UNK         0.0800 
    143 H143        1.5627  -22.2515  -46.8774 H         1 UNK         0.0600 
    144 H144        0.9979  -20.7253  -44.5908 H         1 UNK         0.3000 
    145 H145        0.3351  -23.3736  -42.2761 H         1 UNK         0.0600 
    146 H146        2.1146  -22.1153  -41.0938 H         1 UNK         0.0600 
    147 H147        2.8051  -23.0582  -42.4067 H         1 UNK         0.0600 
    148 H148        2.5913  -21.3220  -42.5923 H         1 UNK         0.0600 
    149 H149        0.2928  -20.5452  -41.9615 H         1 UNK         0.3000 
    150 H150       -3.1817  -20.0684  -42.7752 H         1 UNK         0.0600 
    151 H151       -3.0063  -20.7604  -40.3814 H         1 UNK         0.0600 
    152 H152       -3.0586  -19.0114  -40.5433 H         1 UNK         0.0600 
    153 H153       -1.5302  -19.8193  -40.2056 H         1 UNK         0.0600 
    154 H154       -1.1813  -18.1846  -42.0695 H         1 UNK         0.3000 
    155 H155        0.0225  -17.5261  -45.3932 H         1 UNK         0.0600 
    156 H156       -1.6355  -15.8719  -43.4232 H         1 UNK         0.0600 
    157 H157       -2.0107  -16.1330  -45.1222 H         1 UNK         0.0600 
    158 H158       -0.5693  -15.2317  -44.6689 H         1 UNK         0.0600 
    159 H159        0.7823  -16.4036  -42.9117 H         1 UNK         0.3000 
    160 H160        3.3006  -18.8269  -42.0628 H         1 UNK         0.0600 
    161 H161        4.6096  -16.7088  -41.9849 H         1 UNK         0.0600 
    162 H162        3.4029  -15.9054  -42.9881 H         1 UNK         0.0600 
    163 H163        4.3544  -17.2318  -43.6412 H         1 UNK         0.0600 
    164 H164        2.2997  -16.4373  -40.8036 H         1 UNK         0.3000 
    165 H165       -0.1221  -18.0358  -38.7431 H         1 UNK         0.0600 
    166 H166        1.2447  -16.9439  -36.9864 H         1 UNK         0.0600 
    167 H167        2.0636  -18.3789  -37.5818 H         1 UNK         0.0600 
    168 H168        2.6047  -16.7862  -38.0983 H         1 UNK         0.0600 
    169 H169        0.7885  -15.3272  -38.9635 H         1 UNK         0.3000 
    170 H170       -1.5467  -14.3016  -41.4657 H         1 UNK         0.0600 
    171 H171       -2.8105  -14.3227  -39.3104 H         1 UNK         0.0600 
    172 H172       -1.3888  -13.7312  -38.4588 H         1 UNK         0.0600 
    173 H173       -2.1796  -12.7244  -39.6722 H         1 UNK         0.0600 
    174 H174        0.3403  -12.7959  -39.9959 H         1 UNK         0.3000 
    175 H175        1.9485  -11.7627  -41.2170 H         1 UNK         0.0600 
    176 H176        3.8788  -14.1520  -41.4514 H         1 UNK         0.0600 
    177 H177        4.3154  -12.5183  -40.9651 H         1 UNK         0.0600 
    178 H178        3.2771  -13.4902  -39.9356 H         1 UNK         0.0600 
    179 H179        2.1853  -13.1131  -43.7397 H         1 UNK         0.3000 
    180 H180        2.4419  -10.4406  -45.3536 H         1 UNK         0.0600 
    181 H181        5.3966  -11.2275  -45.3378 H         1 UNK         0.0600 
    182 H182        4.7276   -9.6106  -45.2062 H         1 UNK         0.0600 
    183 H183        4.5556  -10.5015  -46.7085 H         1 UNK         0.0600 
    184 H184        1.8952  -12.3230  -46.2879 H         1 UNK         0.3000 
    185 H185        3.4032  -14.7108  -47.8103 H         1 UNK         0.0600 
    186 H186        2.4858  -16.7937  -46.7553 H         1 UNK         0.0600 
    187 H187        3.9829  -16.2857  -45.9912 H         1 UNK         0.0600 
    188 H188        2.4441  -15.9671  -45.1991 H         1 UNK         0.0600 
    189 H189        0.7732  -14.7049  -46.4729 H         1 UNK         0.3000 
    190 H190       -1.6217  -20.9506  -45.7543 H         1 UNK         0.3000 
    191 H191       -3.1852  -22.0433  -47.8079 H         1 UNK         0.0600 
    192 H192       -3.9554  -21.3430  -44.9300 H         1 UNK         0.0600 
    193 H193       -5.0925  -21.6129  -46.2461 H         1 UNK         0.0600 
    194 H194       -3.9833  -20.2521  -46.3140 H         1 UNK         0.0600 
    195 H195       -2.3070  -23.4803  -44.6442 H         1 UNK         0.3000 
    196 H196       -3.8189  -25.8672  -44.9023 H         1 UNK         0.0600 
    197 H197       -1.2280  -25.3263  -43.3563 H         1 UNK         0.0600 
    198 H198       -2.2907  -26.7074  -43.1116 H         1 UNK         0.0600 
    199 H199       -2.8661  -25.0858  -42.7538 H         1 UNK         0.0600 
    200 H200       -0.5252  -25.0519  -46.0288 H         1 UNK         0.3000 
    201 H201        0.1009  -27.7200  -46.9518 H         1 UNK         0.0600 
    202 H202        1.4289  -25.0159  -47.5078 H         1 UNK         0.0600 
    203 H203        2.1035  -26.5883  -47.9201 H         1 UNK         0.0600 
    204 H204        1.8662  -26.1507  -46.2345 H         1 UNK         0.0600 
    205 H205       -0.8317  -24.6581  -48.6132 H         1 UNK         0.3000 
    206 H206       -0.6848  -25.8283  -51.2416 H         1 UNK         0.0600 
    207 H207       -0.1601  -23.4354  -50.7483 H         1 UNK         0.0600 
    208 H208       -1.4179  -23.5772  -51.9661 H         1 UNK         0.0600 
    209 H209       -1.8434  -23.1523  -50.3104 H         1 UNK         0.0600 
    210 H210       -3.3045  -25.3856  -48.9470 H         1 UNK         0.3000 
    211 H211       -5.3957  -25.9620  -48.8020 H         1 UNK         0.0600 
    212 H212       -5.0838  -27.6273  -51.3530 H         1 UNK         0.0600 
    213 H213       -6.4168  -27.7089  -50.2132 H         1 UNK         0.0600 
    214 H214       -4.8039  -28.1851  -49.7054 H         1 UNK         0.0600 
    215 H215       -4.8810  -25.3804  -52.2963 H         1 UNK         0.3000 
    216 H216       -7.3708  -23.8631  -52.6050 H         1 UNK         0.0600 
    217 H217       -6.5013  -23.5685  -54.9575 H         1 UNK         0.0600 
    218 H218       -6.5789  -25.2535  -54.4658 H         1 UNK         0.0600 
    219 H219       -5.0285  -24.4187  -54.4963 H         1 UNK         0.0600 
    220 H220       -3.8887  -23.1683  -52.4419 H         1 UNK         0.3000 
    221 H221       -2.6405  -21.3339  -52.1467 H         1 UNK         0.0600 
    222 H222       -5.0283  -20.5312  -50.3847 H         1 UNK         0.0600 
    223 H223       -3.6637  -21.5291  -49.9179 H         1 UNK         0.0600 
    224 H224       -3.4131  -19.8331  -50.2836 H         1 UNK         0.0600 
    225 H225       -4.9695  -18.9191  -51.6385 H         1 UNK         0.3000 
    226 H226       -4.1881  -17.2602  -53.7407 H         1 UNK         0.0600 
    227 H227       -5.2762  -16.4752  -51.6426 H         1 UNK         0.0600 
    228 H228       -6.1499  -15.8857  -53.0465 H         1 UNK         0.0600 
    229 H229       -6.7906  -17.2381  -52.1210 H         1 UNK         0.0600 
    230 H230       -6.6775  -19.7905  -53.7538 H         1 UNK         0.3000 
    231 H231       -8.0087  -18.8879  -56.1688 H         1 UNK         0.0600 
    232 H232       -9.1430  -20.2927  -54.4387 H         1 UNK         0.0600 
    233 H233       -8.0426  -21.6239  -54.7921 H         1 UNK         0.0600 
    234 H234       -9.1674  -21.0612  -56.0183 H         1 UNK         0.0600 
    235 H235       -5.0510  -20.6497  -55.5460 H         1 UNK         0.3000 
    236 H236       -4.9659  -21.7870  -58.3053 H         1 UNK         0.0600 
    237 H237       -3.0030  -23.0612  -57.3769 H         1 UNK         0.0600 
    238 H238       -3.3222  -22.3695  -55.7909 H         1 UNK         0.0600 
    239 H239       -4.5129  -23.4200  -56.5639 H         1 UNK         0.0600 
    240 H240       -3.2292  -19.5953  -56.0489 H         1 UNK         0.3000 
    241 H241       -1.6900  -18.4710  -58.3097 H         1 UNK         0.0600 
    242 H242       -3.8808  -17.3262  -56.3285 H         1 UNK         0.3800 
    243 H243       -3.0768  -15.8490  -55.8827 H         1 UNK         0.3800 
    244 H244       -0.2642  -20.2370  -57.5826 H         1 UNK         0.0800 
    245 H245        0.4588  -18.7577  -57.0552 H         1 UNK         0.0800 
    246 H246        1.5910  -19.2353  -54.0904 H         1 UNK         0.0800 
    247 H247        0.7187  -17.9531  -54.8863 H         1 UNK         0.0800 
@<TRIPOS>BOND
     1    1    2 1    
     2    1  127 1    
     3    1  128 1    
     4    1  129 1    
     5    2    3 2    
     6    2    4 am   BACKBONE|DICT|INTERRES
     7    4    5 1    
     8    4  130 1    
     9    5    6 1    
    10    5   65 1    
    11    5  131 1    
    12    6    7 1    
    13    6  132 1    
    14    6  133 1    
    15    7    8 1    
    16    8    9 1    
    17    8  134 1    
    18    8  135 1    
    19    9   10 ar   
    20    9   14 ar   
    21   10   11 ar   
    22   10  136 1    
    23   11   12 ar   
    24   11  126 1    
    25   12   13 ar   
    26   12  137 1    
    27   13   14 ar   
    28   13   15 1    
    29   14  138 1    
    30   15   16 1    
    31   15  139 1    
    32   15  140 1    
    33   16   17 1    
    34   17   18 1    
    35   17  141 1    
    36   17  142 1    
    37   18   19 1    
    38   18   67 1    
    39   18  143 1    
    40   19   20 am   BACKBONE|DICT|INTERRES
    41   19  144 1    
    42   20   21 2    
    43   20   22 1    
    44   22   23 1    
    45   22   24 1    
    46   22  145 1    
    47   23  146 1    
    48   23  147 1    
    49   23  148 1    
    50   24   25 am   BACKBONE|DICT|INTERRES
    51   24  149 1    
    52   25   26 2    
    53   25   27 1    
    54   27   28 1    
    55   27   29 1    
    56   27  150 1    
    57   28  151 1    
    58   28  152 1    
    59   28  153 1    
    60   29   30 am   BACKBONE|DICT|INTERRES
    61   29  154 1    
    62   30   31 2    
    63   30   32 1    
    64   32   33 1    
    65   32   34 1    
    66   32  155 1    
    67   33  156 1    
    68   33  157 1    
    69   33  158 1    
    70   34   35 am   BACKBONE|DICT|INTERRES
    71   34  159 1    
    72   35   36 2    
    73   35   37 1    
    74   37   38 1    
    75   37   39 1    
    76   37  160 1    
    77   38  161 1    
    78   38  162 1    
    79   38  163 1    
    80   39   40 am   BACKBONE|DICT|INTERRES
    81   39  164 1    
    82   40   41 2    
    83   40   42 1    
    84   42   43 1    
    85   42   44 1    
    86   42  165 1    
    87   43  166 1    
    88   43  167 1    
    89   43  168 1    
    90   44   45 am   BACKBONE|DICT|INTERRES
    91   44  169 1    
    92   45   46 2    
    93   45   47 1    
    94   47   48 1    
    95   47   49 1    
    96   47  170 1    
    97   48  171 1    
    98   48  172 1    
    99   48  173 1    
   100   49   50 am   BACKBONE|DICT|INTERRES
   101   49  174 1    
   102   50   51 2    
   103   50   52 1    
   104   52   53 1    
   105   52   54 1    
   106   52  175 1    
   107   53  176 1    
   108   53  177 1    
   109   53  178 1    
   110   54   55 am   BACKBONE|DICT|INTERRES
   111   54  179 1    
   112   55   56 2    
   113   55   57 1    
   114   57   58 1    
   115   57   59 1    
   116   57  180 1    
   117   58  181 1    
   118   58  182 1    
   119   58  183 1    
   120   59   60 am   BACKBONE|DICT|INTERRES
   121   59  184 1    
   122   60   61 2    
   123   60   62 1    
   124   62   63 1    
   125   62   64 1    
   126   62  185 1    
   127   63  186 1    
   128   63  187 1    
   129   63  188 1    
   130   64   65 am   BACKBONE|DICT|INTERRES
   131   64  189 1    
   132   65   66 2    
   133   67   68 2    
   134   67   69 am   BACKBONE|DICT|INTERRES
   135   69   70 1    
   136   69  190 1    
   137   70   71 1    
   138   70   72 1    
   139   70  191 1    
   140   71  192 1    
   141   71  193 1    
   142   71  194 1    
   143   72   73 2    
   144   72   74 am   BACKBONE|DICT|INTERRES
   145   74   75 1    
   146   74  195 1    
   147   75   76 1    
   148   75   77 1    
   149   75  196 1    
   150   76  197 1    
   151   76  198 1    
   152   76  199 1    
   153   77   78 2    
   154   77   79 am   BACKBONE|DICT|INTERRES
   155   79   80 1    
   156   79  200 1    
   157   80   81 1    
   158   80   82 1    
   159   80  201 1    
   160   81  202 1    
   161   81  203 1    
   162   81  204 1    
   163   82   83 2    
   164   82   84 am   BACKBONE|DICT|INTERRES
   165   84   85 1    
   166   84  205 1    
   167   85   86 1    
   168   85   87 1    
   169   85  206 1    
   170   86  207 1    
   171   86  208 1    
   172   86  209 1    
   173   87   88 2    
   174   87   89 am   BACKBONE|DICT|INTERRES
   175   89   90 1    
   176   89  210 1    
   177   90   91 1    
   178   90   92 1    
   179   90  211 1    
   180   91  212 1    
   181   91  213 1    
   182   91  214 1    
   183   92   93 2    
   184   92   94 am   BACKBONE|DICT|INTERRES
   185   94   95 1    
   186   94  215 1    
   187   95   96 1    
   188   95   97 1    
   189   95  216 1    
   190   96  217 1    
   191   96  218 1    
   192   96  219 1    
   193   97   98 2    
   194   97   99 am   BACKBONE|DICT|INTERRES
   195   99  100 1    
   196   99  220 1    
   197  100  101 1    
   198  100  102 1    
   199  100  221 1    
   200  101  222 1    
   201  101  223 1    
   202  101  224 1    
   203  102  103 2    
   204  102  104 am   BACKBONE|DICT|INTERRES
   205  104  105 1    
   206  104  225 1    
   207  105  106 1    
   208  105  107 1    
   209  105  226 1    
   210  106  227 1    
   211  106  228 1    
   212  106  229 1    
   213  107  108 2    
   214  107  109 am   BACKBONE|DICT|INTERRES
   215  109  110 1    
   216  109  230 1    
   217  110  111 1    
   218  110  112 1    
   219  110  231 1    
   220  111  232 1    
   221  111  233 1    
   222  111  234 1    
   223  112  113 2    
   224  112  114 am   BACKBONE|DICT|INTERRES
   225  114  115 1    
   226  114  235 1    
   227  115  116 1    
   228  115  117 1    
   229  115  236 1    
   230  116  237 1    
   231  116  238 1    
   232  116  239 1    
   233  117  118 2    
   234  117  119 am   BACKBONE|DICT|INTERRES
   235  119  120 1    
   236  119  240 1    
   237  120  121 1    
   238  120  124 1    
   239  120  241 1    
   240  121  122 am   BACKBONE|DICT|INTERRES
   241  121  123 2    
   242  122  242 1    
   243  122  243 1    
   244  124  125 1    
   245  124  244 1    
   246  124  245 1    
   247  125  126 1    
   248  126  246 1    
   249  126  247 1    
@<TRIPOS>SUBSTRUCTURE
     1 UNK         1 GROUP             0       ****    0 ROOT    
