@<TRIPOS>MOLECULE
3R540
247   249    1
SMALL
USER_CHARGES


@<TRIPOS>ATOM
      1 CA          3.8005  -13.7638  -48.1298 C.3       0 UNK        -0.1800 
      2 C           2.2850  -13.6884  -48.2395 C.2       0 UNK         0.5000 
      3 O           1.7641  -12.8092  -48.9247 O.2       0 UNK        -0.5000 
      4 N           1.5799  -14.6024  -47.5581 N.am      1 UNK        -0.5000 
      5 CA          0.1193  -14.7987  -47.5086 C.3       1 UNK         0.1400 
      6 C6         -0.5141  -15.1404  -48.8819 C.3       23 UNK        -0.0398 
      7 S7          0.0017  -16.7838  -49.4786 S.3       23 UNK        -0.2404 
      8 C8          1.3566  -16.3697  -50.6136 C.3       23 UNK        -0.0205 
      9 C9          1.9043  -17.6184  -51.2825 C.ar      23 UNK        -0.0193 
     10 C10         1.5024  -17.9523  -52.5789 C.ar      23 UNK        -0.1150 
     11 C11         2.0080  -19.0945  -53.2049 C.ar      23 UNK        -0.0193 
     12 C12         2.9236  -19.9023  -52.5262 C.ar      23 UNK        -0.1150 
     13 C13         3.3294  -19.5828  -51.2268 C.ar      23 UNK        -0.0193 
     14 C14         2.8145  -18.4396  -50.6078 C.ar      23 UNK        -0.1150 
     15 C15         4.3501  -20.4599  -50.5170 C.3       23 UNK        -0.0205 
     16 S16         3.6551  -22.0790  -50.0594 S.3       23 UNK        -0.2404 
     17 C17         2.8075  -21.7164  -48.4837 C.3       23 UNK        -0.0398 
     18 CA          2.9728  -22.8768  -47.4659 C.3       11 UNK         0.1400 
     19 N           2.7371  -22.4340  -46.0937 N.am      11 UNK        -0.5000 
     20 C           3.2898  -22.9903  -45.0072 C.2       10 UNK         0.5000 
     21 O           4.0972  -23.9192  -45.0493 O.2       10 UNK        -0.5000 
     22 CA          2.8663  -22.4222  -43.6362 C.3       10 UNK         0.1400 
     23 CB          3.8361  -21.3186  -43.1884 C.3       10 UNK        -0.1800 
     24 N           1.4980  -21.9005  -43.6183 N.am      10 UNK        -0.5000 
     25 C           0.4052  -22.6442  -43.8357 C.2       9 UNK         0.5000 
     26 O           0.4380  -23.8578  -44.0232 O.2       9 UNK        -0.5000 
     27 CA         -0.9386  -21.9040  -43.9349 C.3       9 UNK         0.1400 
     28 CB         -1.5247  -21.6445  -42.5397 C.3       9 UNK        -0.1800 
     29 N          -0.8307  -20.6433  -44.6704 N.am      9 UNK        -0.5000 
     30 C          -0.4517  -20.5289  -45.9519 C.2       8 UNK         0.5000 
     31 O          -0.2026  -21.4877  -46.6816 O.2       8 UNK        -0.5000 
     32 CA         -0.2983  -19.1044  -46.5003 C.3       8 UNK         0.1400 
     33 CB         -1.6751  -18.4962  -46.8018 C.3       8 UNK        -0.1800 
     34 N           0.4406  -18.2570  -45.5645 N.am      8 UNK        -0.5000 
     35 C           1.7563  -18.3742  -45.3280 C.2       7 UNK         0.5000 
     36 O           2.4925  -19.1459  -45.9417 O.2       7 UNK        -0.5000 
     37 CA          2.3410  -17.5116  -44.1914 C.3       7 UNK         0.1400 
     38 CB          2.8906  -16.1839  -44.7315 C.3       7 UNK        -0.1800 
     39 N           1.3672  -17.2291  -43.1366 N.am      7 UNK        -0.5000 
     40 C           0.8742  -18.1470  -42.2940 C.2       6 UNK         0.5000 
     41 O           1.2336  -19.3235  -42.2767 O.2       6 UNK        -0.5000 
     42 CA         -0.2665  -17.6773  -41.3768 C.3       6 UNK         0.1400 
     43 CB          0.2845  -16.9536  -40.1396 C.3       6 UNK        -0.1800 
     44 N          -1.1989  -16.8022  -42.0925 N.am      6 UNK        -0.5000 
     45 C          -2.0426  -17.2281  -43.0452 C.2       5 UNK         0.5000 
     46 O          -2.1022  -18.4070  -43.3936 O.2       5 UNK        -0.5000 
     47 CA         -2.9121  -16.1873  -43.7865 C.3       5 UNK         0.1400 
     48 CB         -4.3630  -16.6713  -43.9829 C.3       5 UNK        -0.1800 
     49 N          -2.8678  -14.8368  -43.2145 N.am      5 UNK        -0.5000 
     50 C          -3.2999  -14.4445  -42.0058 C.2       4 UNK         0.5000 
     51 O          -3.9023  -15.1823  -41.2247 O.2       4 UNK        -0.5000 
     52 CA         -2.9680  -12.9936  -41.5870 C.3       4 UNK         0.1400 
     53 CB         -2.8659  -12.8384  -40.0555 C.3       4 UNK        -0.1800 
     54 N          -1.7661  -12.4335  -42.2219 N.am      4 UNK        -0.5000 
     55 C          -0.5178  -12.9231  -42.2074 C.2       3 UNK         0.5000 
     56 O          -0.2200  -14.0173  -41.7250 O.2       3 UNK        -0.5000 
     57 CA          0.5615  -12.0555  -42.8918 C.3       3 UNK         0.1400 
     58 CB          1.9775  -12.6346  -42.7197 C.3       3 UNK        -0.1800 
     59 N           0.3006  -11.8874  -44.3216 N.am      3 UNK        -0.5000 
     60 C          -0.6506  -11.1209  -44.8727 C.2       2 UNK         0.5000 
     61 O          -1.3980  -10.3916  -44.2188 O.2       2 UNK        -0.5000 
     62 CA         -0.8169  -11.1992  -46.4039 C.3       2 UNK         0.1400 
     63 CB         -0.1874   -9.9693  -47.0752 C.3       2 UNK        -0.1800 
     64 N          -0.2463  -12.4074  -47.0066 N.am      2 UNK        -0.5000 
     65 C          -0.6531  -13.6651  -46.7963 C.2       1 UNK         0.5000 
     66 O          -1.5759  -13.9564  -46.0349 O.2       1 UNK        -0.5000 
     67 C           2.0794  -24.0840  -47.8248 C.2       11 UNK         0.5000 
     68 O           2.5949  -25.1238  -48.2389 O.2       11 UNK        -0.5000 
     69 N           0.7576  -23.9108  -47.6942 N.am      12 UNK        -0.5000 
     70 CA         -0.2491  -24.7743  -48.3159 C.3       12 UNK         0.1400 
     71 CB         -1.2840  -23.8681  -49.0045 C.3       12 UNK        -0.1800 
     72 C          -0.9545  -25.7396  -47.3481 C.2       12 UNK         0.5000 
     73 O          -1.7848  -26.5245  -47.8084 O.2       12 UNK        -0.5000 
     74 N          -0.6760  -25.6496  -46.0391 N.am      13 UNK        -0.5000 
     75 CA         -1.2933  -26.3839  -44.9202 C.3       13 UNK         0.1400 
     76 CB         -1.1528  -27.9112  -45.0756 C.3       13 UNK        -0.1800 
     77 C          -2.7540  -25.9695  -44.6520 C.2       13 UNK         0.5000 
     78 O          -3.0860  -25.5889  -43.5297 O.2       13 UNK        -0.5000 
     79 N          -3.5885  -26.0116  -45.6964 N.am      14 UNK        -0.5000 
     80 CA         -4.9941  -25.5991  -45.6968 C.3       14 UNK         0.1400 
     81 CB         -5.7250  -26.3939  -46.7917 C.3       14 UNK        -0.1800 
     82 C          -5.1817  -24.0819  -45.9143 C.2       14 UNK         0.5000 
     83 O          -6.3190  -23.6113  -45.9111 O.2       14 UNK        -0.5000 
     84 N          -4.0741  -23.3562  -46.1351 N.am      15 UNK        -0.5000 
     85 CA         -3.9816  -21.9219  -46.4416 C.3       15 UNK         0.1400 
     86 CB         -4.5637  -21.0521  -45.3094 C.3       15 UNK        -0.1800 
     87 C          -4.5259  -21.5395  -47.8331 C.2       15 UNK         0.5000 
     88 O          -4.7733  -20.3617  -48.0937 O.2       15 UNK        -0.5000 
     89 N          -4.6383  -22.5306  -48.7298 N.am      16 UNK        -0.5000 
     90 CA         -5.1426  -22.4052  -50.1014 C.3       16 UNK         0.1400 
     91 CB         -5.2259  -23.8085  -50.7182 C.3       16 UNK        -0.1800 
     92 C          -4.3220  -21.4569  -51.0011 C.2       16 UNK         0.5000 
     93 O          -4.8455  -20.9576  -51.9972 O.2       16 UNK        -0.5000 
     94 N          -3.0700  -21.1782  -50.6154 N.am      17 UNK        -0.5000 
     95 CA         -2.2046  -20.1733  -51.2317 C.3       17 UNK         0.1400 
     96 CB         -0.8220  -20.2346  -50.5678 C.3       17 UNK        -0.1800 
     97 C          -2.7917  -18.7462  -51.1711 C.2       17 UNK         0.5000 
     98 O          -2.6385  -17.9934  -52.1328 O.2       17 UNK        -0.5000 
     99 N          -3.5171  -18.4203  -50.0871 N.am      18 UNK        -0.5000 
    100 CA        -4.2313  -17.1476  -49.9299 C.3       18 UNK         0.1400 
    101 CB        -4.5850  -16.9242  -48.4510 C.3       18 UNK        -0.1800 
    102 C         -5.4993  -17.0617  -50.8019 C.2       18 UNK         0.5000 
    103 O         -5.9317  -15.9583  -51.1348 O.2       18 UNK        -0.5000 
    104 N         -6.0539  -18.2216  -51.1803 N.am      19 UNK        -0.5000 
    105 CA        -7.1721  -18.3600  -52.1160 C.3       19 UNK         0.1400 
    106 CB        -7.9861  -19.6095  -51.7372 C.3       19 UNK        -0.1800 
    107 C         -6.7051  -18.4194  -53.5872 C.2       19 UNK         0.5000 
    108 O         -7.5418  -18.5890  -54.4749 O.2       19 UNK        -0.5000 
    109 N         -5.3899  -18.2803  -53.8187 N.am      20 UNK        -0.5000 
    110 CA        -4.6970  -18.2963  -55.1086 C.3       20 UNK         0.1400 
    111 CB        -5.1566  -17.1281  -56.0061 C.3       20 UNK        -0.1800 
    112 C         -4.7498  -19.6650  -55.8172 C.2       20 UNK         0.5000 
    113 O         -4.7351  -19.7213  -57.0493 O.2       20 UNK        -0.5000 
    114 N         -4.7494  -20.7566  -55.0344 N.am      21 UNK        -0.5000 
    115 CA        -4.7131  -22.1396  -55.5302 C.3       21 UNK         0.1400 
    116 CB        -4.9825  -23.1040  -54.3682 C.3       21 UNK        -0.1800 
    117 C         -3.4041  -22.5188  -56.2571 C.2       21 UNK         0.5000 
    118 O         -3.3580  -23.5604  -56.9131 O.2       21 UNK        -0.5000 
    119 N         -2.3789  -21.6631  -56.1494 N.am      22 UNK        -0.5000 
    120 CA        -1.1250  -21.7139  -56.9160 C.3       22 UNK         0.1400 
    121 C         -1.3083  -21.6008  -58.4604 C.2       22 UNK         0.5000 
    122 N         -2.4032  -21.0363  -58.9602 N.am      22 UNK        -0.7600 
    123 O         -0.4389  -22.0281  -59.2148 O.2       22 UNK        -0.5000 
    124 C124       -0.1241  -20.6267  -56.4464 C.3       23 UNK        -0.0398 
    125 S125        0.2032  -20.6199  -54.6516 S.3       23 UNK        -0.2404 
    126 C126        1.5871  -19.4399  -54.6230 C.3       23 UNK        -0.0205 
    127 H127        4.1224  -14.5874  -47.4922 H         1 UNK         0.0600 
    128 H128        4.1926  -12.8366  -47.7119 H         1 UNK         0.0600 
    129 H129        4.2399  -13.9069  -49.1170 H         1 UNK         0.0600 
    130 H130        2.1012  -15.2831  -47.0267 H         1 UNK         0.3000 
    131 H131       -0.0168  -15.6693  -46.8662 H         1 UNK         0.0600 
    132 H132       -1.6026  -15.1694  -48.8039 H         1 UNK         0.0800 
    133 H133       -0.2883  -14.3786  -49.6290 H         1 UNK         0.0800 
    134 H134        2.1595  -15.8752  -50.0688 H         1 UNK         0.0800 
    135 H135        1.0020  -15.6590  -51.3616 H         1 UNK         0.0800 
    136 H136        0.7922  -17.3249  -53.0994 H         1 UNK         0.1150 
    137 H137        3.3215  -20.7839  -53.0093 H         1 UNK         0.1150 
    138 H138        3.1224  -18.1842  -49.6034 H         1 UNK         0.1150 
    139 H139        4.7579  -19.9608  -49.6367 H         1 UNK         0.0800 
    140 H140        5.1953  -20.6236  -51.1870 H         1 UNK         0.0800 
    141 H141        1.7588  -21.4865  -48.6808 H         1 UNK         0.0800 
    142 H142        3.2355  -20.8043  -48.0660 H         1 UNK         0.0800 
    143 H143        4.0108  -23.2129  -47.5243 H         1 UNK         0.0600 
    144 H144        2.0814  -21.6747  -45.9690 H         1 UNK         0.3000 
    145 H145        2.9196  -23.2373  -42.9116 H         1 UNK         0.0600 
    146 H146        4.8597  -21.6926  -43.1439 H         1 UNK         0.0600 
    147 H147        3.5820  -20.9476  -42.1952 H         1 UNK         0.0600 
    148 H148        3.8258  -20.4729  -43.8759 H         1 UNK         0.0600 
    149 H149        1.3839  -20.9162  -43.3941 H         1 UNK         0.3000 
    150 H150       -1.6314  -22.5490  -44.4780 H         1 UNK         0.0600 
    151 H151       -0.8704  -21.0145  -41.9372 H         1 UNK         0.0600 
    152 H152       -2.4943  -21.1509  -42.6019 H         1 UNK         0.0600 
    153 H153       -1.6699  -22.5806  -41.9991 H         1 UNK         0.0600 
    154 H154       -1.0880  -19.8041  -44.1573 H         1 UNK         0.3000 
    155 H155        0.2650  -19.1558  -47.4348 H         1 UNK         0.0600 
    156 H156       -1.5891  -17.4557  -47.1067 H         1 UNK         0.0600 
    157 H157       -2.3460  -18.5343  -45.9456 H         1 UNK         0.0600 
    158 H158       -2.1631  -19.0352  -47.6133 H         1 UNK         0.0600 
    159 H159       -0.0992  -17.6387  -44.9806 H         1 UNK         0.3000 
    160 H160        3.1709  -18.0694  -43.7528 H         1 UNK         0.0600 
    161 H161        2.0886  -15.5179  -45.0468 H         1 UNK         0.0600 
    162 H162        3.5539  -16.3470  -45.5820 H         1 UNK         0.0600 
    163 H163        3.4694  -15.6643  -43.9676 H         1 UNK         0.0600 
    164 H164        1.0245  -16.2820  -43.0635 H         1 UNK         0.3000 
    165 H165       -0.8136  -18.5598  -41.0383 H         1 UNK         0.0600 
    166 H166        0.9253  -17.6158  -39.5561 H         1 UNK         0.0600 
    167 H167        0.8781  -16.0798  -40.4101 H         1 UNK         0.0600 
    168 H168       -0.5220  -16.6207  -39.4861 H         1 UNK         0.0600 
    169 H169       -1.1461  -15.8110  -41.8802 H         1 UNK         0.3000 
    170 H170       -2.4711  -16.1005  -44.7795 H         1 UNK         0.0600 
    171 H171       -4.9536  -15.9349  -44.5278 H         1 UNK         0.0600 
    172 H172       -4.8602  -16.8670  -43.0328 H         1 UNK         0.0600 
    173 H173       -4.3921  -17.5965  -44.5595 H         1 UNK         0.0600 
    174 H174       -2.3875  -14.1529  -43.7859 H         1 UNK         0.3000 
    175 H175       -3.8056  -12.3837  -41.9278 H         1 UNK         0.0600 
    176 H176       -2.0782  -13.4677  -39.6394 H         1 UNK         0.0600 
    177 H177       -3.8005  -13.1160  -39.5667 H         1 UNK         0.0600 
    178 H178       -2.6526  -11.8064  -39.7770 H         1 UNK         0.0600 
    179 H179       -1.9010  -11.5597  -42.7229 H         1 UNK         0.3000 
    180 H180        0.5410  -11.0737  -42.4142 H         1 UNK         0.0600 
    181 H181        2.0737  -13.6132  -43.1906 H         1 UNK         0.0600 
    182 H182        2.2262  -12.7523  -41.6642 H         1 UNK         0.0600 
    183 H183        2.7287  -11.9768  -43.1571 H         1 UNK         0.0600 
    184 H184        0.8530  -12.4566  -44.9445 H         1 UNK         0.3000 
    185 H185       -1.8883  -11.1959  -46.6139 H         1 UNK         0.0600 
    186 H186       -0.6073   -9.0454  -46.6752 H         1 UNK         0.0600 
    187 H187        0.8917   -9.9356  -46.9191 H         1 UNK         0.0600 
    188 H188       -0.3707   -9.9697  -48.1498 H         1 UNK         0.0600 
    189 H189        0.5125  -12.2755  -47.6714 H         1 UNK         0.3000 
    190 H190        0.4165  -23.0313  -47.3079 H         1 UNK         0.3000 
    191 H191        0.2124  -25.3924  -49.0889 H         1 UNK         0.0600 
    192 H192       -0.8135  -23.2680  -49.7821 H         1 UNK         0.0600 
    193 H193       -2.0710  -24.4510  -49.4845 H         1 UNK         0.0600 
    194 H194       -1.7561  -23.1896  -48.2949 H         1 UNK         0.0600 
    195 H195       -0.0021  -24.9504  -45.7457 H         1 UNK         0.3000 
    196 H196       -0.7256  -26.1131  -44.0300 H         1 UNK         0.0600 
    197 H197       -1.4972  -28.4227  -44.1761 H         1 UNK         0.0600 
    198 H198       -0.1123  -28.1957  -45.2323 H         1 UNK         0.0600 
    199 H199       -1.7364  -28.3010  -45.9095 H         1 UNK         0.0600 
    200 H200       -3.2011  -26.3298  -46.5818 H         1 UNK         0.3000 
    201 H201       -5.4414  -25.8494  -44.7327 H         1 UNK         0.0600 
    202 H202       -6.7896  -26.1567  -46.8080 H         1 UNK         0.0600 
    203 H203       -5.6370  -27.4674  -46.6234 H         1 UNK         0.0600 
    204 H204       -5.3241  -26.1764  -47.7826 H         1 UNK         0.0600 
    205 H205       -3.1985  -23.8568  -46.1058 H         1 UNK         0.3000 
    206 H206       -2.9171  -21.7097  -46.4926 H         1 UNK         0.0600 
    207 H207       -4.1631  -21.3455  -44.3399 H         1 UNK         0.0600 
    208 H208       -4.3138  -20.0010  -45.4561 H         1 UNK         0.0600 
    209 H209       -5.6503  -21.1226  -45.2597 H         1 UNK         0.0600 
    210 H210       -4.4127  -23.4650  -48.4249 H         1 UNK         0.3000 
    211 H211       -6.1532  -21.9966  -50.0407 H         1 UNK         0.0600 
    212 H212       -5.8038  -24.4849  -50.0880 H         1 UNK         0.0600 
    213 H213       -5.7212  -23.7792  -51.6878 H         1 UNK         0.0600 
    214 H214       -4.2375  -24.2459  -50.8639 H         1 UNK         0.0600 
    215 H215       -2.7166  -21.6350  -49.7900 H         1 UNK         0.3000 
    216 H216       -2.0876  -20.4330  -52.2860 H         1 UNK         0.0600 
    217 H217       -0.8794  -20.0932  -49.4888 H         1 UNK         0.0600 
    218 H218       -0.1700  -19.4598  -50.9648 H         1 UNK         0.0600 
    219 H219       -0.3301  -21.1872  -50.7609 H         1 UNK         0.0600 
    220 H220       -3.6727  -19.1137  -49.3641 H         1 UNK         0.3000 
    221 H221       -3.5657  -16.3397  -50.2416 H         1 UNK         0.0600 
    222 H222       -5.1991  -17.7323  -48.0534 H         1 UNK         0.0600 
    223 H223       -3.6911  -16.8438  -47.8365 H         1 UNK         0.0600 
    224 H224       -5.1430  -15.9963  -48.3189 H         1 UNK         0.0600 
    225 H225       -5.6101  -19.0830  -50.8935 H         1 UNK         0.3000 
    226 H226       -7.8286  -17.4928  -52.0211 H         1 UNK         0.0600 
    227 H227       -8.2972  -19.5774  -50.6929 H         1 UNK         0.0600 
    228 H228       -8.8911  -19.6825  -52.3414 H         1 UNK         0.0600 
    229 H229       -7.4197  -20.5276  -51.8912 H         1 UNK         0.0600 
    230 H230       -4.7871  -18.1656  -53.0148 H         1 UNK         0.3000 
    231 H231       -3.6443  -18.1275  -54.8772 H         1 UNK         0.0600 
    232 H232       -6.1816  -17.2598  -56.3532 H         1 UNK         0.0600 
    233 H233       -4.5232  -17.0421  -56.8898 H         1 UNK         0.0600 
    234 H234       -5.1004  -16.1775  -55.4757 H         1 UNK         0.0600 
    235 H235       -4.7758  -20.6424  -54.0257 H         1 UNK         0.3000 
    236 H236       -5.5233  -22.2506  -56.2536 H         1 UNK         0.0600 
    237 H237       -4.1832  -23.0692  -53.6276 H         1 UNK         0.0600 
    238 H238       -5.9221  -22.8628  -53.8710 H         1 UNK         0.0600 
    239 H239       -5.0568  -24.1333  -54.7209 H         1 UNK         0.0600 
    240 H240       -2.5001  -20.8546  -55.5597 H         1 UNK         0.3000 
    241 H241       -0.6764  -22.6902  -56.7243 H         1 UNK         0.0600 
    242 H242       -3.1258  -20.6737  -58.3519 H         1 UNK         0.3800 
    243 H243       -2.5130  -20.9686  -59.9598 H         1 UNK         0.3800 
    244 H244        0.8297  -20.7548  -56.9622 H         1 UNK         0.0800 
    245 H245       -0.4885  -19.6349  -56.7212 H         1 UNK         0.0800 
    246 H246        2.4339  -19.8613  -55.1672 H         1 UNK         0.0800 
    247 H247        1.3006  -18.5319  -55.1562 H         1 UNK         0.0800 
@<TRIPOS>BOND
     1    1    2 1    
     2    1  127 1    
     3    1  128 1    
     4    1  129 1    
     5    2    3 2    
     6    2    4 am   BACKBONE|DICT|INTERRES
     7    4    5 1    
     8    4  130 1    
     9    5    6 1    
    10    5   65 1    
    11    5  131 1    
    12    6    7 1    
    13    6  132 1    
    14    6  133 1    
    15    7    8 1    
    16    8    9 1    
    17    8  134 1    
    18    8  135 1    
    19    9   10 ar   
    20    9   14 ar   
    21   10   11 ar   
    22   10  136 1    
    23   11   12 ar   
    24   11  126 1    
    25   12   13 ar   
    26   12  137 1    
    27   13   14 ar   
    28   13   15 1    
    29   14  138 1    
    30   15   16 1    
    31   15  139 1    
    32   15  140 1    
    33   16   17 1    
    34   17   18 1    
    35   17  141 1    
    36   17  142 1    
    37   18   19 1    
    38   18   67 1    
    39   18  143 1    
    40   19   20 am   BACKBONE|DICT|INTERRES
    41   19  144 1    
    42   20   21 2    
    43   20   22 1    
    44   22   23 1    
    45   22   24 1    
    46   22  145 1    
    47   23  146 1    
    48   23  147 1    
    49   23  148 1    
    50   24   25 am   BACKBONE|DICT|INTERRES
    51   24  149 1    
    52   25   26 2    
    53   25   27 1    
    54   27   28 1    
    55   27   29 1    
    56   27  150 1    
    57   28  151 1    
    58   28  152 1    
    59   28  153 1    
    60   29   30 am   BACKBONE|DICT|INTERRES
    61   29  154 1    
    62   30   31 2    
    63   30   32 1    
    64   32   33 1    
    65   32   34 1    
    66   32  155 1    
    67   33  156 1    
    68   33  157 1    
    69   33  158 1    
    70   34   35 am   BACKBONE|DICT|INTERRES
    71   34  159 1    
    72   35   36 2    
    73   35   37 1    
    74   37   38 1    
    75   37   39 1    
    76   37  160 1    
    77   38  161 1    
    78   38  162 1    
    79   38  163 1    
    80   39   40 am   BACKBONE|DICT|INTERRES
    81   39  164 1    
    82   40   41 2    
    83   40   42 1    
    84   42   43 1    
    85   42   44 1    
    86   42  165 1    
    87   43  166 1    
    88   43  167 1    
    89   43  168 1    
    90   44   45 am   BACKBONE|DICT|INTERRES
    91   44  169 1    
    92   45   46 2    
    93   45   47 1    
    94   47   48 1    
    95   47   49 1    
    96   47  170 1    
    97   48  171 1    
    98   48  172 1    
    99   48  173 1    
   100   49   50 am   BACKBONE|DICT|INTERRES
   101   49  174 1    
   102   50   51 2    
   103   50   52 1    
   104   52   53 1    
   105   52   54 1    
   106   52  175 1    
   107   53  176 1    
   108   53  177 1    
   109   53  178 1    
   110   54   55 am   BACKBONE|DICT|INTERRES
   111   54  179 1    
   112   55   56 2    
   113   55   57 1    
   114   57   58 1    
   115   57   59 1    
   116   57  180 1    
   117   58  181 1    
   118   58  182 1    
   119   58  183 1    
   120   59   60 am   BACKBONE|DICT|INTERRES
   121   59  184 1    
   122   60   61 2    
   123   60   62 1    
   124   62   63 1    
   125   62   64 1    
   126   62  185 1    
   127   63  186 1    
   128   63  187 1    
   129   63  188 1    
   130   64   65 am   BACKBONE|DICT|INTERRES
   131   64  189 1    
   132   65   66 2    
   133   67   68 2    
   134   67   69 am   BACKBONE|DICT|INTERRES
   135   69   70 1    
   136   69  190 1    
   137   70   71 1    
   138   70   72 1    
   139   70  191 1    
   140   71  192 1    
   141   71  193 1    
   142   71  194 1    
   143   72   73 2    
   144   72   74 am   BACKBONE|DICT|INTERRES
   145   74   75 1    
   146   74  195 1    
   147   75   76 1    
   148   75   77 1    
   149   75  196 1    
   150   76  197 1    
   151   76  198 1    
   152   76  199 1    
   153   77   78 2    
   154   77   79 am   BACKBONE|DICT|INTERRES
   155   79   80 1    
   156   79  200 1    
   157   80   81 1    
   158   80   82 1    
   159   80  201 1    
   160   81  202 1    
   161   81  203 1    
   162   81  204 1    
   163   82   83 2    
   164   82   84 am   BACKBONE|DICT|INTERRES
   165   84   85 1    
   166   84  205 1    
   167   85   86 1    
   168   85   87 1    
   169   85  206 1    
   170   86  207 1    
   171   86  208 1    
   172   86  209 1    
   173   87   88 2    
   174   87   89 am   BACKBONE|DICT|INTERRES
   175   89   90 1    
   176   89  210 1    
   177   90   91 1    
   178   90   92 1    
   179   90  211 1    
   180   91  212 1    
   181   91  213 1    
   182   91  214 1    
   183   92   93 2    
   184   92   94 am   BACKBONE|DICT|INTERRES
   185   94   95 1    
   186   94  215 1    
   187   95   96 1    
   188   95   97 1    
   189   95  216 1    
   190   96  217 1    
   191   96  218 1    
   192   96  219 1    
   193   97   98 2    
   194   97   99 am   BACKBONE|DICT|INTERRES
   195   99  100 1    
   196   99  220 1    
   197  100  101 1    
   198  100  102 1    
   199  100  221 1    
   200  101  222 1    
   201  101  223 1    
   202  101  224 1    
   203  102  103 2    
   204  102  104 am   BACKBONE|DICT|INTERRES
   205  104  105 1    
   206  104  225 1    
   207  105  106 1    
   208  105  107 1    
   209  105  226 1    
   210  106  227 1    
   211  106  228 1    
   212  106  229 1    
   213  107  108 2    
   214  107  109 am   BACKBONE|DICT|INTERRES
   215  109  110 1    
   216  109  230 1    
   217  110  111 1    
   218  110  112 1    
   219  110  231 1    
   220  111  232 1    
   221  111  233 1    
   222  111  234 1    
   223  112  113 2    
   224  112  114 am   BACKBONE|DICT|INTERRES
   225  114  115 1    
   226  114  235 1    
   227  115  116 1    
   228  115  117 1    
   229  115  236 1    
   230  116  237 1    
   231  116  238 1    
   232  116  239 1    
   233  117  118 2    
   234  117  119 am   BACKBONE|DICT|INTERRES
   235  119  120 1    
   236  119  240 1    
   237  120  121 1    
   238  120  124 1    
   239  120  241 1    
   240  121  122 am   BACKBONE|DICT|INTERRES
   241  121  123 2    
   242  122  242 1    
   243  122  243 1    
   244  124  125 1    
   245  124  244 1    
   246  124  245 1    
   247  125  126 1    
   248  126  246 1    
   249  126  247 1    
@<TRIPOS>SUBSTRUCTURE
     1 UNK         1 GROUP             0       ****    0 ROOT    
