@<TRIPOS>MOLECULE
3R540
247   249    1
SMALL
USER_CHARGES


@<TRIPOS>ATOM
      1 CA         -4.8584  -10.9138  -51.1458 C.3       0 UNK        -0.1800 
      2 C          -3.3745  -10.7921  -50.8278 C.2       0 UNK         0.5000 
      3 O          -2.8392   -9.6829  -50.8148 O.2       0 UNK        -0.5000 
      4 N          -2.7096  -11.9267  -50.5824 N.am      1 UNK        -0.5000 
      5 CA         -1.3015  -12.0104  -50.1834 C.3       1 UNK         0.1400 
      6 C6         -0.6862  -13.3920  -50.5230 C.3       23 UNK        -0.0398 
      7 S7         -1.6048  -14.8321  -49.8699 S.3       23 UNK        -0.2404 
      8 C8         -1.6275  -15.9380  -51.3173 C.3       23 UNK        -0.0205 
      9 C9         -0.2554  -16.5332  -51.6042 C.ar      23 UNK        -0.0193 
     10 C10         0.6177  -15.9067  -52.4973 C.ar      23 UNK        -0.1150 
     11 C11         1.8747  -16.4528  -52.7672 C.ar      23 UNK        -0.0193 
     12 C12         2.2409  -17.6578  -52.1609 C.ar      23 UNK        -0.1150 
     13 C13         1.3763  -18.3095  -51.2737 C.ar      23 UNK        -0.0193 
     14 C14         0.1352  -17.7236  -50.9859 C.ar      23 UNK        -0.1150 
     15 C15         1.8247  -19.6431  -50.6708 C.3       23 UNK        -0.0205 
     16 S16         0.4845  -20.7087  -50.0305 S.3       23 UNK        -0.2404 
     17 C17         0.3601  -20.1828  -48.2877 C.3       23 UNK        -0.0398 
     18 CA          0.1663  -21.3907  -47.3346 C.3       11 UNK         0.1400 
     19 N           0.8282  -21.1954  -46.0438 N.am      11 UNK        -0.5000 
     20 C           1.7784  -22.0001  -45.5544 C.2       10 UNK         0.5000 
     21 O           2.3303  -22.8906  -46.2024 O.2       10 UNK        -0.5000 
     22 CA          2.1632  -21.8075  -44.0756 C.3       10 UNK         0.1400 
     23 CB          3.2822  -20.7647  -43.9497 C.3       10 UNK        -0.1800 
     24 N           1.0616  -21.4518  -43.1721 N.am      10 UNK        -0.5000 
     25 C          -0.1045  -22.1087  -43.0446 C.2       9 UNK         0.5000 
     26 O          -0.4631  -23.0181  -43.7935 O.2       9 UNK        -0.5000 
     27 CA         -1.0292  -21.6772  -41.8848 C.3       9 UNK         0.1400 
     28 CB         -2.0568  -22.7571  -41.4916 C.3       9 UNK        -0.1800 
     29 N          -0.3059  -21.2017  -40.7046 N.am      9 UNK        -0.5000 
     30 C           0.6205  -21.8497  -39.9802 C.2       8 UNK         0.5000 
     31 O           0.9155  -23.0336  -40.1503 O.2       8 UNK        -0.5000 
     32 CA          1.3541  -21.0238  -38.8946 C.3       8 UNK         0.1400 
     33 CB          2.8255  -21.4572  -38.7267 C.3       8 UNK        -0.1800 
     34 N           1.2673  -19.5676  -39.0914 N.am      8 UNK        -0.5000 
     35 C           1.6834  -18.8722  -40.1605 C.2       7 UNK         0.5000 
     36 O           2.2536  -19.3723  -41.1313 O.2       7 UNK        -0.5000 
     37 CA          1.3083  -17.3798  -40.1893 C.3       7 UNK         0.1400 
     38 CB          2.5588  -16.4994  -40.3379 C.3       7 UNK        -0.1800 
     39 N           0.3833  -17.0862  -41.2850 N.am      7 UNK        -0.5000 
     40 C          -0.8085  -17.6645  -41.4911 C.2       6 UNK         0.5000 
     41 O          -1.3074  -18.4909  -40.7266 O.2       6 UNK        -0.5000 
     42 CA         -1.5725  -17.2714  -42.7656 C.3       6 UNK         0.1400 
     43 CB         -2.5449  -16.1182  -42.4758 C.3       6 UNK        -0.1800 
     44 N          -0.6747  -16.8762  -43.8493 N.am      6 UNK        -0.5000 
     45 C          -0.1873  -17.6998  -44.7863 C.2       5 UNK         0.5000 
     46 O          -0.4421  -18.9061  -44.8454 O.2       5 UNK        -0.5000 
     47 CA          0.7276  -17.0649  -45.8530 C.3       5 UNK         0.1400 
     48 CB         -0.1059  -16.6046  -47.0583 C.3       5 UNK        -0.1800 
     49 N           1.4929  -15.9233  -45.3475 N.am      5 UNK        -0.5000 
     50 C           2.5379  -16.0225  -44.5118 C.2       4 UNK         0.5000 
     51 O           3.0219  -17.0954  -44.1566 O.2       4 UNK        -0.5000 
     52 CA          3.1330  -14.7113  -43.9526 C.3       4 UNK         0.1400 
     53 CB          4.3562  -14.2841  -44.7776 C.3       4 UNK        -0.1800 
     54 N           2.1856  -13.5954  -43.9013 N.am      4 UNK        -0.5000 
     55 C           1.0172  -13.5911  -43.2451 C.2       3 UNK         0.5000 
     56 O           0.6381  -14.5211  -42.5356 O.2       3 UNK        -0.5000 
     57 CA          0.0832  -12.3833  -43.4569 C.3       3 UNK         0.1400 
     58 CB          0.1261  -11.4573  -42.2324 C.3       3 UNK        -0.1800 
     59 N           0.3497  -11.5917  -44.6640 N.am      3 UNK        -0.5000 
     60 C           0.3513  -12.0454  -45.9256 C.2       2 UNK         0.5000 
     61 O           0.2092  -13.2329  -46.2300 O.2       2 UNK        -0.5000 
     62 CA          0.6307  -10.9859  -47.0095 C.3       2 UNK         0.1400 
     63 CB          2.1366  -10.6816  -47.0757 C.3       2 UNK        -0.1800 
     64 N           0.1809  -11.3808  -48.3444 N.am      2 UNK        -0.5000 
     65 C          -1.0890  -11.6102  -48.7051 C.2       1 UNK         0.5000 
     66 O          -2.0506  -11.4976  -47.9383 O.2       1 UNK        -0.5000 
     67 C          -1.3255  -21.7030  -47.1123 C.2       11 UNK         0.5000 
     68 O          -1.8785  -22.5387  -47.8259 O.2       11 UNK        -0.5000 
     69 N          -1.9526  -21.0501  -46.1188 N.am      12 UNK        -0.5000 
     70 CA         -3.3884  -21.1222  -45.8289 C.3       12 UNK         0.1400 
     71 CB         -3.7263  -20.1667  -44.6772 C.3       12 UNK        -0.1800 
     72 C          -3.9487  -22.5327  -45.5525 C.2       12 UNK         0.5000 
     73 O          -5.1379  -22.7529  -45.7836 O.2       12 UNK        -0.5000 
     74 N          -3.1009  -23.4739  -45.1119 N.am      13 UNK        -0.5000 
     75 CA         -3.4555  -24.8857  -44.9385 C.3       13 UNK         0.1400 
     76 CB         -2.2915  -25.6285  -44.2660 C.3       13 UNK        -0.1800 
     77 C          -3.8476  -25.5940  -46.2519 C.2       13 UNK         0.5000 
     78 O          -4.6259  -26.5482  -46.2129 O.2       13 UNK        -0.5000 
     79 N          -3.3371  -25.1111  -47.3936 N.am      14 UNK        -0.5000 
     80 CA         -3.6162  -25.6337  -48.7308 C.3       14 UNK         0.1400 
     81 CB         -2.4165  -25.3196  -49.6377 C.3       14 UNK        -0.1800 
     82 C          -4.9426  -25.0757  -49.2862 C.2       14 UNK         0.5000 
     83 O          -4.9482  -24.4181  -50.3289 O.2       14 UNK        -0.5000 
     84 N          -6.0385  -25.3377  -48.5589 N.am      15 UNK        -0.5000 
     85 CA         -7.4244  -24.9602  -48.8590 C.3       15 UNK         0.1400 
     86 CB         -7.9277  -25.7217  -50.1042 C.3       15 UNK        -0.1800 
     87 C          -7.6063  -23.4336  -48.9785 C.2       15 UNK         0.5000 
     88 O          -8.0377  -22.9417  -50.0210 O.2       15 UNK        -0.5000 
     89 N          -7.2175  -22.7022  -47.9223 N.am      16 UNK        -0.5000 
     90 CA         -7.1719  -21.2328  -47.8521 C.3       16 UNK         0.1400 
     91 CB         -8.5848  -20.6196  -47.9518 C.3       16 UNK        -0.1800 
     92 C          -6.1747  -20.6353  -48.8687 C.2       16 UNK         0.5000 
     93 O          -6.4078  -19.5560  -49.4131 O.2       16 UNK        -0.5000 
     94 N          -5.0924  -21.3882  -49.1123 N.am      17 UNK        -0.5000 
     95 CA         -4.0183  -21.1733  -50.0840 C.3       17 UNK         0.1400 
     96 CB         -3.3075  -19.8215  -49.8668 C.3       17 UNK        -0.1800 
     97 C          -4.4331  -21.3769  -51.5530 C.2       17 UNK         0.5000 
     98 O          -3.5761  -21.2485  -52.4244 O.2       17 UNK        -0.5000 
     99 N          -5.6917  -21.7438  -51.8362 N.am      18 UNK        -0.5000 
    100 CA        -6.2094  -21.9347  -53.1957 C.3       18 UNK         0.1400 
    101 CB        -7.7152  -22.2279  -53.1356 C.3       18 UNK        -0.1800 
    102 C         -5.4843  -23.0294  -54.0046 C.2       18 UNK         0.5000 
    103 O         -5.4743  -22.9580  -55.2343 O.2       18 UNK        -0.5000 
    104 N         -4.8819  -24.0036  -53.3105 N.am      19 UNK        -0.5000 
    105 CA        -4.1235  -25.0990  -53.9090 C.3       19 UNK         0.1400 
    106 CB        -4.4775  -26.3976  -53.1634 C.3       19 UNK        -0.1800 
    107 C         -2.5983  -24.8566  -53.9253 C.2       19 UNK         0.5000 
    108 O         -1.8791  -25.7455  -54.3853 O.2       19 UNK        -0.5000 
    109 N         -2.1108  -23.7051  -53.4313 N.am      20 UNK        -0.5000 
    110 CA        -0.6712  -23.4353  -53.2934 C.3       20 UNK         0.1400 
    111 CB        -0.2245  -23.7874  -51.8657 C.3       20 UNK        -0.1800 
    112 C         -0.2275  -22.0070  -53.6611 C.2       20 UNK         0.5000 
    113 O          0.9715  -21.8073  -53.8665 O.2       20 UNK        -0.5000 
    114 N         -1.1536  -21.0400  -53.7255 N.am      21 UNK        -0.5000 
    115 CA        -0.8705  -19.6294  -53.9988 C.3       21 UNK         0.1400 
    116 CB        -2.1589  -18.8023  -53.8642 C.3       21 UNK        -0.1800 
    117 C         -0.2076  -19.3765  -55.3639 C.2       21 UNK         0.5000 
    118 O         -0.4767  -20.0925  -56.3318 O.2       21 UNK        -0.5000 
    119 N          0.6363  -18.3408  -55.4063 N.am      22 UNK        -0.5000 
    120 CA         1.4276  -17.9394  -56.5778 C.3       22 UNK         0.1400 
    121 C          0.6299  -17.2765  -57.7424 C.2       22 UNK         0.5000 
    122 N         -0.6438  -16.9414  -57.5758 N.am      22 UNK        -0.7600 
    123 O          1.1764  -17.0750  -58.8237 O.2       22 UNK        -0.5000 
    124 C124        2.6595  -17.0998  -56.1527 C.3       23 UNK        -0.0398 
    125 S125        2.2397  -15.4994  -55.3717 S.3       23 UNK        -0.2404 
    126 C126        2.8525  -15.7089  -53.6682 C.3       23 UNK        -0.0205 
    127 H127       -5.0663  -10.5003  -52.1327 H         1 UNK         0.0600 
    128 H128       -5.1915  -11.9520  -51.1351 H         1 UNK         0.0600 
    129 H129       -5.4455  -10.3610  -50.4124 H         1 UNK         0.0600 
    130 H130       -3.2086  -12.8048  -50.5680 H         1 UNK         0.3000 
    131 H131       -0.7550  -11.2721  -50.7748 H         1 UNK         0.0600 
    132 H132       -0.6412  -13.4694  -51.6084 H         1 UNK         0.0800 
    133 H133        0.3494  -13.4628  -50.1868 H         1 UNK         0.0800 
    134 H134       -2.0023  -15.4011  -52.1900 H         1 UNK         0.0800 
    135 H135       -2.3415  -16.7416  -51.1300 H         1 UNK         0.0800 
    136 H136        0.3286  -14.9843  -52.9797 H         1 UNK         0.1150 
    137 H137        3.2094  -18.0889  -52.3734 H         1 UNK         0.1150 
    138 H138       -0.5474  -18.1941  -50.2953 H         1 UNK         0.1150 
    139 H139        2.3340  -20.2162  -51.4474 H         1 UNK         0.0800 
    140 H140        2.5691  -19.4591  -49.8958 H         1 UNK         0.0800 
    141 H141        1.2712  -19.6452  -48.0241 H         1 UNK         0.0800 
    142 H142       -0.4483  -19.4584  -48.1960 H         1 UNK         0.0800 
    143 H143        0.5845  -22.2771  -47.8165 H         1 UNK         0.0600 
    144 H144        0.4420  -20.4789  -45.4366 H         1 UNK         0.3000 
    145 H145        2.5559  -22.7637  -43.7247 H         1 UNK         0.0600 
    146 H146        3.6955  -20.7490  -42.9414 H         1 UNK         0.0600 
    147 H147        4.1055  -20.9819  -44.6315 H         1 UNK         0.0600 
    148 H148        2.9188  -19.7630  -44.1795 H         1 UNK         0.0600 
    149 H149        1.2708  -20.7175  -42.5047 H         1 UNK         0.3000 
    150 H150       -1.5814  -20.8138  -42.2528 H         1 UNK         0.0600 
    151 H151       -2.7213  -22.9879  -42.3240 H         1 UNK         0.0600 
    152 H152       -2.6836  -22.4222  -40.6653 H         1 UNK         0.0600 
    153 H153       -1.5707  -23.6853  -41.1899 H         1 UNK         0.0600 
    154 H154       -0.4882  -20.2293  -40.4721 H         1 UNK         0.3000 
    155 H155        0.8380  -21.2359  -37.9574 H         1 UNK         0.0600 
    156 H156        3.3247  -20.8689  -37.9569 H         1 UNK         0.0600 
    157 H157        3.3889  -21.3445  -39.6536 H         1 UNK         0.0600 
    158 H158        2.8953  -22.5037  -38.4281 H         1 UNK         0.0600 
    159 H159        0.7677  -19.0690  -38.3677 H         1 UNK         0.3000 
    160 H160        0.8112  -17.1140  -39.2544 H         1 UNK         0.0600 
    161 H161        3.0919  -16.7153  -41.2645 H         1 UNK         0.0600 
    162 H162        3.2530  -16.6660  -39.5135 H         1 UNK         0.0600 
    163 H163        2.3001  -15.4403  -40.3384 H         1 UNK         0.0600 
    164 H164        0.6713  -16.3552  -41.9266 H         1 UNK         0.3000 
    165 H165       -2.1600  -18.1370  -43.0759 H         1 UNK         0.0600 
    166 H166       -2.0210  -15.2188  -42.1501 H         1 UNK         0.0600 
    167 H167       -3.1287  -15.8645  -43.3607 H         1 UNK         0.0600 
    168 H168       -3.2495  -16.3907  -41.6889 H         1 UNK         0.0600 
    169 H169       -0.3624  -15.9142  -43.8407 H         1 UNK         0.3000 
    170 H170        1.4247  -17.8351  -46.1893 H         1 UNK         0.0600 
    171 H171       -0.7729  -17.3893  -47.4122 H         1 UNK         0.0600 
    172 H172       -0.7323  -15.7474  -46.8089 H         1 UNK         0.0600 
    173 H173        0.5332  -16.3175  -47.8938 H         1 UNK         0.0600 
    174 H174        1.1573  -15.0015  -45.6090 H         1 UNK         0.3000 
    175 H175        3.4608  -14.9107  -42.9308 H         1 UNK         0.0600 
    176 H176        4.0819  -14.0385  -45.8044 H         1 UNK         0.0600 
    177 H177        4.8425  -13.4116  -44.3409 H         1 UNK         0.0600 
    178 H178        5.0990  -15.0821  -44.8176 H         1 UNK         0.0600 
    179 H179        2.4075  -12.7915  -44.4689 H         1 UNK         0.3000 
    180 H180       -0.9296  -12.7806  -43.5483 H         1 UNK         0.0600 
    181 H181       -0.0979  -12.0072  -41.3171 H         1 UNK         0.0600 
    182 H182        1.1087  -11.0004  -42.1085 H         1 UNK         0.0600 
    183 H183       -0.6098  -10.6572  -42.3154 H         1 UNK         0.0600 
    184 H184        0.5054  -10.6055  -44.5113 H         1 UNK         0.3000 
    185 H185        0.0988  -10.0718  -46.7377 H         1 UNK         0.0600 
    186 H186        2.5137  -10.3330  -46.1134 H         1 UNK         0.0600 
    187 H187        2.7132  -11.5654  -47.3527 H         1 UNK         0.0600 
    188 H188        2.3500   -9.8996  -47.8048 H         1 UNK         0.0600 
    189 H189        0.9107  -11.5093  -49.0293 H         1 UNK         0.3000 
    190 H190       -1.4318  -20.3623  -45.5840 H         1 UNK         0.3000 
    191 H191       -3.9011  -20.7518  -46.7166 H         1 UNK         0.0600 
    192 H192       -4.7997  -20.1519  -44.4836 H         1 UNK         0.0600 
    193 H193       -3.4269  -19.1453  -44.9126 H         1 UNK         0.0600 
    194 H194       -3.2328  -20.4615  -43.7532 H         1 UNK         0.0600 
    195 H195       -2.1369  -23.2225  -44.9156 H         1 UNK         0.3000 
    196 H196       -4.3195  -24.9333  -44.2726 H         1 UNK         0.0600 
    197 H197       -2.5220  -26.6868  -44.1369 H         1 UNK         0.0600 
    198 H198       -2.0815  -25.2228  -43.2769 H         1 UNK         0.0600 
    199 H199       -1.3774  -25.5597  -44.8573 H         1 UNK         0.0600 
    200 H200       -2.7507  -24.2825  -47.3569 H         1 UNK         0.3000 
    201 H201       -3.7141  -26.7199  -48.6789 H         1 UNK         0.0600 
    202 H202       -1.4866  -25.6968  -49.2122 H         1 UNK         0.0600 
    203 H203       -2.3050  -24.2468  -49.7868 H         1 UNK         0.0600 
    204 H204       -2.5316  -25.7768  -50.6197 H         1 UNK         0.0600 
    205 H205       -5.8989  -25.8599  -47.7002 H         1 UNK         0.3000 
    206 H206       -8.0286  -25.2798  -48.0088 H         1 UNK         0.0600 
    207 H207       -7.8241  -26.7990  -49.9756 H         1 UNK         0.0600 
    208 H208       -8.9831  -25.5163  -50.2863 H         1 UNK         0.0600 
    209 H209       -7.3807  -25.4384  -51.0045 H         1 UNK         0.0600 
    210 H210       -6.8167  -23.1757  -47.1203 H         1 UNK         0.3000 
    211 H211       -6.7829  -20.9814  -46.8649 H         1 UNK         0.0600 
    212 H212       -9.0161  -20.7436  -48.9454 H         1 UNK         0.0600 
    213 H213       -8.5598  -19.5499  -47.7412 H         1 UNK         0.0600 
    214 H214       -9.2639  -21.0752  -47.2313 H         1 UNK         0.0600 
    215 H215       -5.0483  -22.2771  -48.6349 H         1 UNK         0.3000 
    216 H216       -3.2884  -21.9582  -49.8899 H         1 UNK         0.0600 
    217 H217       -3.9420  -18.9773  -50.1364 H         1 UNK         0.0600 
    218 H218       -2.4091  -19.7567  -50.4807 H         1 UNK         0.0600 
    219 H219       -2.9994  -19.6949  -48.8297 H         1 UNK         0.0600 
    220 H220       -6.3392  -21.9146  -51.0769 H         1 UNK         0.3000 
    221 H221       -6.0691  -20.9920  -53.7284 H         1 UNK         0.0600 
    222 H222       -7.9161  -23.1892  -52.6613 H         1 UNK         0.0600 
    223 H223       -8.2485  -21.4583  -52.5772 H         1 UNK         0.0600 
    224 H224       -8.1460  -22.2623  -54.1369 H         1 UNK         0.0600 
    225 H225       -4.9401  -23.9939  -52.2953 H         1 UNK         0.3000 
    226 H226       -4.4259  -25.2331  -54.9495 H         1 UNK         0.0600 
    227 H227       -5.5492  -26.5930  -53.2039 H         1 UNK         0.0600 
    228 H228       -3.9761  -27.2584  -53.6072 H         1 UNK         0.0600 
    229 H229       -4.1889  -26.3548  -52.1146 H         1 UNK         0.0600 
    230 H230       -2.7519  -22.9994  -53.0872 H         1 UNK         0.3000 
    231 H231       -0.1129  -24.0773  -53.9777 H         1 UNK         0.0600 
    232 H232       -0.7679  -23.1991  -51.1270 H         1 UNK         0.0600 
    233 H233       -0.3865  -24.8431  -51.6506 H         1 UNK         0.0600 
    234 H234        0.8385  -23.5894  -51.7223 H         1 UNK         0.0600 
    235 H235       -2.1134  -21.2456  -53.4642 H         1 UNK         0.3000 
    236 H236       -0.1738  -19.3011  -53.2305 H         1 UNK         0.0600 
    237 H237       -2.5410  -18.8341  -52.8443 H         1 UNK         0.0600 
    238 H238       -1.9827  -17.7528  -54.1029 H         1 UNK         0.0600 
    239 H239       -2.9416  -19.1674  -54.5301 H         1 UNK         0.0600 
    240 H240        0.7784  -17.7827  -54.5759 H         1 UNK         0.3000 
    241 H241        1.8231  -18.8619  -57.0076 H         1 UNK         0.0600 
    242 H242       -1.1045  -17.1058  -56.6961 H         1 UNK         0.3800 
    243 H243       -1.1503  -16.5190  -58.3380 H         1 UNK         0.3800 
    244 H244        3.2950  -16.8984  -57.0167 H         1 UNK         0.0800 
    245 H245        3.2786  -17.6854  -55.4719 H         1 UNK         0.0800 
    246 H246        3.0214  -14.7190  -53.2421 H         1 UNK         0.0800 
    247 H247        3.8282  -16.1970  -53.6837 H         1 UNK         0.0800 
@<TRIPOS>BOND
     1    1    2 1    
     2    1  127 1    
     3    1  128 1    
     4    1  129 1    
     5    2    3 2    
     6    2    4 am   BACKBONE|DICT|INTERRES
     7    4    5 1    
     8    4  130 1    
     9    5    6 1    
    10    5   65 1    
    11    5  131 1    
    12    6    7 1    
    13    6  132 1    
    14    6  133 1    
    15    7    8 1    
    16    8    9 1    
    17    8  134 1    
    18    8  135 1    
    19    9   10 ar   
    20    9   14 ar   
    21   10   11 ar   
    22   10  136 1    
    23   11   12 ar   
    24   11  126 1    
    25   12   13 ar   
    26   12  137 1    
    27   13   14 ar   
    28   13   15 1    
    29   14  138 1    
    30   15   16 1    
    31   15  139 1    
    32   15  140 1    
    33   16   17 1    
    34   17   18 1    
    35   17  141 1    
    36   17  142 1    
    37   18   19 1    
    38   18   67 1    
    39   18  143 1    
    40   19   20 am   BACKBONE|DICT|INTERRES
    41   19  144 1    
    42   20   21 2    
    43   20   22 1    
    44   22   23 1    
    45   22   24 1    
    46   22  145 1    
    47   23  146 1    
    48   23  147 1    
    49   23  148 1    
    50   24   25 am   BACKBONE|DICT|INTERRES
    51   24  149 1    
    52   25   26 2    
    53   25   27 1    
    54   27   28 1    
    55   27   29 1    
    56   27  150 1    
    57   28  151 1    
    58   28  152 1    
    59   28  153 1    
    60   29   30 am   BACKBONE|DICT|INTERRES
    61   29  154 1    
    62   30   31 2    
    63   30   32 1    
    64   32   33 1    
    65   32   34 1    
    66   32  155 1    
    67   33  156 1    
    68   33  157 1    
    69   33  158 1    
    70   34   35 am   BACKBONE|DICT|INTERRES
    71   34  159 1    
    72   35   36 2    
    73   35   37 1    
    74   37   38 1    
    75   37   39 1    
    76   37  160 1    
    77   38  161 1    
    78   38  162 1    
    79   38  163 1    
    80   39   40 am   BACKBONE|DICT|INTERRES
    81   39  164 1    
    82   40   41 2    
    83   40   42 1    
    84   42   43 1    
    85   42   44 1    
    86   42  165 1    
    87   43  166 1    
    88   43  167 1    
    89   43  168 1    
    90   44   45 am   BACKBONE|DICT|INTERRES
    91   44  169 1    
    92   45   46 2    
    93   45   47 1    
    94   47   48 1    
    95   47   49 1    
    96   47  170 1    
    97   48  171 1    
    98   48  172 1    
    99   48  173 1    
   100   49   50 am   BACKBONE|DICT|INTERRES
   101   49  174 1    
   102   50   51 2    
   103   50   52 1    
   104   52   53 1    
   105   52   54 1    
   106   52  175 1    
   107   53  176 1    
   108   53  177 1    
   109   53  178 1    
   110   54   55 am   BACKBONE|DICT|INTERRES
   111   54  179 1    
   112   55   56 2    
   113   55   57 1    
   114   57   58 1    
   115   57   59 1    
   116   57  180 1    
   117   58  181 1    
   118   58  182 1    
   119   58  183 1    
   120   59   60 am   BACKBONE|DICT|INTERRES
   121   59  184 1    
   122   60   61 2    
   123   60   62 1    
   124   62   63 1    
   125   62   64 1    
   126   62  185 1    
   127   63  186 1    
   128   63  187 1    
   129   63  188 1    
   130   64   65 am   BACKBONE|DICT|INTERRES
   131   64  189 1    
   132   65   66 2    
   133   67   68 2    
   134   67   69 am   BACKBONE|DICT|INTERRES
   135   69   70 1    
   136   69  190 1    
   137   70   71 1    
   138   70   72 1    
   139   70  191 1    
   140   71  192 1    
   141   71  193 1    
   142   71  194 1    
   143   72   73 2    
   144   72   74 am   BACKBONE|DICT|INTERRES
   145   74   75 1    
   146   74  195 1    
   147   75   76 1    
   148   75   77 1    
   149   75  196 1    
   150   76  197 1    
   151   76  198 1    
   152   76  199 1    
   153   77   78 2    
   154   77   79 am   BACKBONE|DICT|INTERRES
   155   79   80 1    
   156   79  200 1    
   157   80   81 1    
   158   80   82 1    
   159   80  201 1    
   160   81  202 1    
   161   81  203 1    
   162   81  204 1    
   163   82   83 2    
   164   82   84 am   BACKBONE|DICT|INTERRES
   165   84   85 1    
   166   84  205 1    
   167   85   86 1    
   168   85   87 1    
   169   85  206 1    
   170   86  207 1    
   171   86  208 1    
   172   86  209 1    
   173   87   88 2    
   174   87   89 am   BACKBONE|DICT|INTERRES
   175   89   90 1    
   176   89  210 1    
   177   90   91 1    
   178   90   92 1    
   179   90  211 1    
   180   91  212 1    
   181   91  213 1    
   182   91  214 1    
   183   92   93 2    
   184   92   94 am   BACKBONE|DICT|INTERRES
   185   94   95 1    
   186   94  215 1    
   187   95   96 1    
   188   95   97 1    
   189   95  216 1    
   190   96  217 1    
   191   96  218 1    
   192   96  219 1    
   193   97   98 2    
   194   97   99 am   BACKBONE|DICT|INTERRES
   195   99  100 1    
   196   99  220 1    
   197  100  101 1    
   198  100  102 1    
   199  100  221 1    
   200  101  222 1    
   201  101  223 1    
   202  101  224 1    
   203  102  103 2    
   204  102  104 am   BACKBONE|DICT|INTERRES
   205  104  105 1    
   206  104  225 1    
   207  105  106 1    
   208  105  107 1    
   209  105  226 1    
   210  106  227 1    
   211  106  228 1    
   212  106  229 1    
   213  107  108 2    
   214  107  109 am   BACKBONE|DICT|INTERRES
   215  109  110 1    
   216  109  230 1    
   217  110  111 1    
   218  110  112 1    
   219  110  231 1    
   220  111  232 1    
   221  111  233 1    
   222  111  234 1    
   223  112  113 2    
   224  112  114 am   BACKBONE|DICT|INTERRES
   225  114  115 1    
   226  114  235 1    
   227  115  116 1    
   228  115  117 1    
   229  115  236 1    
   230  116  237 1    
   231  116  238 1    
   232  116  239 1    
   233  117  118 2    
   234  117  119 am   BACKBONE|DICT|INTERRES
   235  119  120 1    
   236  119  240 1    
   237  120  121 1    
   238  120  124 1    
   239  120  241 1    
   240  121  122 am   BACKBONE|DICT|INTERRES
   241  121  123 2    
   242  122  242 1    
   243  122  243 1    
   244  124  125 1    
   245  124  244 1    
   246  124  245 1    
   247  125  126 1    
   248  126  246 1    
   249  126  247 1    
@<TRIPOS>SUBSTRUCTURE
     1 UNK         1 GROUP             0       ****    0 ROOT    
