@<TRIPOS>MOLECULE
3R540
247   249    1
SMALL
USER_CHARGES


@<TRIPOS>ATOM
      1 CA          2.6274  -17.2047  -47.7094 C.3       0 UNK        -0.1800 
      2 C           2.6675  -15.9232  -48.5219 C.2       0 UNK         0.5000 
      3 O           1.7916  -15.0727  -48.3703 O.2       0 UNK        -0.5000 
      4 N           3.6951  -15.7737  -49.3677 N.am      1 UNK        -0.5000 
      5 CA          3.8557  -14.6893  -50.3476 C.3       1 UNK         0.1400 
      6 C6          5.0624  -14.9218  -51.2926 C.3       23 UNK        -0.0398 
      7 S7          5.2344  -16.6198  -51.9478 S.3       23 UNK        -0.2404 
      8 C8          3.7471  -16.8158  -52.9824 C.3       23 UNK        -0.0205 
      9 C9          2.6117  -17.5077  -52.2376 C.ar      23 UNK        -0.0193 
     10 C10         1.3945  -16.8528  -52.0248 C.ar      23 UNK        -0.1150 
     11 C11         0.3408  -17.5050  -51.3764 C.ar      23 UNK        -0.0193 
     12 C12         0.5140  -18.8196  -50.9332 C.ar      23 UNK        -0.1150 
     13 C13         1.7222  -19.4867  -51.1420 C.ar      23 UNK        -0.0193 
     14 C14         2.7651  -18.8268  -51.7978 C.ar      23 UNK        -0.1150 
     15 C15         1.8902  -20.9308  -50.6960 C.3       23 UNK        -0.0205 
     16 S16         2.8411  -21.0667  -49.1507 S.3       23 UNK        -0.2404 
     17 C17         1.6053  -20.6218  -47.8838 C.3       23 UNK        -0.0398 
     18 CA          0.9813  -21.8666  -47.2078 C.3       11 UNK         0.1400 
     19 N           0.6678  -21.6467  -45.7951 N.am      11 UNK        -0.5000 
     20 C           0.3717  -22.6280  -44.9315 C.2       10 UNK         0.5000 
     21 O           0.3454  -23.8209  -45.2365 O.2       10 UNK        -0.5000 
     22 CA          0.0029  -22.2061  -43.4986 C.3       10 UNK         0.1400 
     23 CB          1.2609  -21.8656  -42.6860 C.3       10 UNK        -0.1800 
     24 N          -0.9318  -21.0806  -43.4639 N.am      10 UNK        -0.5000 
     25 C          -2.1784  -21.1219  -43.9569 C.2       9 UNK         0.5000 
     26 O          -2.6768  -22.1210  -44.4747 O.2       9 UNK        -0.5000 
     27 CA         -2.9957  -19.8204  -43.8988 C.3       9 UNK         0.1400 
     28 CB         -3.5633  -19.5981  -42.4893 C.3       9 UNK        -0.1800 
     29 N          -2.2250  -18.6488  -44.3133 N.am      9 UNK        -0.5000 
     30 C          -1.7016  -18.4785  -45.5366 C.2       8 UNK         0.5000 
     31 O          -1.8316  -19.2819  -46.4594 O.2       8 UNK        -0.5000 
     32 CA         -0.8340  -17.2285  -45.7455 C.3       8 UNK         0.1400 
     33 CB         -1.6994  -15.9645  -45.8478 C.3       8 UNK        -0.1800 
     34 N           0.1523  -17.0534  -44.6843 N.am      8 UNK        -0.5000 
     35 C           1.1073  -17.9303  -44.3511 C.2       7 UNK         0.5000 
     36 O           1.2980  -18.9976  -44.9318 O.2       7 UNK        -0.5000 
     37 CA          1.9683  -17.5643  -43.1328 C.3       7 UNK         0.1400 
     38 CB          3.0460  -16.5366  -43.5125 C.3       7 UNK        -0.1800 
     39 N           1.1559  -17.0441  -42.0334 N.am      7 UNK        -0.5000 
     40 C           0.2879  -17.7760  -41.3213 C.2       6 UNK         0.5000 
     41 O           0.0902  -18.9776  -41.5043 O.2       6 UNK        -0.5000 
     42 CA         -0.5174  -17.0266  -40.2447 C.3       6 UNK         0.1400 
     43 CB          0.3256  -16.8218  -38.9770 C.3       6 UNK        -0.1800 
     44 N          -1.0176  -15.7325  -40.7122 N.am      6 UNK        -0.5000 
     45 C          -1.9534  -15.5905  -41.6602 C.2       5 UNK         0.5000 
     46 O          -2.4847  -16.5343  -42.2451 O.2       5 UNK        -0.5000 
     47 CA         -2.3381  -14.1500  -42.0461 C.3       5 UNK         0.1400 
     48 CB         -3.3186  -13.5610  -41.0203 C.3       5 UNK        -0.1800 
     49 N          -1.2124  -13.2251  -42.2294 N.am      5 UNK        -0.5000 
     50 C          -0.1571  -13.4376  -43.0262 C.2       4 UNK         0.5000 
     51 O           0.1067  -14.5205  -43.5486 O.2       4 UNK        -0.5000 
     52 CA          0.7617  -12.2408  -43.3163 C.3       4 UNK         0.1400 
     53 CB          2.0965  -12.3841  -42.5695 C.3       4 UNK        -0.1800 
     54 N           1.0189  -12.1774  -44.7544 N.am      4 UNK        -0.5000 
     55 C           0.1158  -11.8039  -45.6722 C.2       3 UNK         0.5000 
     56 O          -0.9740  -11.3071  -45.3812 O.2       3 UNK        -0.5000 
     57 CA          0.4633  -12.0647  -47.1543 C.3       3 UNK         0.1400 
     58 CB         -0.0862  -10.9745  -48.0976 C.3       3 UNK        -0.1800 
     59 N           1.8860  -12.3183  -47.4097 N.am      3 UNK        -0.5000 
     60 C           2.9120  -11.4618  -47.2767 C.2       2 UNK         0.5000 
     61 O           2.7902  -10.3018  -46.8824 O.2       2 UNK        -0.5000 
     62 CA          4.3220  -11.9883  -47.6212 C.3       2 UNK         0.1400 
     63 CB          5.1138  -12.2672  -46.3334 C.3       2 UNK        -0.1800 
     64 N           4.3121  -13.2056  -48.4346 N.am      2 UNK        -0.5000 
     65 C           3.9396  -13.2782  -49.7208 C.2       1 UNK         0.5000 
     66 O           3.6544  -12.2936  -50.4033 O.2       1 UNK        -0.5000 
     67 C          -0.2382  -22.3935  -47.9879 C.2       11 UNK         0.5000 
     68 O          -0.0861  -23.3212  -48.7802 O.2       11 UNK        -0.5000 
     69 N          -1.4312  -21.8387  -47.7250 N.am      12 UNK        -0.5000 
     70 CA         -2.6900  -22.3000  -48.3111 C.3       12 UNK         0.1400 
     71 CB         -3.8228  -21.3192  -47.9784 C.3       12 UNK        -0.1800 
     72 C          -3.0570  -23.7338  -47.8935 C.2       12 UNK         0.5000 
     73 O          -3.5132  -24.5034  -48.7387 O.2       12 UNK        -0.5000 
     74 N          -2.8123  -24.0851  -46.6234 N.am      13 UNK        -0.5000 
     75 CA         -2.9693  -25.4425  -46.1011 C.3       13 UNK         0.1400 
     76 CB         -2.8169  -25.4385  -44.5727 C.3       13 UNK        -0.1800 
     77 C          -1.9904  -26.4351  -46.7540 C.2       13 UNK         0.5000 
     78 O          -2.4153  -27.5119  -47.1733 O.2       13 UNK        -0.5000 
     79 N          -0.7150  -26.0383  -46.8794 N.am      14 UNK        -0.5000 
     80 CA          0.3358  -26.8078  -47.5534 C.3       14 UNK         0.1400 
     81 CB          1.6935  -26.1235  -47.3345 C.3       14 UNK        -0.1800 
     82 C           0.0640  -27.0144  -49.0569 C.2       14 UNK         0.5000 
     83 O           0.3303  -28.0958  -49.5821 O.2       14 UNK        -0.5000 
     84 N          -0.4985  -25.9888  -49.7090 N.am      15 UNK        -0.5000 
     85 CA         -0.9419  -26.0070  -51.1036 C.3       15 UNK         0.1400 
     86 CB         -1.0767  -24.5554  -51.5963 C.3       15 UNK        -0.1800 
     87 C          -2.2642  -26.7703  -51.3268 C.2       15 UNK         0.5000 
     88 O          -2.6709  -26.9211  -52.4780 O.2       15 UNK        -0.5000 
     89 N          -2.9326  -27.2053  -50.2473 N.am      16 UNK        -0.5000 
     90 CA         -4.2390  -27.8735  -50.2269 C.3       16 UNK         0.1400 
     91 CB         -4.1454  -29.2804  -50.8531 C.3       16 UNK        -0.1800 
     92 C          -5.3526  -27.0011  -50.8462 C.2       16 UNK         0.5000 
     93 O          -6.1558  -27.4846  -51.6454 O.2       16 UNK        -0.5000 
     94 N          -5.3462  -25.7138  -50.4724 N.am      17 UNK        -0.5000 
     95 CA         -6.2431  -24.6312  -50.8887 C.3       17 UNK         0.1400 
     96 CB         -7.7195  -24.9681  -50.5965 C.3       17 UNK        -0.1800 
     97 C          -6.0338  -24.1330  -52.3336 C.2       17 UNK         0.5000 
     98 O          -6.7454  -23.2187  -52.7525 O.2       17 UNK        -0.5000 
     99 N          -5.0387  -24.6671  -53.0610 N.am      18 UNK        -0.5000 
    100 CA        -4.6989  -24.2572  -54.4315 C.3       18 UNK         0.1400 
    101 CB        -3.7026  -25.2559  -55.0373 C.3       18 UNK        -0.1800 
    102 C         -4.1513  -22.8178  -54.5351 C.2       18 UNK         0.5000 
    103 O         -4.1796  -22.2343  -55.6188 O.2       18 UNK        -0.5000 
    104 N         -3.6947  -22.2616  -53.4040 N.am      19 UNK        -0.5000 
    105 CA        -3.2953  -20.8618  -53.2494 C.3       19 UNK         0.1400 
    106 CB        -2.5256  -20.7172  -51.9290 C.3       19 UNK        -0.1800 
    107 C         -4.4824  -19.8737  -53.2739 C.2       19 UNK         0.5000 
    108 O         -4.2518  -18.6725  -53.4180 O.2       19 UNK        -0.5000 
    109 N         -5.7144  -20.3866  -53.1213 N.am      20 UNK        -0.5000 
    110 CA        -6.9804  -19.6544  -53.0563 C.3       20 UNK         0.1400 
    111 CB        -7.3013  -18.9963  -54.4177 C.3       20 UNK        -0.1800 
    112 C         -7.0272  -18.6893  -51.8517 C.2       20 UNK         0.5000 
    113 O         -6.5740  -19.0548  -50.7635 O.2       20 UNK        -0.5000 
    114 N         -7.5854  -17.4882  -52.0478 N.am      21 UNK        -0.5000 
    115 CA        -7.7378  -16.4368  -51.0416 C.3       21 UNK         0.1400 
    116 CB        -8.8601  -15.4849  -51.4938 C.3       21 UNK        -0.1800 
    117 C         -6.4090  -15.7015  -50.7636 C.2       21 UNK         0.5000 
    118 O         -6.2835  -14.5102  -51.0547 O.2       21 UNK        -0.5000 
    119 N         -5.4332  -16.4378  -50.2224 N.am      22 UNK        -0.5000 
    120 CA        -4.1339  -15.9298  -49.7644 C.3       22 UNK         0.1400 
    121 C         -4.2728  -14.9319  -48.5775 C.2       22 UNK         0.5000 
    122 N         -3.4909  -13.8609  -48.5587 N.am      22 UNK        -0.7600 
    123 O         -5.0631  -15.1386  -47.6591 O.2       22 UNK        -0.5000 
    124 C124       -3.1844  -17.1069  -49.4229 C.3       23 UNK        -0.0398 
    125 S125       -1.4236  -16.6256  -49.4306 S.3       23 UNK        -0.2404 
    126 C126       -0.9994  -16.8105  -51.1906 C.3       23 UNK        -0.0205 
    127 H127        1.6758  -17.7072  -47.8735 H         1 UNK         0.0600 
    128 H128        2.7227  -16.9786  -46.6488 H         1 UNK         0.0600 
    129 H129        3.4265  -17.8912  -47.9901 H         1 UNK         0.0600 
    130 H130        4.3746  -16.5170  -49.4487 H         1 UNK         0.3000 
    131 H131        2.9520  -14.6919  -50.9586 H         1 UNK         0.0600 
    132 H132        5.0177  -14.2321  -52.1374 H         1 UNK         0.0800 
    133 H133        5.9949  -14.6950  -50.7721 H         1 UNK         0.0800 
    134 H134        4.0077  -17.4206  -53.8519 H         1 UNK         0.0800 
    135 H135        3.4333  -15.8460  -53.3713 H         1 UNK         0.0800 
    136 H136        1.2610  -15.8400  -52.3775 H         1 UNK         0.1150 
    137 H137       -0.2979  -19.3246  -50.4298 H         1 UNK         0.1150 
    138 H138        3.6997  -19.3425  -51.9693 H         1 UNK         0.1150 
    139 H139        0.9209  -21.4182  -50.5833 H         1 UNK         0.0800 
    140 H140        2.4141  -21.4857  -51.4754 H         1 UNK         0.0800 
    141 H141        0.8478  -19.9476  -48.2865 H         1 UNK         0.0800 
    142 H142        2.1521  -20.0403  -47.1423 H         1 UNK         0.0800 
    143 H143        1.7295  -22.6623  -47.2195 H         1 UNK         0.0600 
    144 H144        0.7026  -20.6859  -45.4608 H         1 UNK         0.3000 
    145 H145       -0.4863  -23.0573  -43.0207 H         1 UNK         0.0600 
    146 H146        1.0123  -21.6589  -41.6450 H         1 UNK         0.0600 
    147 H147        1.9674  -22.6965  -42.6929 H         1 UNK         0.0600 
    148 H148        1.7764  -20.9920  -43.0856 H         1 UNK         0.0600 
    149 H149       -0.5999  -20.2262  -43.0291 H         1 UNK         0.3000 
    150 H150       -3.8347  -19.9258  -44.5896 H         1 UNK         0.0600 
    151 H151       -4.1392  -20.4630  -42.1577 H         1 UNK         0.0600 
    152 H152       -4.2297  -18.7358  -42.4656 H         1 UNK         0.0600 
    153 H153       -2.7717  -19.4284  -41.7584 H         1 UNK         0.0600 
    154 H154       -2.0909  -17.9248  -43.6135 H         1 UNK         0.3000 
    155 H155       -0.2964  -17.3515  -46.6861 H         1 UNK         0.0600 
    156 H156       -2.1829  -15.7262  -44.9009 H         1 UNK         0.0600 
    157 H157       -2.4854  -16.0897  -46.5904 H         1 UNK         0.0600 
    158 H158       -1.1021  -15.1028  -46.1465 H         1 UNK         0.0600 
    159 H159        0.0974  -16.1787  -44.1638 H         1 UNK         0.3000 
    160 H160        2.4681  -18.4719  -42.7878 H         1 UNK         0.0600 
    161 H161        2.6098  -15.6121  -43.8921 H         1 UNK         0.0600 
    162 H162        3.7020  -16.9316  -44.2891 H         1 UNK         0.0600 
    163 H163        3.6719  -16.2857  -42.6562 H         1 UNK         0.0600 
    164 H164        1.1974  -16.0489  -41.8696 H         1 UNK         0.3000 
    165 H165       -1.3770  -17.6476  -39.9833 H         1 UNK         0.0600 
    166 H166       -0.2648  -16.3687  -38.1805 H         1 UNK         0.0600 
    167 H167        0.7008  -17.7744  -38.6004 H         1 UNK         0.0600 
    168 H168        1.1875  -16.1799  -39.1632 H         1 UNK         0.0600 
    169 H169       -0.6214  -14.9038  -40.2937 H         1 UNK         0.3000 
    170 H170       -2.8561  -14.2068  -43.0055 H         1 UNK         0.0600 
    171 H171       -4.1747  -14.2210  -40.8733 H         1 UNK         0.0600 
    172 H172       -2.8457  -13.4149  -40.0485 H         1 UNK         0.0600 
    173 H173       -3.7072  -12.5983  -41.3529 H         1 UNK         0.0600 
    174 H174       -1.3327  -12.3052  -41.8307 H         1 UNK         0.3000 
    175 H175        0.2754  -11.3162  -42.9984 H         1 UNK         0.0600 
    176 H176        2.6255  -13.2941  -42.8552 H         1 UNK         0.0600 
    177 H177        2.7534  -11.5381  -42.7726 H         1 UNK         0.0600 
    178 H178        1.9377  -12.4213  -41.4911 H         1 UNK         0.0600 
    179 H179        1.8673  -12.6138  -45.0803 H         1 UNK         0.3000 
    180 H180       -0.0447  -12.9958  -47.4105 H         1 UNK         0.0600 
    181 H181        0.3114   -9.9889  -47.8549 H         1 UNK         0.0600 
    182 H182       -1.1730  -10.9118  -48.0325 H         1 UNK         0.0600 
    183 H183        0.1623  -11.1914  -49.1365 H         1 UNK         0.0600 
    184 H184        2.0844  -13.2578  -47.7451 H         1 UNK         0.3000 
    185 H185        4.8376  -11.2052  -48.1808 H         1 UNK         0.0600 
    186 H186        5.1723  -11.3751  -45.7083 H         1 UNK         0.0600 
    187 H187        4.6505  -13.0549  -45.7377 H         1 UNK         0.0600 
    188 H188        6.1364  -12.5719  -46.5570 H         1 UNK         0.0600 
    189 H189        4.5273  -14.0697  -47.9590 H         1 UNK         0.3000 
    190 H190       -1.4902  -21.0469  -47.0891 H         1 UNK         0.3000 
    191 H191       -2.5592  -22.3102  -49.3931 H         1 UNK         0.0600 
    192 H192       -3.9743  -21.2312  -46.9021 H         1 UNK         0.0600 
    193 H193       -4.7657  -21.6442  -48.4201 H         1 UNK         0.0600 
    194 H194       -3.6082  -20.3241  -48.3688 H         1 UNK         0.0600 
    195 H195       -2.4954  -23.3772  -45.9672 H         1 UNK         0.3000 
    196 H196       -3.9828  -25.7742  -46.3364 H         1 UNK         0.0600 
    197 H197       -2.9427  -26.4422  -44.1650 H         1 UNK         0.0600 
    198 H198       -3.5675  -24.8011  -44.1052 H         1 UNK         0.0600 
    199 H199       -1.8356  -25.0786  -44.2637 H         1 UNK         0.0600 
    200 H200       -0.4374  -25.1492  -46.4735 H         1 UNK         0.3000 
    201 H201        0.3741  -27.7940  -47.0865 H         1 UNK         0.0600 
    202 H202        1.9224  -26.0319  -46.2726 H         1 UNK         0.0600 
    203 H203        1.7156  -25.1238  -47.7684 H         1 UNK         0.0600 
    204 H204        2.4990  -26.6983  -47.7931 H         1 UNK         0.0600 
    205 H205       -0.6004  -25.1036  -49.2193 H         1 UNK         0.3000 
    206 H206       -0.1758  -26.5014  -51.7039 H         1 UNK         0.0600 
    207 H207       -0.1388  -24.0114  -51.4837 H         1 UNK         0.0600 
    208 H208       -1.3443  -24.5179  -52.6524 H         1 UNK         0.0600 
    209 H209       -1.8451  -24.0154  -51.0429 H         1 UNK         0.0600 
    210 H210       -2.5305  -27.0186  -49.3371 H         1 UNK         0.3000 
    211 H211       -4.5004  -27.9988  -49.1752 H         1 UNK         0.0600 
    212 H212       -3.9334  -29.2376  -51.9217 H         1 UNK         0.0600 
    213 H213       -5.0813  -29.8259  -50.7276 H         1 UNK         0.0600 
    214 H214       -3.3607  -29.8698  -50.3788 H         1 UNK         0.0600 
    215 H215       -4.6140  -25.4171  -49.8269 H         1 UNK         0.3000 
    216 H216       -5.9780  -23.7858  -50.2522 H         1 UNK         0.0600 
    217 H217       -8.3545  -24.0929  -50.7384 H         1 UNK         0.0600 
    218 H218       -7.8527  -25.2996  -49.5668 H         1 UNK         0.0600 
    219 H219       -8.0979  -25.7504  -51.2547 H         1 UNK         0.0600 
    220 H220       -4.4946  -25.4236  -52.6662 H         1 UNK         0.3000 
    221 H221       -5.6157  -24.2968  -55.0234 H         1 UNK         0.0600 
    222 H222       -2.7375  -25.2185  -54.5325 H         1 UNK         0.0600 
    223 H223       -4.0767  -26.2780  -54.9745 H         1 UNK         0.0600 
    224 H224       -3.5261  -25.0387  -56.0915 H         1 UNK         0.0600 
    225 H225       -3.7021  -22.8251  -52.5679 H         1 UNK         0.3000 
    226 H226       -2.6263  -20.6008  -54.0719 H         1 UNK         0.0600 
    227 H227       -1.6818  -21.4056  -51.8740 H         1 UNK         0.0600 
    228 H228       -2.1296  -19.7081  -51.8291 H         1 UNK         0.0600 
    229 H229       -3.1742  -20.8950  -51.0717 H         1 UNK         0.0600 
    230 H230       -5.8034  -21.3878  -52.9916 H         1 UNK         0.3000 
    231 H231       -7.7487  -20.4051  -52.8667 H         1 UNK         0.0600 
    232 H232       -7.2263  -19.7229  -55.2268 H         1 UNK         0.0600 
    233 H233       -6.6205  -18.1761  -54.6481 H         1 UNK         0.0600 
    234 H234       -8.3185  -18.6038  -54.4397 H         1 UNK         0.0600 
    235 H235       -7.8994  -17.2573  -52.9791 H         1 UNK         0.3000 
    236 H236       -8.0550  -16.8951  -50.1024 H         1 UNK         0.0600 
    237 H237       -9.0256  -14.6978  -50.7570 H         1 UNK         0.0600 
    238 H238       -8.6236  -15.0031  -52.4432 H         1 UNK         0.0600 
    239 H239       -9.8037  -16.0174  -51.6142 H         1 UNK         0.0600 
    240 H240       -5.6261  -17.4203  -50.0604 H         1 UNK         0.3000 
    241 H241       -3.7086  -15.3882  -50.6119 H         1 UNK         0.0600 
    242 H242       -3.5705  -13.2122  -47.7923 H         1 UNK         0.3800 
    243 H243       -2.8229  -13.6857  -49.2925 H         1 UNK         0.3800 
    244 H244       -3.4267  -17.5330  -48.4475 H         1 UNK         0.0800 
    245 H245       -3.3173  -17.9244  -50.1333 H         1 UNK         0.0800 
    246 H246       -0.9903  -15.8202  -51.6479 H         1 UNK         0.0800 
    247 H247       -1.7641  -17.3786  -51.7201 H         1 UNK         0.0800 
@<TRIPOS>BOND
     1    1    2 1    
     2    1  127 1    
     3    1  128 1    
     4    1  129 1    
     5    2    3 2    
     6    2    4 am   BACKBONE|DICT|INTERRES
     7    4    5 1    
     8    4  130 1    
     9    5    6 1    
    10    5   65 1    
    11    5  131 1    
    12    6    7 1    
    13    6  132 1    
    14    6  133 1    
    15    7    8 1    
    16    8    9 1    
    17    8  134 1    
    18    8  135 1    
    19    9   10 ar   
    20    9   14 ar   
    21   10   11 ar   
    22   10  136 1    
    23   11   12 ar   
    24   11  126 1    
    25   12   13 ar   
    26   12  137 1    
    27   13   14 ar   
    28   13   15 1    
    29   14  138 1    
    30   15   16 1    
    31   15  139 1    
    32   15  140 1    
    33   16   17 1    
    34   17   18 1    
    35   17  141 1    
    36   17  142 1    
    37   18   19 1    
    38   18   67 1    
    39   18  143 1    
    40   19   20 am   BACKBONE|DICT|INTERRES
    41   19  144 1    
    42   20   21 2    
    43   20   22 1    
    44   22   23 1    
    45   22   24 1    
    46   22  145 1    
    47   23  146 1    
    48   23  147 1    
    49   23  148 1    
    50   24   25 am   BACKBONE|DICT|INTERRES
    51   24  149 1    
    52   25   26 2    
    53   25   27 1    
    54   27   28 1    
    55   27   29 1    
    56   27  150 1    
    57   28  151 1    
    58   28  152 1    
    59   28  153 1    
    60   29   30 am   BACKBONE|DICT|INTERRES
    61   29  154 1    
    62   30   31 2    
    63   30   32 1    
    64   32   33 1    
    65   32   34 1    
    66   32  155 1    
    67   33  156 1    
    68   33  157 1    
    69   33  158 1    
    70   34   35 am   BACKBONE|DICT|INTERRES
    71   34  159 1    
    72   35   36 2    
    73   35   37 1    
    74   37   38 1    
    75   37   39 1    
    76   37  160 1    
    77   38  161 1    
    78   38  162 1    
    79   38  163 1    
    80   39   40 am   BACKBONE|DICT|INTERRES
    81   39  164 1    
    82   40   41 2    
    83   40   42 1    
    84   42   43 1    
    85   42   44 1    
    86   42  165 1    
    87   43  166 1    
    88   43  167 1    
    89   43  168 1    
    90   44   45 am   BACKBONE|DICT|INTERRES
    91   44  169 1    
    92   45   46 2    
    93   45   47 1    
    94   47   48 1    
    95   47   49 1    
    96   47  170 1    
    97   48  171 1    
    98   48  172 1    
    99   48  173 1    
   100   49   50 am   BACKBONE|DICT|INTERRES
   101   49  174 1    
   102   50   51 2    
   103   50   52 1    
   104   52   53 1    
   105   52   54 1    
   106   52  175 1    
   107   53  176 1    
   108   53  177 1    
   109   53  178 1    
   110   54   55 am   BACKBONE|DICT|INTERRES
   111   54  179 1    
   112   55   56 2    
   113   55   57 1    
   114   57   58 1    
   115   57   59 1    
   116   57  180 1    
   117   58  181 1    
   118   58  182 1    
   119   58  183 1    
   120   59   60 am   BACKBONE|DICT|INTERRES
   121   59  184 1    
   122   60   61 2    
   123   60   62 1    
   124   62   63 1    
   125   62   64 1    
   126   62  185 1    
   127   63  186 1    
   128   63  187 1    
   129   63  188 1    
   130   64   65 am   BACKBONE|DICT|INTERRES
   131   64  189 1    
   132   65   66 2    
   133   67   68 2    
   134   67   69 am   BACKBONE|DICT|INTERRES
   135   69   70 1    
   136   69  190 1    
   137   70   71 1    
   138   70   72 1    
   139   70  191 1    
   140   71  192 1    
   141   71  193 1    
   142   71  194 1    
   143   72   73 2    
   144   72   74 am   BACKBONE|DICT|INTERRES
   145   74   75 1    
   146   74  195 1    
   147   75   76 1    
   148   75   77 1    
   149   75  196 1    
   150   76  197 1    
   151   76  198 1    
   152   76  199 1    
   153   77   78 2    
   154   77   79 am   BACKBONE|DICT|INTERRES
   155   79   80 1    
   156   79  200 1    
   157   80   81 1    
   158   80   82 1    
   159   80  201 1    
   160   81  202 1    
   161   81  203 1    
   162   81  204 1    
   163   82   83 2    
   164   82   84 am   BACKBONE|DICT|INTERRES
   165   84   85 1    
   166   84  205 1    
   167   85   86 1    
   168   85   87 1    
   169   85  206 1    
   170   86  207 1    
   171   86  208 1    
   172   86  209 1    
   173   87   88 2    
   174   87   89 am   BACKBONE|DICT|INTERRES
   175   89   90 1    
   176   89  210 1    
   177   90   91 1    
   178   90   92 1    
   179   90  211 1    
   180   91  212 1    
   181   91  213 1    
   182   91  214 1    
   183   92   93 2    
   184   92   94 am   BACKBONE|DICT|INTERRES
   185   94   95 1    
   186   94  215 1    
   187   95   96 1    
   188   95   97 1    
   189   95  216 1    
   190   96  217 1    
   191   96  218 1    
   192   96  219 1    
   193   97   98 2    
   194   97   99 am   BACKBONE|DICT|INTERRES
   195   99  100 1    
   196   99  220 1    
   197  100  101 1    
   198  100  102 1    
   199  100  221 1    
   200  101  222 1    
   201  101  223 1    
   202  101  224 1    
   203  102  103 2    
   204  102  104 am   BACKBONE|DICT|INTERRES
   205  104  105 1    
   206  104  225 1    
   207  105  106 1    
   208  105  107 1    
   209  105  226 1    
   210  106  227 1    
   211  106  228 1    
   212  106  229 1    
   213  107  108 2    
   214  107  109 am   BACKBONE|DICT|INTERRES
   215  109  110 1    
   216  109  230 1    
   217  110  111 1    
   218  110  112 1    
   219  110  231 1    
   220  111  232 1    
   221  111  233 1    
   222  111  234 1    
   223  112  113 2    
   224  112  114 am   BACKBONE|DICT|INTERRES
   225  114  115 1    
   226  114  235 1    
   227  115  116 1    
   228  115  117 1    
   229  115  236 1    
   230  116  237 1    
   231  116  238 1    
   232  116  239 1    
   233  117  118 2    
   234  117  119 am   BACKBONE|DICT|INTERRES
   235  119  120 1    
   236  119  240 1    
   237  120  121 1    
   238  120  124 1    
   239  120  241 1    
   240  121  122 am   BACKBONE|DICT|INTERRES
   241  121  123 2    
   242  122  242 1    
   243  122  243 1    
   244  124  125 1    
   245  124  244 1    
   246  124  245 1    
   247  125  126 1    
   248  126  246 1    
   249  126  247 1    
@<TRIPOS>SUBSTRUCTURE
     1 UNK         1 GROUP             0       ****    0 ROOT    
