@<TRIPOS>MOLECULE
3R540
247   249    1
SMALL
USER_CHARGES


@<TRIPOS>ATOM
      1 CA         -2.7289   -8.7686  -50.1229 C.3       0 UNK        -0.1800 
      2 C          -2.4005   -9.6070  -48.8956 C.2       0 UNK         0.5000 
      3 O          -2.4111   -9.0847  -47.7810 O.2       0 UNK        -0.5000 
      4 N          -2.1088  -10.8987  -49.1039 N.am      1 UNK        -0.5000 
      5 CA         -1.7710  -11.8981  -48.0785 C.3       1 UNK         0.1400 
      6 C6         -2.9332  -12.2256  -47.0994 C.3       23 UNK        -0.0398 
      7 S7         -4.4758  -12.7115  -47.9475 S.3       23 UNK        -0.2404 
      8 C8         -4.4383  -14.5307  -47.8139 C.3       23 UNK        -0.0205 
      9 C9         -3.3799  -15.1749  -48.7020 C.ar      23 UNK        -0.0193 
     10 C10        -3.3642  -14.9240  -50.0781 C.ar      23 UNK        -0.1150 
     11 C11        -2.4088  -15.5250  -50.9022 C.ar      23 UNK        -0.0193 
     12 C12        -1.4736  -16.4001  -50.3439 C.ar      23 UNK        -0.1150 
     13 C13        -1.4871  -16.6727  -48.9729 C.ar      23 UNK        -0.0193 
     14 C14        -2.4362  -16.0507  -48.1550 C.ar      23 UNK        -0.1150 
     15 C15        -0.4622  -17.6260  -48.3788 C.3       23 UNK        -0.0205 
     16 S16        -0.9172  -19.3694  -48.6162 S.3       23 UNK        -0.2404 
     17 C17        -2.2918  -19.5760  -47.4344 C.3       23 UNK        -0.0398 
     18 CA         -2.4214  -21.0507  -46.9888 C.3       11 UNK         0.1400 
     19 N          -1.2310  -21.5362  -46.2779 N.am      11 UNK        -0.5000 
     20 C          -0.9879  -22.8230  -45.9940 C.2       10 UNK         0.5000 
     21 O          -1.7637  -23.7338  -46.2735 O.2       10 UNK        -0.5000 
     22 CA          0.3095  -23.1352  -45.2306 C.3       10 UNK         0.1400 
     23 CB          1.5282  -23.0377  -46.1606 C.3       10 UNK        -0.1800 
     24 N           0.4785  -22.2386  -44.0876 N.am      10 UNK        -0.5000 
     25 C          -0.2535  -22.3176  -42.9643 C.2       9 UNK         0.5000 
     26 O          -1.0511  -23.2274  -42.7370 O.2       9 UNK        -0.5000 
     27 CA         -0.1083  -21.1739  -41.9373 C.3       9 UNK         0.1400 
     28 CB          0.9226  -21.5453  -40.8620 C.3       9 UNK        -0.1800 
     29 N           0.2638  -19.8938  -42.5445 N.am      9 UNK        -0.5000 
     30 C          -0.4719  -19.2482  -43.4621 C.2       8 UNK         0.5000 
     31 O          -1.6025  -19.6050  -43.7904 O.2       8 UNK        -0.5000 
     32 CA          0.1620  -18.0500  -44.1943 C.3       8 UNK         0.1400 
     33 CB         -0.4980  -16.7341  -43.7586 C.3       8 UNK        -0.1800 
     34 N           1.6153  -17.9373  -44.0602 N.am      8 UNK        -0.5000 
     35 C           2.5224  -18.8510  -44.4305 C.2       7 UNK         0.5000 
     36 O           2.2303  -19.9143  -44.9796 O.2       7 UNK        -0.5000 
     37 CA          3.9912  -18.5593  -44.0594 C.3       7 UNK         0.1400 
     38 CB          4.7390  -17.9035  -45.2297 C.3       7 UNK        -0.1800 
     39 N           4.1572  -17.7392  -42.8515 N.am      7 UNK        -0.5000 
     40 C           3.7315  -18.0708  -41.6255 C.2       6 UNK         0.5000 
     41 O           3.0934  -19.0985  -41.3932 O.2       6 UNK        -0.5000 
     42 CA          4.0431  -17.1162  -40.4542 C.3       6 UNK         0.1400 
     43 CB          5.3455  -17.5307  -39.7438 C.3       6 UNK        -0.1800 
     44 N           4.0424  -15.6794  -40.7648 N.am      6 UNK        -0.5000 
     45 C           4.8935  -14.9594  -41.5075 C.2       5 UNK         0.5000 
     46 O           5.8108  -15.4505  -42.1677 O.2       5 UNK        -0.5000 
     47 CA          4.6454  -13.4322  -41.5263 C.3       5 UNK         0.1400 
     48 CB          5.8260  -12.6509  -42.1295 C.3       5 UNK        -0.1800 
     49 N           3.4365  -13.0986  -42.2770 N.am      5 UNK        -0.5000 
     50 C           2.1787  -13.3450  -41.8877 C.2       4 UNK         0.5000 
     51 O           1.8818  -13.7097  -40.7485 O.2       4 UNK        -0.5000 
     52 CA          1.0701  -13.2189  -42.9563 C.3       4 UNK         0.1400 
     53 CB          0.3344  -11.8794  -42.8030 C.3       4 UNK        -0.1800 
     54 N           1.5121  -13.3660  -44.3517 N.am      4 UNK        -0.5000 
     55 C           2.2541  -14.3671  -44.8541 C.2       3 UNK         0.5000 
     56 O           2.6491  -15.3107  -44.1722 O.2       3 UNK        -0.5000 
     57 CA          2.6228  -14.3397  -46.3537 C.3       3 UNK         0.1400 
     58 CB          2.0000  -15.5451  -47.0713 C.3       3 UNK        -0.1800 
     59 N           2.2011  -13.1345  -47.0641 N.am      3 UNK        -0.5000 
     60 C           2.6590  -11.8894  -46.8847 C.2       2 UNK         0.5000 
     61 O           3.5962  -11.6076  -46.1377 O.2       2 UNK        -0.5000 
     62 CA          1.9063  -10.7675  -47.6347 C.3       2 UNK         0.1400 
     63 CB          2.7353  -10.2672  -48.8272 C.3       2 UNK        -0.1800 
     64 N           0.5678  -11.1468  -48.1136 N.am      2 UNK        -0.5000 
     65 C          -0.4593  -11.5394  -47.3425 C.2       1 UNK         0.5000 
     66 O          -0.3810  -11.6383  -46.1169 O.2       1 UNK        -0.5000 
     67 C          -3.7275  -21.2952  -46.2016 C.2       11 UNK         0.5000 
     68 O          -4.7702  -21.5204  -46.8159 O.2       11 UNK        -0.5000 
     69 N          -3.6452  -21.3157  -44.8649 N.am      12 UNK        -0.5000 
     70 CA         -4.7314  -21.7047  -43.9647 C.3       12 UNK         0.1400 
     71 CB         -4.3063  -21.4298  -42.5148 C.3       12 UNK        -0.1800 
     72 C          -5.1760  -23.1737  -44.1313 C.2       12 UNK         0.5000 
     73 O          -6.3440  -23.4789  -43.8866 O.2       12 UNK        -0.5000 
     74 N          -4.2678  -24.0537  -44.5787 N.am      13 UNK        -0.5000 
     75 CA         -4.5358  -25.4605  -44.8779 C.3       13 UNK         0.1400 
     76 CB         -3.2578  -26.2853  -44.6391 C.3       13 UNK        -0.1800 
     77 C          -5.0919  -25.6146  -46.3077 C.2       13 UNK         0.5000 
     78 O          -4.4544  -26.2326  -47.1635 O.2       13 UNK        -0.5000 
     79 N          -6.2721  -25.0211  -46.5390 N.am      14 UNK        -0.5000 
     80 CA         -7.0587  -25.0534  -47.7778 C.3       14 UNK         0.1400 
     81 CB         -7.6554  -26.4607  -47.9894 C.3       14 UNK        -0.1800 
     82 C          -6.2691  -24.5520  -49.0042 C.2       14 UNK         0.5000 
     83 O          -6.1921  -25.2482  -50.0186 O.2       14 UNK        -0.5000 
     84 N          -5.6547  -23.3671  -48.8675 N.am      15 UNK        -0.5000 
     85 CA         -4.7812  -22.7217  -49.8536 C.3       15 UNK         0.1400 
     86 CB         -5.5823  -22.2930  -51.1010 C.3       15 UNK        -0.1800 
     87 C          -3.5442  -23.5816  -50.1808 C.2       15 UNK         0.5000 
     88 O          -3.1731  -23.7044  -51.3471 O.2       15 UNK        -0.5000 
     89 N          -2.9527  -24.1917  -49.1420 N.am      16 UNK        -0.5000 
     90 CA         -1.8319  -25.1360  -49.1981 C.3       16 UNK         0.1400 
     91 CB         -0.5375  -24.4113  -49.6251 C.3       16 UNK        -0.1800 
     92 C          -2.1656  -26.3646  -50.0676 C.2       16 UNK         0.5000 
     93 O          -1.3908  -26.7278  -50.9523 O.2       16 UNK        -0.5000 
     94 N          -3.3525  -26.9418  -49.8265 N.am      17 UNK        -0.5000 
     95 CA         -3.9992  -27.9929  -50.6205 C.3       17 UNK         0.1400 
     96 CB         -3.2472  -29.3316  -50.4721 C.3       17 UNK        -0.1800 
     97 C          -4.2058  -27.5662  -52.0920 C.2       17 UNK         0.5000 
     98 O          -3.8618  -28.3079  -53.0142 O.2       17 UNK        -0.5000 
     99 N          -4.7494  -26.3535  -52.2665 N.am      18 UNK        -0.5000 
    100 CA        -5.0421  -25.6604  -53.5262 C.3       18 UNK         0.1400 
    101 CB        -6.1100  -26.4266  -54.3345 C.3       18 UNK        -0.1800 
    102 C         -3.8069  -25.2900  -54.3798 C.2       18 UNK         0.5000 
    103 O         -3.9670  -24.9707  -55.5594 O.2       18 UNK        -0.5000 
    104 N         -2.6036  -25.3093  -53.7902 N.am      19 UNK        -0.5000 
    105 CA        -1.3592  -24.9092  -54.4494 C.3       19 UNK         0.1400 
    106 CB        -0.1659  -25.5588  -53.7351 C.3       19 UNK        -0.1800 
    107 C         -1.1804  -23.3806  -54.5071 C.2       19 UNK         0.5000 
    108 O         -0.5860  -22.8792  -55.4634 O.2       19 UNK        -0.5000 
    109 N         -1.6913  -22.6593  -53.4995 N.am      20 UNK        -0.5000 
    110 CA        -1.6385  -21.2015  -53.4027 C.3       20 UNK         0.1400 
    111 CB        -1.6965  -20.7784  -51.9239 C.3       20 UNK        -0.1800 
    112 C         -2.7616  -20.5717  -54.2459 C.2       20 UNK         0.5000 
    113 O         -3.7718  -20.1184  -53.7069 O.2       20 UNK        -0.5000 
    114 N         -2.5703  -20.5856  -55.5706 N.am      21 UNK        -0.5000 
    115 CA        -3.4934  -20.0182  -56.5562 C.3       21 UNK         0.1400 
    116 CB        -3.1275  -20.5628  -57.9455 C.3       21 UNK        -0.1800 
    117 C         -3.5113  -18.4753  -56.5664 C.2       21 UNK         0.5000 
    118 O         -4.4859  -17.8903  -57.0404 O.2       21 UNK        -0.5000 
    119 N         -2.4386  -17.8530  -56.0551 N.am      22 UNK        -0.5000 
    120 CA        -2.2390  -16.3956  -55.9310 C.3       22 UNK         0.1400 
    121 C         -2.0497  -15.6436  -57.2859 C.2       22 UNK         0.5000 
    122 N         -1.7763  -16.3264  -58.3911 N.am      22 UNK        -0.7600 
    123 O         -2.1162  -14.4182  -57.3367 O.2       22 UNK        -0.5000 
    124 C124       -3.2870  -15.7040  -55.0105 C.3       23 UNK        -0.0398 
    125 S125       -3.3665  -16.4246  -53.3332 S.3       23 UNK        -0.2404 
    126 C126       -2.3833  -15.2193  -52.3914 C.3       23 UNK        -0.0205 
    127 H127       -2.6850   -9.3562  -51.0402 H         1 UNK         0.0600 
    128 H128       -2.0226   -7.9434  -50.2136 H         1 UNK         0.0600 
    129 H129       -3.7323   -8.3520  -50.0345 H         1 UNK         0.0600 
    130 H130       -2.1340  -11.2517  -50.0501 H         1 UNK         0.3000 
    131 H131       -1.5499  -12.8162  -48.6249 H         1 UNK         0.0600 
    132 H132       -3.1552  -11.3622  -46.4704 H         1 UNK         0.0800 
    133 H133       -2.6420  -13.0255  -46.4164 H         1 UNK         0.0800 
    134 H134       -4.3004  -14.8119  -46.7687 H         1 UNK         0.0800 
    135 H135       -5.4143  -14.9194  -48.1069 H         1 UNK         0.0800 
    136 H136       -4.0970  -14.2552  -50.5077 H         1 UNK         0.1150 
    137 H137       -0.7384  -16.8758  -50.9778 H         1 UNK         0.1150 
    138 H138       -2.4462  -16.2578  -47.0941 H         1 UNK         0.1150 
    139 H139        0.5067  -17.4539  -48.8496 H         1 UNK         0.0800 
    140 H140       -0.3253  -17.4260  -47.3184 H         1 UNK         0.0800 
    141 H141       -3.2048  -19.2359  -47.9270 H         1 UNK         0.0800 
    142 H142       -2.1434  -18.9265  -46.5704 H         1 UNK         0.0800 
    143 H143       -2.5017  -21.6521  -47.8956 H         1 UNK         0.0600 
    144 H144       -0.5513  -20.8416  -46.0080 H         1 UNK         0.3000 
    145 H145        0.2469  -24.1618  -44.8632 H         1 UNK         0.0600 
    146 H146        2.4495  -23.2754  -45.6288 H         1 UNK         0.0600 
    147 H147        1.4404  -23.7402  -46.9903 H         1 UNK         0.0600 
    148 H148        1.6364  -22.0399  -46.5872 H         1 UNK         0.0600 
    149 H149        1.1108  -21.4547  -44.2140 H         1 UNK         0.3000 
    150 H150       -1.0776  -21.0420  -41.4523 H         1 UNK         0.0600 
    151 H151        0.6501  -22.4764  -40.3635 H         1 UNK         0.0600 
    152 H152        0.9893  -20.7731  -40.0954 H         1 UNK         0.0600 
    153 H153        1.9171  -21.6794  -41.2895 H         1 UNK         0.0600 
    154 H154        1.1876  -19.5408  -42.3210 H         1 UNK         0.3000 
    155 H155       -0.0485  -18.2018  -45.2518 H         1 UNK         0.0600 
    156 H156       -1.5859  -16.8038  -43.8003 H         1 UNK         0.0600 
    157 H157       -0.2084  -15.9141  -44.4142 H         1 UNK         0.0600 
    158 H158       -0.2235  -16.4683  -42.7373 H         1 UNK         0.0600 
    159 H159        1.9723  -17.0575  -43.6982 H         1 UNK         0.3000 
    160 H160        4.4617  -19.5242  -43.8613 H         1 UNK         0.0600 
    161 H161        4.3813  -16.8932  -45.4242 H         1 UNK         0.0600 
    162 H162        4.6155  -18.4797  -46.1476 H         1 UNK         0.0600 
    163 H163        5.8080  -17.8426  -45.0258 H         1 UNK         0.0600 
    164 H164        4.6737  -16.8710  -42.9483 H         1 UNK         0.3000 
    165 H165        3.2312  -17.2493  -39.7375 H         1 UNK         0.0600 
    166 H166        6.2129  -17.4426  -40.3986 H         1 UNK         0.0600 
    167 H167        5.5265  -16.9172  -38.8612 H         1 UNK         0.0600 
    168 H168        5.2941  -18.5686  -39.4125 H         1 UNK         0.0600 
    169 H169        3.2658  -15.1622  -40.3646 H         1 UNK         0.3000 
    170 H170        4.5203  -13.1033  -40.4926 H         1 UNK         0.0600 
    171 H171        6.7514  -12.8661  -41.5936 H         1 UNK         0.0600 
    172 H172        5.9854  -12.9055  -43.1782 H         1 UNK         0.0600 
    173 H173        5.6587  -11.5755  -42.0683 H         1 UNK         0.0600 
    174 H174        3.5754  -12.8289  -43.2401 H         1 UNK         0.3000 
    175 H175        0.3555  -14.0196  -42.7609 H         1 UNK         0.0600 
    176 H176        0.9712  -11.0385  -43.0802 H         1 UNK         0.0600 
    177 H177       -0.5577  -11.8463  -43.4282 H         1 UNK         0.0600 
    178 H178        0.0098  -11.7225  -41.7734 H         1 UNK         0.0600 
    179 H179        1.1741  -12.6587  -44.9933 H         1 UNK         0.3000 
    180 H180        3.7097  -14.4152  -46.4207 H         1 UNK         0.0600 
    181 H181        0.9123  -15.4787  -47.0612 H         1 UNK         0.0600 
    182 H182        2.2775  -16.4864  -46.5966 H         1 UNK         0.0600 
    183 H183        2.3256  -15.5995  -48.1102 H         1 UNK         0.0600 
    184 H184        1.4314  -13.2494  -47.7057 H         1 UNK         0.3000 
    185 H185        1.7821   -9.9409  -46.9323 H         1 UNK         0.0600 
    186 H186        3.7271   -9.9447  -48.5073 H         1 UNK         0.0600 
    187 H187        2.8700  -11.0466  -49.5782 H         1 UNK         0.0600 
    188 H188        2.2587   -9.4134  -49.3093 H         1 UNK         0.0600 
    189 H189        0.4156  -11.0790  -49.1096 H         1 UNK         0.3000 
    190 H190       -2.7748  -21.0227  -44.4312 H         1 UNK         0.3000 
    191 H191       -5.5927  -21.0735  -44.1929 H         1 UNK         0.0600 
    192 H192       -3.4483  -22.0369  -42.2262 H         1 UNK         0.0600 
    193 H193       -4.0388  -20.3824  -42.3729 H         1 UNK         0.0600 
    194 H194       -5.1165  -21.6560  -41.8207 H         1 UNK         0.0600 
    195 H195       -3.3439  -23.7208  -44.8279 H         1 UNK         0.3000 
    196 H196       -5.2957  -25.8374  -44.1902 H         1 UNK         0.0600 
    197 H197       -2.8831  -26.1471  -43.6248 H         1 UNK         0.0600 
    198 H198       -2.4591  -26.0157  -45.3292 H         1 UNK         0.0600 
    199 H199       -3.4544  -27.3497  -44.7717 H         1 UNK         0.0600 
    200 H200       -6.6807  -24.5008  -45.7709 H         1 UNK         0.3000 
    201 H201       -7.8882  -24.3585  -47.6407 H         1 UNK         0.0600 
    202 H202       -8.3183  -26.4782  -48.8553 H         1 UNK         0.0600 
    203 H203       -8.2425  -26.7736  -47.1261 H         1 UNK         0.0600 
    204 H204       -6.8798  -27.2092  -48.1561 H         1 UNK         0.0600 
    205 H205       -5.7234  -22.8767  -47.9811 H         1 UNK         0.3000 
    206 H206       -4.3994  -21.8094  -49.3965 H         1 UNK         0.0600 
    207 H207       -6.3942  -21.6184  -50.8300 H         1 UNK         0.0600 
    208 H208       -6.0188  -23.1438  -51.6213 H         1 UNK         0.0600 
    209 H209       -4.9503  -21.7642  -51.8146 H         1 UNK         0.0600 
    210 H210       -3.3504  -24.0679  -48.2212 H         1 UNK         0.3000 
    211 H211       -1.6851  -25.5151  -48.1863 H         1 UNK         0.0600 
    212 H212       -0.3256  -23.5678  -48.9684 H         1 UNK         0.0600 
    213 H213        0.3199  -25.0834  -49.5789 H         1 UNK         0.0600 
    214 H214       -0.6008  -24.0293  -50.6440 H         1 UNK         0.0600 
    215 H215       -3.8992  -26.5800  -49.0495 H         1 UNK         0.3000 
    216 H216       -4.9959  -28.1251  -50.1969 H         1 UNK         0.0600 
    217 H217       -3.7873  -30.1386  -50.9683 H         1 UNK         0.0600 
    218 H218       -2.2495  -29.2890  -50.9100 H         1 UNK         0.0600 
    219 H219       -3.1415  -29.6090  -49.4233 H         1 UNK         0.0600 
    220 H220       -5.0300  -25.8476  -51.4296 H         1 UNK         0.3000 
    221 H221       -5.4837  -24.7076  -53.2363 H         1 UNK         0.0600 
    222 H222       -5.7230  -27.3666  -54.7283 H         1 UNK         0.0600 
    223 H223       -6.9819  -26.6524  -53.7204 H         1 UNK         0.0600 
    224 H224       -6.4588  -25.8372  -55.1831 H         1 UNK         0.0600 
    225 H225       -2.5496  -25.5407  -52.8063 H         1 UNK         0.3000 
    226 H226       -1.3733  -25.2813  -55.4760 H         1 UNK         0.0600 
    227 H227       -0.2747  -26.6425  -53.6881 H         1 UNK         0.0600 
    228 H228        0.7656  -25.3464  -54.2612 H         1 UNK         0.0600 
    229 H229       -0.0566  -25.1880  -52.7159 H         1 UNK         0.0600 
    230 H230       -2.2113  -23.1373  -52.7646 H         1 UNK         0.3000 
    231 H231       -0.6832  -20.8514  -53.7997 H         1 UNK         0.0600 
    232 H232       -1.5750  -19.6988  -51.8254 H         1 UNK         0.0600 
    233 H233       -0.9022  -21.2499  -51.3450 H         1 UNK         0.0600 
    234 H234       -2.6463  -21.0379  -51.4592 H         1 UNK         0.0600 
    235 H235       -1.7441  -21.0507  -55.9277 H         1 UNK         0.3000 
    236 H236       -4.5032  -20.3554  -56.3130 H         1 UNK         0.0600 
    237 H237       -3.1870  -21.6512  -57.9696 H         1 UNK         0.0600 
    238 H238       -3.8106  -20.1842  -58.7071 H         1 UNK         0.0600 
    239 H239       -2.1168  -20.2753  -58.2377 H         1 UNK         0.0600 
    240 H240       -1.6880  -18.4277  -55.7026 H         1 UNK         0.3000 
    241 H241       -1.2732  -16.2873  -55.4366 H         1 UNK         0.0600 
    242 H242       -1.6440  -15.8324  -59.2599 H         1 UNK         0.3800 
    243 H243       -1.7057  -17.3309  -58.3695 H         1 UNK         0.3800 
    244 H244       -3.0736  -14.6381  -54.9186 H         1 UNK         0.0800 
    245 H245       -4.2815  -15.7648  -55.4539 H         1 UNK         0.0800 
    246 H246       -2.7697  -14.2142  -52.5674 H         1 UNK         0.0800 
    247 H247       -1.3555  -15.2247  -52.7575 H         1 UNK         0.0800 
@<TRIPOS>BOND
     1    1    2 1    
     2    1  127 1    
     3    1  128 1    
     4    1  129 1    
     5    2    3 2    
     6    2    4 am   BACKBONE|DICT|INTERRES
     7    4    5 1    
     8    4  130 1    
     9    5    6 1    
    10    5   65 1    
    11    5  131 1    
    12    6    7 1    
    13    6  132 1    
    14    6  133 1    
    15    7    8 1    
    16    8    9 1    
    17    8  134 1    
    18    8  135 1    
    19    9   10 ar   
    20    9   14 ar   
    21   10   11 ar   
    22   10  136 1    
    23   11   12 ar   
    24   11  126 1    
    25   12   13 ar   
    26   12  137 1    
    27   13   14 ar   
    28   13   15 1    
    29   14  138 1    
    30   15   16 1    
    31   15  139 1    
    32   15  140 1    
    33   16   17 1    
    34   17   18 1    
    35   17  141 1    
    36   17  142 1    
    37   18   19 1    
    38   18   67 1    
    39   18  143 1    
    40   19   20 am   BACKBONE|DICT|INTERRES
    41   19  144 1    
    42   20   21 2    
    43   20   22 1    
    44   22   23 1    
    45   22   24 1    
    46   22  145 1    
    47   23  146 1    
    48   23  147 1    
    49   23  148 1    
    50   24   25 am   BACKBONE|DICT|INTERRES
    51   24  149 1    
    52   25   26 2    
    53   25   27 1    
    54   27   28 1    
    55   27   29 1    
    56   27  150 1    
    57   28  151 1    
    58   28  152 1    
    59   28  153 1    
    60   29   30 am   BACKBONE|DICT|INTERRES
    61   29  154 1    
    62   30   31 2    
    63   30   32 1    
    64   32   33 1    
    65   32   34 1    
    66   32  155 1    
    67   33  156 1    
    68   33  157 1    
    69   33  158 1    
    70   34   35 am   BACKBONE|DICT|INTERRES
    71   34  159 1    
    72   35   36 2    
    73   35   37 1    
    74   37   38 1    
    75   37   39 1    
    76   37  160 1    
    77   38  161 1    
    78   38  162 1    
    79   38  163 1    
    80   39   40 am   BACKBONE|DICT|INTERRES
    81   39  164 1    
    82   40   41 2    
    83   40   42 1    
    84   42   43 1    
    85   42   44 1    
    86   42  165 1    
    87   43  166 1    
    88   43  167 1    
    89   43  168 1    
    90   44   45 am   BACKBONE|DICT|INTERRES
    91   44  169 1    
    92   45   46 2    
    93   45   47 1    
    94   47   48 1    
    95   47   49 1    
    96   47  170 1    
    97   48  171 1    
    98   48  172 1    
    99   48  173 1    
   100   49   50 am   BACKBONE|DICT|INTERRES
   101   49  174 1    
   102   50   51 2    
   103   50   52 1    
   104   52   53 1    
   105   52   54 1    
   106   52  175 1    
   107   53  176 1    
   108   53  177 1    
   109   53  178 1    
   110   54   55 am   BACKBONE|DICT|INTERRES
   111   54  179 1    
   112   55   56 2    
   113   55   57 1    
   114   57   58 1    
   115   57   59 1    
   116   57  180 1    
   117   58  181 1    
   118   58  182 1    
   119   58  183 1    
   120   59   60 am   BACKBONE|DICT|INTERRES
   121   59  184 1    
   122   60   61 2    
   123   60   62 1    
   124   62   63 1    
   125   62   64 1    
   126   62  185 1    
   127   63  186 1    
   128   63  187 1    
   129   63  188 1    
   130   64   65 am   BACKBONE|DICT|INTERRES
   131   64  189 1    
   132   65   66 2    
   133   67   68 2    
   134   67   69 am   BACKBONE|DICT|INTERRES
   135   69   70 1    
   136   69  190 1    
   137   70   71 1    
   138   70   72 1    
   139   70  191 1    
   140   71  192 1    
   141   71  193 1    
   142   71  194 1    
   143   72   73 2    
   144   72   74 am   BACKBONE|DICT|INTERRES
   145   74   75 1    
   146   74  195 1    
   147   75   76 1    
   148   75   77 1    
   149   75  196 1    
   150   76  197 1    
   151   76  198 1    
   152   76  199 1    
   153   77   78 2    
   154   77   79 am   BACKBONE|DICT|INTERRES
   155   79   80 1    
   156   79  200 1    
   157   80   81 1    
   158   80   82 1    
   159   80  201 1    
   160   81  202 1    
   161   81  203 1    
   162   81  204 1    
   163   82   83 2    
   164   82   84 am   BACKBONE|DICT|INTERRES
   165   84   85 1    
   166   84  205 1    
   167   85   86 1    
   168   85   87 1    
   169   85  206 1    
   170   86  207 1    
   171   86  208 1    
   172   86  209 1    
   173   87   88 2    
   174   87   89 am   BACKBONE|DICT|INTERRES
   175   89   90 1    
   176   89  210 1    
   177   90   91 1    
   178   90   92 1    
   179   90  211 1    
   180   91  212 1    
   181   91  213 1    
   182   91  214 1    
   183   92   93 2    
   184   92   94 am   BACKBONE|DICT|INTERRES
   185   94   95 1    
   186   94  215 1    
   187   95   96 1    
   188   95   97 1    
   189   95  216 1    
   190   96  217 1    
   191   96  218 1    
   192   96  219 1    
   193   97   98 2    
   194   97   99 am   BACKBONE|DICT|INTERRES
   195   99  100 1    
   196   99  220 1    
   197  100  101 1    
   198  100  102 1    
   199  100  221 1    
   200  101  222 1    
   201  101  223 1    
   202  101  224 1    
   203  102  103 2    
   204  102  104 am   BACKBONE|DICT|INTERRES
   205  104  105 1    
   206  104  225 1    
   207  105  106 1    
   208  105  107 1    
   209  105  226 1    
   210  106  227 1    
   211  106  228 1    
   212  106  229 1    
   213  107  108 2    
   214  107  109 am   BACKBONE|DICT|INTERRES
   215  109  110 1    
   216  109  230 1    
   217  110  111 1    
   218  110  112 1    
   219  110  231 1    
   220  111  232 1    
   221  111  233 1    
   222  111  234 1    
   223  112  113 2    
   224  112  114 am   BACKBONE|DICT|INTERRES
   225  114  115 1    
   226  114  235 1    
   227  115  116 1    
   228  115  117 1    
   229  115  236 1    
   230  116  237 1    
   231  116  238 1    
   232  116  239 1    
   233  117  118 2    
   234  117  119 am   BACKBONE|DICT|INTERRES
   235  119  120 1    
   236  119  240 1    
   237  120  121 1    
   238  120  124 1    
   239  120  241 1    
   240  121  122 am   BACKBONE|DICT|INTERRES
   241  121  123 2    
   242  122  242 1    
   243  122  243 1    
   244  124  125 1    
   245  124  244 1    
   246  124  245 1    
   247  125  126 1    
   248  126  246 1    
   249  126  247 1    
@<TRIPOS>SUBSTRUCTURE
     1 UNK         1 GROUP             0       ****    0 ROOT    
