@<TRIPOS>MOLECULE
3R540
247   249    1
SMALL
USER_CHARGES


@<TRIPOS>ATOM
      1 CA          0.1455  -11.5206  -49.5923 C.3       0 UNK        -0.1800 
      2 C           1.6560  -11.6889  -49.6420 C.2       0 UNK         0.5000 
      3 O           2.3557  -11.1994  -48.7552 O.2       0 UNK        -0.5000 
      4 N           2.1638  -12.3928  -50.6655 N.am      1 UNK        -0.5000 
      5 CA          3.5970  -12.6442  -50.9078 C.3       1 UNK         0.1400 
      6 C6          3.8543  -13.1049  -52.3834 C.3       23 UNK        -0.0398 
      7 S7          4.9235  -14.5058  -52.9379 S.3       23 UNK        -0.2404 
      8 C8          5.0460  -15.8655  -51.7112 C.3       23 UNK        -0.0205 
      9 C9          3.7777  -16.6576  -51.3871 C.ar      23 UNK        -0.0193 
     10 C10         2.4878  -16.1994  -51.6749 C.ar      23 UNK        -0.1150 
     11 C11         1.3645  -16.9546  -51.3321 C.ar      23 UNK        -0.0193 
     12 C12         1.5337  -18.2008  -50.7228 C.ar      23 UNK        -0.1150 
     13 C13         2.8144  -18.6836  -50.4347 C.ar      23 UNK        -0.0193 
     14 C14         3.9248  -17.8982  -50.7581 C.ar      23 UNK        -0.1150 
     15 C15         3.0188  -20.0645  -49.8178 C.3       23 UNK        -0.0205 
     16 S16         2.3062  -20.2156  -48.1467 S.3       23 UNK        -0.2404 
     17 C17         0.6061  -20.7665  -48.5125 C.3       23 UNK        -0.0398 
     18 CA          0.1722  -21.9985  -47.6825 C.3       11 UNK         0.1400 
     19 N           0.0479  -21.7063  -46.2508 N.am      11 UNK        -0.5000 
     20 C          -0.2267  -22.6156  -45.3037 C.2       10 UNK         0.5000 
     21 O          -0.3011  -23.8258  -45.5187 O.2       10 UNK        -0.5000 
     22 CA         -0.5490  -22.0776  -43.8970 C.3       10 UNK         0.1400 
     23 CB          0.7319  -21.8084  -43.0935 C.3       10 UNK        -0.1800 
     24 N          -1.3825  -20.8730  -43.9465 N.am      10 UNK        -0.5000 
     25 C          -2.6463  -20.8568  -44.3948 C.2       9 UNK         0.5000 
     26 O          -3.2545  -21.8716  -44.7298 O.2       9 UNK        -0.5000 
     27 CA         -3.3395  -19.4896  -44.5356 C.3       9 UNK         0.1400 
     28 CB         -3.9827  -19.0669  -43.2072 C.3       9 UNK        -0.1800 
     29 N          -2.4319  -18.4435  -45.0047 N.am      9 UNK        -0.5000 
     30 C          -1.9034  -18.3856  -46.2352 C.2       8 UNK         0.5000 
     31 O          -2.2016  -19.1628  -47.1435 O.2       8 UNK        -0.5000 
     32 CA         -0.8305  -17.3061  -46.4833 C.3       8 UNK         0.1400 
     33 CB         -1.4784  -15.9805  -46.8965 C.3       8 UNK        -0.1800 
     34 N           0.0383  -17.0854  -45.3255 N.am      8 UNK        -0.5000 
     35 C           0.8518  -18.0171  -44.8087 C.2       7 UNK         0.5000 
     36 O           0.9756  -19.1455  -45.2791 O.2       7 UNK        -0.5000 
     37 CA          1.5919  -17.6581  -43.5097 C.3       7 UNK         0.1400 
     38 CB          2.8338  -16.7986  -43.7839 C.3       7 UNK        -0.1800 
     39 N           0.7111  -16.9761  -42.5631 N.am      7 UNK        -0.5000 
     40 C          -0.2871  -17.5786  -41.9017 C.2       6 UNK         0.5000 
     41 O          -0.5339  -18.7808  -41.9873 O.2       6 UNK        -0.5000 
     42 CA         -1.1831  -16.6799  -41.0299 C.3       6 UNK         0.1400 
     43 CB         -0.5704  -16.4980  -39.6334 C.3       6 UNK        -0.1800 
     44 N          -1.4149  -15.3662  -41.6316 N.am      6 UNK        -0.5000 
     45 C          -2.1051  -15.1591  -42.7627 C.2       5 UNK         0.5000 
     46 O          -2.6617  -16.0532  -43.3966 O.2       5 UNK        -0.5000 
     47 CA         -2.1248  -13.7182  -43.3034 C.3       5 UNK         0.1400 
     48 CB         -3.2699  -12.9157  -42.6684 C.3       5 UNK        -0.1800 
     49 N          -0.8554  -13.0214  -43.0800 N.am      5 UNK        -0.5000 
     50 C           0.3034  -13.3724  -43.6506 C.2       4 UNK         0.5000 
     51 O           0.4232  -14.3063  -44.4487 O.2       4 UNK        -0.5000 
     52 CA          1.5435  -12.5889  -43.2133 C.3       4 UNK         0.1400 
     53 CB          2.2075  -13.2580  -41.9955 C.3       4 UNK        -0.1800 
     54 N           2.4689  -12.5360  -44.3368 N.am      4 UNK        -0.5000 
     55 C           3.4706  -11.6633  -44.4795 C.2       3 UNK         0.5000 
     56 O           3.7649  -10.8286  -43.6219 O.2       3 UNK        -0.5000 
     57 CA          4.2450  -11.6764  -45.8124 C.3       3 UNK         0.1400 
     58 CB          5.7719  -11.5860  -45.6084 C.3       3 UNK        -0.1800 
     59 N           3.8879  -12.7672  -46.7279 N.am      3 UNK        -0.5000 
     60 C           4.1972  -14.0715  -46.6388 C.2       2 UNK         0.5000 
     61 O           4.7670  -14.5748  -45.6713 O.2       2 UNK        -0.5000 
     62 CA          3.8155  -14.9736  -47.8362 C.3       2 UNK         0.1400 
     63 CB          2.6470  -15.9019  -47.4708 C.3       2 UNK        -0.1800 
     64 N           3.4481  -14.2327  -49.0431 N.am      2 UNK        -0.5000 
     65 C           4.2601  -13.4550  -49.7758 C.2       1 UNK         0.5000 
     66 O           5.4621  -13.3130  -49.5467 O.2       1 UNK        -0.5000 
     67 C          -1.1334  -22.5931  -48.2516 C.2       11 UNK         0.5000 
     68 O          -1.0751  -23.5832  -48.9791 O.2       11 UNK        -0.5000 
     69 N          -2.2849  -22.0072  -47.8889 N.am      12 UNK        -0.5000 
     70 CA         -3.6114  -22.4868  -48.2830 C.3       12 UNK         0.1400 
     71 CB         -4.6858  -21.4725  -47.8708 C.3       12 UNK        -0.1800 
     72 C          -3.9312  -23.8798  -47.7209 C.2       12 UNK         0.5000 
     73 O          -4.4548  -24.7155  -48.4545 O.2       12 UNK        -0.5000 
     74 N          -3.5776  -24.1221  -46.4519 N.am      13 UNK        -0.5000 
     75 CA         -3.7060  -25.4189  -45.7876 C.3       13 UNK         0.1400 
     76 CB         -3.3684  -25.2760  -44.2962 C.3       13 UNK        -0.1800 
     77 C          -2.8411  -26.5057  -46.4512 C.2       13 UNK         0.5000 
     78 O          -3.3372  -27.6060  -46.6947 O.2       13 UNK        -0.5000 
     79 N          -1.5884  -26.1631  -46.7865 N.am      14 UNK        -0.5000 
     80 CA         -0.6594  -27.0230  -47.5254 C.3       14 UNK         0.1400 
     81 CB          0.7325  -26.3735  -47.5469 C.3       14 UNK        -0.1800 
     82 C          -1.1398  -27.3393  -48.9562 C.2       14 UNK         0.5000 
     83 O          -0.9613  -28.4642  -49.4240 O.2       14 UNK        -0.5000 
     84 N          -1.7757  -26.3561  -49.6063 N.am      15 UNK        -0.5000 
     85 CA         -2.4080  -26.4779  -50.9209 C.3       15 UNK         0.1400 
     86 CB         -2.5204  -25.0770  -51.5459 C.3       15 UNK        -0.1800 
     87 C          -3.7925  -27.1592  -50.8864 C.2       15 UNK         0.5000 
     88 O          -4.3979  -27.3192  -51.9459 O.2       15 UNK        -0.5000 
     89 N          -4.2979  -27.5078  -49.6925 N.am      16 UNK        -0.5000 
     90 CA         -5.6222  -28.0843  -49.4242 C.3       16 UNK         0.1400 
     91 CB         -5.7020  -29.5283  -49.9609 C.3       16 UNK        -0.1800 
     92 C          -6.7814  -27.1901  -49.9213 C.2       16 UNK         0.5000 
     93 O          -7.7937  -27.6958  -50.4085 O.2       16 UNK        -0.5000 
     94 N          -6.5850  -25.8684  -49.8081 N.am      17 UNK        -0.5000 
     95 CA         -7.4528  -24.7702  -50.2435 C.3       17 UNK         0.1400 
     96 CB         -8.8001  -24.8012  -49.4933 C.3       17 UNK        -0.1800 
     97 C          -7.6317  -24.6540  -51.7739 C.2       17 UNK         0.5000 
     98 O          -8.4804  -23.8800  -52.2197 O.2       17 UNK        -0.5000 
     99 N          -6.8297  -25.3856  -52.5623 N.am      18 UNK        -0.5000 
    100 CA        -6.8606  -25.3484  -54.0276 C.3       18 UNK         0.1400 
    101 CB        -6.3096  -26.6736  -54.5766 C.3       18 UNK        -0.1800 
    102 C         -6.0808  -24.1566  -54.6184 C.2       18 UNK         0.5000 
    103 O         -6.2400  -23.8621  -55.8040 O.2       18 UNK        -0.5000 
    104 N         -5.2515  -23.4998  -53.8001 N.am      19 UNK        -0.5000 
    105 CA        -4.4213  -22.3550  -54.1555 C.3       19 UNK         0.1400 
    106 CB        -3.1444  -22.8406  -54.8718 C.3       19 UNK        -0.1800 
    107 C         -4.0954  -21.5537  -52.8840 C.2       19 UNK         0.5000 
    108 O         -4.5056  -21.9462  -51.7879 O.2       19 UNK        -0.5000 
    109 N         -3.3486  -20.4565  -53.0660 N.am      20 UNK        -0.5000 
    110 CA        -2.8925  -19.5106  -52.0447 C.3       20 UNK         0.1400 
    111 CB        -1.9186  -20.1824  -51.0538 C.3       20 UNK        -0.1800 
    112 C         -4.0551  -18.7376  -51.3858 C.2       20 UNK         0.5000 
    113 O         -4.9664  -18.3184  -52.1021 O.2       20 UNK        -0.5000 
    114 N         -3.9705  -18.5024  -50.0655 N.am      21 UNK        -0.5000 
    115 CA        -4.8488  -17.6368  -49.2629 C.3       21 UNK         0.1400 
    116 CB        -6.2935  -18.1812  -49.2223 C.3       21 UNK        -0.1800 
    117 C         -4.7756  -16.1554  -49.6994 C.2       21 UNK         0.5000 
    118 O         -5.7795  -15.4414  -49.6572 O.2       21 UNK        -0.5000 
    119 N         -3.5823  -15.7347  -50.1369 N.am      22 UNK        -0.5000 
    120 CA        -3.2626  -14.3782  -50.5962 C.3       22 UNK         0.1400 
    121 C         -3.2946  -13.2939  -49.4788 C.2       22 UNK         0.5000 
    122 N         -3.3928  -12.0239  -49.8499 N.am      22 UNK        -0.7600 
    123 O         -3.2189  -13.5792  -48.2867 O.2       22 UNK        -0.5000 
    124 C124       -1.9383  -14.3618  -51.4058 C.3       23 UNK        -0.0398 
    125 S125       -0.4870  -15.0591  -50.5309 S.3       23 UNK        -0.2404 
    126 C126       -0.0230  -16.4197  -51.6493 C.3       23 UNK        -0.0205 
    127 H127       -0.1127  -10.4962  -49.3246 H         1 UNK         0.0600 
    128 H128       -0.2825  -12.1885  -48.8444 H         1 UNK         0.0600 
    129 H129       -0.3142  -11.7420  -50.5548 H         1 UNK         0.0600 
    130 H130        1.5273  -12.7838  -51.3451 H         1 UNK         0.3000 
    131 H131        4.0686  -11.6621  -50.8217 H         1 UNK         0.0600 
    132 H132        4.2579  -12.2402  -52.9124 H         1 UNK         0.0800 
    133 H133        2.9002  -13.2605  -52.8872 H         1 UNK         0.0800 
    134 H134        5.7522  -16.5727  -52.1489 H         1 UNK         0.0800 
    135 H135        5.5364  -15.5424  -50.7968 H         1 UNK         0.0800 
    136 H136        2.3341  -15.2524  -52.1610 H         1 UNK         0.1150 
    137 H137        0.6695  -18.7958  -50.4783 H         1 UNK         0.1150 
    138 H138        4.9176  -18.2629  -50.5342 H         1 UNK         0.1150 
    139 H139        2.6116  -20.8272  -50.4824 H         1 UNK         0.0800 
    140 H140        4.0846  -20.2842  -49.7400 H         1 UNK         0.0800 
    141 H141        0.5366  -20.9978  -49.5761 H         1 UNK         0.0800 
    142 H142       -0.0650  -19.9264  -48.3416 H         1 UNK         0.0800 
    143 H143        0.9421  -22.7656  -47.7893 H         1 UNK         0.0600 
    144 H144        0.1788  -20.7373  -45.9706 H         1 UNK         0.3000 
    145 H145       -1.1141  -22.8491  -43.3701 H         1 UNK         0.0600 
    146 H146        0.4998  -21.4583  -42.0876 H         1 UNK         0.0600 
    147 H147        1.3237  -22.7189  -42.9929 H         1 UNK         0.0600 
    148 H148        1.3645  -21.0609  -43.5701 H         1 UNK         0.0600 
    149 H149       -0.9584  -20.0083  -43.6309 H         1 UNK         0.3000 
    150 H150       -4.1361  -19.5962  -45.2744 H         1 UNK         0.0600 
    151 H151       -4.6817  -19.8257  -42.8533 H         1 UNK         0.0600 
    152 H152       -4.5410  -18.1374  -43.3183 H         1 UNK         0.0600 
    153 H153       -3.2367  -18.9183  -42.4267 H         1 UNK         0.0600 
    154 H154       -2.2081  -17.7065  -44.3432 H         1 UNK         0.3000 
    155 H155       -0.2019  -17.6463  -47.3089 H         1 UNK         0.0600 
    156 H156       -2.0994  -16.1133  -47.7813 H         1 UNK         0.0600 
    157 H157       -0.7281  -15.2279  -47.1392 H         1 UNK         0.0600 
    158 H158       -2.1139  -15.5767  -46.1084 H         1 UNK         0.0600 
    159 H159        0.0193  -16.1604  -44.9063 H         1 UNK         0.3000 
    160 H160        1.9286  -18.5900  -43.0505 H         1 UNK         0.0600 
    161 H161        2.5793  -15.8499  -44.2559 H         1 UNK         0.0600 
    162 H162        3.5267  -17.3186  -44.4462 H         1 UNK         0.0600 
    163 H163        3.3738  -16.5804  -42.8627 H         1 UNK         0.0600 
    164 H164        0.8190  -15.9775  -42.4771 H         1 UNK         0.3000 
    165 H165       -2.1484  -17.1781  -40.9183 H         1 UNK         0.0600 
    166 H166       -1.2322  -15.9244  -38.9842 H         1 UNK         0.0600 
    167 H167       -0.4023  -17.4629  -39.1530 H         1 UNK         0.0600 
    168 H168        0.3891  -15.9812  -39.6769 H         1 UNK         0.0600 
    169 H169       -0.9962  -14.5723  -41.1708 H         1 UNK         0.3000 
    170 H170       -2.2990  -13.7689  -44.3804 H         1 UNK         0.0600 
    171 H171       -4.2294  -13.4064  -42.8373 H         1 UNK         0.0600 
    172 H172       -3.1406  -12.8094  -41.5906 H         1 UNK         0.0600 
    173 H173       -3.3373  -11.9167  -43.0993 H         1 UNK         0.0600 
    174 H174       -0.8739  -12.2448  -42.4344 H         1 UNK         0.3000 
    175 H175        1.2403  -11.5725  -42.9533 H         1 UNK         0.0600 
    176 H176        2.5676  -14.2589  -42.2329 H         1 UNK         0.0600 
    177 H177        3.0575  -12.6770  -41.6380 H         1 UNK         0.0600 
    178 H178        1.5075  -13.3471  -41.1639 H         1 UNK         0.0600 
    179 H179        2.2641  -13.1866  -45.0841 H         1 UNK         0.3000 
    180 H180        3.9400  -10.7653  -46.3292 H         1 UNK         0.0600 
    181 H181        6.1535  -12.4177  -45.0159 H         1 UNK         0.0600 
    182 H182        6.0428  -10.6672  -45.0872 H         1 UNK         0.0600 
    183 H183        6.2979  -11.5827  -46.5632 H         1 UNK         0.0600 
    184 H184        3.3872  -12.4590  -47.5556 H         1 UNK         0.3000 
    185 H185        4.6839  -15.5902  -48.0762 H         1 UNK         0.0600 
    186 H186        1.7739  -15.3400  -47.1370 H         1 UNK         0.0600 
    187 H187        2.3456  -16.5182  -48.3179 H         1 UNK         0.0600 
    188 H188        2.9292  -16.5832  -46.6695 H         1 UNK         0.0600 
    189 H189        2.4764  -14.2801  -49.3135 H         1 UNK         0.3000 
    190 H190       -2.2526  -21.1643  -47.3254 H         1 UNK         0.3000 
    191 H191       -3.6242  -22.5666  -49.3702 H         1 UNK         0.0600 
    192 H192       -4.8221  -21.4352  -46.7909 H         1 UNK         0.0600 
    193 H193       -5.6489  -21.7304  -48.3128 H         1 UNK         0.0600 
    194 H194       -4.4283  -20.4710  -48.2075 H         1 UNK         0.0600 
    195 H195       -3.2168  -23.3535  -45.8924 H         1 UNK         0.3000 
    196 H196       -4.7497  -25.7295  -45.8696 H         1 UNK         0.0600 
    197 H197       -3.4985  -26.2248  -43.7745 H         1 UNK         0.0600 
    198 H198       -4.0190  -24.5465  -43.8135 H         1 UNK         0.0600 
    199 H199       -2.3378  -24.9562  -44.1432 H         1 UNK         0.0600 
    200 H200       -1.2435  -25.2462  -46.5160 H         1 UNK         0.3000 
    201 H201       -0.5833  -27.9694  -46.9862 H         1 UNK         0.0600 
    202 H202        1.1072  -26.2118  -46.5360 H         1 UNK         0.0600 
    203 H203        0.7200  -25.4095  -48.0557 H         1 UNK         0.0600 
    204 H204        1.4524  -27.0090  -48.0639 H         1 UNK         0.0600 
    205 H205       -1.8143  -25.4377  -49.1748 H         1 UNK         0.3000 
    206 H206       -1.7661  -27.0844  -51.5627 H         1 UNK         0.0600 
    207 H207       -1.5441  -24.5990  -51.6266 H         1 UNK         0.0600 
    208 H208       -2.9397  -25.1292  -52.5510 H         1 UNK         0.0600 
    209 H209       -3.1641  -24.4240  -50.9561 H         1 UNK         0.0600 
    210 H210       -3.7433  -27.3046  -48.8703 H         1 UNK         0.3000 
    211 H211       -5.7191  -28.1291  -48.3386 H         1 UNK         0.0600 
    212 H212       -5.6675  -29.5582  -51.0504 H         1 UNK         0.0600 
    213 H213       -6.6289  -30.0110  -49.6495 H         1 UNK         0.0600 
    214 H214       -4.8789  -30.1344  -49.5824 H         1 UNK         0.0600 
    215 H215       -5.7138  -25.5630  -49.3731 H         1 UNK         0.3000 
    216 H216       -6.9352  -23.8582  -49.9420 H         1 UNK         0.0600 
    217 H217       -9.3778  -23.8967  -49.6871 H         1 UNK         0.0600 
    218 H218       -8.6495  -24.8619  -48.4155 H         1 UNK         0.0600 
    219 H219       -9.4140  -25.6497  -49.7960 H         1 UNK         0.0600 
    220 H220       -6.1532  -26.0113  -52.1404 H         1 UNK         0.3000 
    221 H221       -7.8982  -25.2579  -54.3557 H         1 UNK         0.0600 
    222 H222       -5.2436  -26.7809  -54.3752 H         1 UNK         0.0600 
    223 H223       -6.8235  -27.5298  -54.1389 H         1 UNK         0.0600 
    224 H224       -6.4425  -26.7315  -55.6575 H         1 UNK         0.0600 
    225 H225       -5.2252  -23.7442  -52.8187 H         1 UNK         0.3000 
    226 H226       -4.9861  -21.6997  -54.8218 H         1 UNK         0.0600 
    227 H227       -3.3836  -23.4456  -55.7464 H         1 UNK         0.0600 
    228 H228       -2.5410  -22.0029  -55.2221 H         1 UNK         0.0600 
    229 H229       -2.5178  -23.4416  -54.2127 H         1 UNK         0.0600 
    230 H230       -3.0988  -20.2097  -54.0129 H         1 UNK         0.3000 
    231 H231       -2.3222  -18.7554  -52.5864 H         1 UNK         0.0600 
    232 H232       -1.0770  -20.6327  -51.5802 H         1 UNK         0.0600 
    233 H233       -2.4062  -20.9680  -50.4824 H         1 UNK         0.0600 
    234 H234       -1.5080  -19.4643  -50.3452 H         1 UNK         0.0600 
    235 H235       -3.1966  -18.9103  -49.5585 H         1 UNK         0.3000 
    236 H236       -4.4592  -17.6711  -48.2444 H         1 UNK         0.0600 
    237 H237       -6.8934  -17.6356  -48.4933 H         1 UNK         0.0600 
    238 H238       -6.7913  -18.0861  -50.1875 H         1 UNK         0.0600 
    239 H239       -6.3188  -19.2320  -48.9380 H         1 UNK         0.0600 
    240 H240       -2.8044  -16.3742  -50.1052 H         1 UNK         0.3000 
    241 H241       -4.0592  -14.1031  -51.2905 H         1 UNK         0.0600 
    242 H242       -3.4133  -11.3121  -49.1368 H         1 UNK         0.3800 
    243 H243       -3.4732  -11.7542  -50.8178 H         1 UNK         0.3800 
    244 H244       -2.0939  -14.9165  -52.3318 H         1 UNK         0.0800 
    245 H245       -1.6936  -13.3485  -51.7261 H         1 UNK         0.0800 
    246 H246       -0.0357  -16.0691  -52.6825 H         1 UNK         0.0800 
    247 H247       -0.7681  -17.2116  -51.5790 H         1 UNK         0.0800 
@<TRIPOS>BOND
     1    1    2 1    
     2    1  127 1    
     3    1  128 1    
     4    1  129 1    
     5    2    3 2    
     6    2    4 am   BACKBONE|DICT|INTERRES
     7    4    5 1    
     8    4  130 1    
     9    5    6 1    
    10    5   65 1    
    11    5  131 1    
    12    6    7 1    
    13    6  132 1    
    14    6  133 1    
    15    7    8 1    
    16    8    9 1    
    17    8  134 1    
    18    8  135 1    
    19    9   10 ar   
    20    9   14 ar   
    21   10   11 ar   
    22   10  136 1    
    23   11   12 ar   
    24   11  126 1    
    25   12   13 ar   
    26   12  137 1    
    27   13   14 ar   
    28   13   15 1    
    29   14  138 1    
    30   15   16 1    
    31   15  139 1    
    32   15  140 1    
    33   16   17 1    
    34   17   18 1    
    35   17  141 1    
    36   17  142 1    
    37   18   19 1    
    38   18   67 1    
    39   18  143 1    
    40   19   20 am   BACKBONE|DICT|INTERRES
    41   19  144 1    
    42   20   21 2    
    43   20   22 1    
    44   22   23 1    
    45   22   24 1    
    46   22  145 1    
    47   23  146 1    
    48   23  147 1    
    49   23  148 1    
    50   24   25 am   BACKBONE|DICT|INTERRES
    51   24  149 1    
    52   25   26 2    
    53   25   27 1    
    54   27   28 1    
    55   27   29 1    
    56   27  150 1    
    57   28  151 1    
    58   28  152 1    
    59   28  153 1    
    60   29   30 am   BACKBONE|DICT|INTERRES
    61   29  154 1    
    62   30   31 2    
    63   30   32 1    
    64   32   33 1    
    65   32   34 1    
    66   32  155 1    
    67   33  156 1    
    68   33  157 1    
    69   33  158 1    
    70   34   35 am   BACKBONE|DICT|INTERRES
    71   34  159 1    
    72   35   36 2    
    73   35   37 1    
    74   37   38 1    
    75   37   39 1    
    76   37  160 1    
    77   38  161 1    
    78   38  162 1    
    79   38  163 1    
    80   39   40 am   BACKBONE|DICT|INTERRES
    81   39  164 1    
    82   40   41 2    
    83   40   42 1    
    84   42   43 1    
    85   42   44 1    
    86   42  165 1    
    87   43  166 1    
    88   43  167 1    
    89   43  168 1    
    90   44   45 am   BACKBONE|DICT|INTERRES
    91   44  169 1    
    92   45   46 2    
    93   45   47 1    
    94   47   48 1    
    95   47   49 1    
    96   47  170 1    
    97   48  171 1    
    98   48  172 1    
    99   48  173 1    
   100   49   50 am   BACKBONE|DICT|INTERRES
   101   49  174 1    
   102   50   51 2    
   103   50   52 1    
   104   52   53 1    
   105   52   54 1    
   106   52  175 1    
   107   53  176 1    
   108   53  177 1    
   109   53  178 1    
   110   54   55 am   BACKBONE|DICT|INTERRES
   111   54  179 1    
   112   55   56 2    
   113   55   57 1    
   114   57   58 1    
   115   57   59 1    
   116   57  180 1    
   117   58  181 1    
   118   58  182 1    
   119   58  183 1    
   120   59   60 am   BACKBONE|DICT|INTERRES
   121   59  184 1    
   122   60   61 2    
   123   60   62 1    
   124   62   63 1    
   125   62   64 1    
   126   62  185 1    
   127   63  186 1    
   128   63  187 1    
   129   63  188 1    
   130   64   65 am   BACKBONE|DICT|INTERRES
   131   64  189 1    
   132   65   66 2    
   133   67   68 2    
   134   67   69 am   BACKBONE|DICT|INTERRES
   135   69   70 1    
   136   69  190 1    
   137   70   71 1    
   138   70   72 1    
   139   70  191 1    
   140   71  192 1    
   141   71  193 1    
   142   71  194 1    
   143   72   73 2    
   144   72   74 am   BACKBONE|DICT|INTERRES
   145   74   75 1    
   146   74  195 1    
   147   75   76 1    
   148   75   77 1    
   149   75  196 1    
   150   76  197 1    
   151   76  198 1    
   152   76  199 1    
   153   77   78 2    
   154   77   79 am   BACKBONE|DICT|INTERRES
   155   79   80 1    
   156   79  200 1    
   157   80   81 1    
   158   80   82 1    
   159   80  201 1    
   160   81  202 1    
   161   81  203 1    
   162   81  204 1    
   163   82   83 2    
   164   82   84 am   BACKBONE|DICT|INTERRES
   165   84   85 1    
   166   84  205 1    
   167   85   86 1    
   168   85   87 1    
   169   85  206 1    
   170   86  207 1    
   171   86  208 1    
   172   86  209 1    
   173   87   88 2    
   174   87   89 am   BACKBONE|DICT|INTERRES
   175   89   90 1    
   176   89  210 1    
   177   90   91 1    
   178   90   92 1    
   179   90  211 1    
   180   91  212 1    
   181   91  213 1    
   182   91  214 1    
   183   92   93 2    
   184   92   94 am   BACKBONE|DICT|INTERRES
   185   94   95 1    
   186   94  215 1    
   187   95   96 1    
   188   95   97 1    
   189   95  216 1    
   190   96  217 1    
   191   96  218 1    
   192   96  219 1    
   193   97   98 2    
   194   97   99 am   BACKBONE|DICT|INTERRES
   195   99  100 1    
   196   99  220 1    
   197  100  101 1    
   198  100  102 1    
   199  100  221 1    
   200  101  222 1    
   201  101  223 1    
   202  101  224 1    
   203  102  103 2    
   204  102  104 am   BACKBONE|DICT|INTERRES
   205  104  105 1    
   206  104  225 1    
   207  105  106 1    
   208  105  107 1    
   209  105  226 1    
   210  106  227 1    
   211  106  228 1    
   212  106  229 1    
   213  107  108 2    
   214  107  109 am   BACKBONE|DICT|INTERRES
   215  109  110 1    
   216  109  230 1    
   217  110  111 1    
   218  110  112 1    
   219  110  231 1    
   220  111  232 1    
   221  111  233 1    
   222  111  234 1    
   223  112  113 2    
   224  112  114 am   BACKBONE|DICT|INTERRES
   225  114  115 1    
   226  114  235 1    
   227  115  116 1    
   228  115  117 1    
   229  115  236 1    
   230  116  237 1    
   231  116  238 1    
   232  116  239 1    
   233  117  118 2    
   234  117  119 am   BACKBONE|DICT|INTERRES
   235  119  120 1    
   236  119  240 1    
   237  120  121 1    
   238  120  124 1    
   239  120  241 1    
   240  121  122 am   BACKBONE|DICT|INTERRES
   241  121  123 2    
   242  122  242 1    
   243  122  243 1    
   244  124  125 1    
   245  124  244 1    
   246  124  245 1    
   247  125  126 1    
   248  126  246 1    
   249  126  247 1    
@<TRIPOS>SUBSTRUCTURE
     1 UNK         1 GROUP             0       ****    0 ROOT    
