@<TRIPOS>MOLECULE
3R540
247   249    1
SMALL
USER_CHARGES


@<TRIPOS>ATOM
      1 CA          5.0671  -17.3531  -48.5717 C.3       0 UNK        -0.1800 
      2 C           4.3796  -16.4729  -47.5376 C.2       0 UNK         0.5000 
      3 O           4.5827  -16.6620  -46.3392 O.2       0 UNK        -0.5000 
      4 N           3.5601  -15.5209  -47.9963 N.am      1 UNK        -0.5000 
      5 CA          2.8035  -14.5963  -47.1483 C.3       1 UNK         0.1400 
      6 C6          1.6110  -13.9551  -47.9012 C.3       23 UNK        -0.0398 
      7 S7          0.3908  -15.1980  -48.4367 S.3       23 UNK        -0.2404 
      8 C8          0.7302  -15.2855  -50.2202 C.3       23 UNK        -0.0205 
      9 C9          0.2064  -16.5898  -50.7917 C.ar      23 UNK        -0.0193 
     10 C10        -1.0472  -16.6475  -51.4048 C.ar      23 UNK        -0.1150 
     11 C11        -1.5292  -17.8552  -51.9174 C.ar      23 UNK        -0.0193 
     12 C12        -0.7588  -19.0145  -51.7795 C.ar      23 UNK        -0.1150 
     13 C13         0.4977  -18.9730  -51.1661 C.ar      23 UNK        -0.0193 
     14 C14         0.9808  -17.7476  -50.6935 C.ar      23 UNK        -0.1150 
     15 C15         1.3115  -20.2623  -51.0611 C.3       23 UNK        -0.0205 
     16 S16         2.5116  -20.3420  -49.6818 S.3       23 UNK        -0.2404 
     17 C17         1.4824  -20.0689  -48.1975 C.3       23 UNK        -0.0398 
     18 CA          0.8314  -21.3690  -47.6597 C.3       11 UNK         0.1400 
     19 N           0.7921  -21.4247  -46.1950 N.am      11 UNK        -0.5000 
     20 C           0.4402  -22.5098  -45.4879 C.2       10 UNK         0.5000 
     21 O           0.1596  -23.5956  -45.9961 O.2       10 UNK        -0.5000 
     22 CA          0.3313  -22.3448  -43.9609 C.3       10 UNK         0.1400 
     23 CB          1.7164  -22.4034  -43.3008 C.3       10 UNK        -0.1800 
     24 N          -0.3496  -21.1081  -43.5768 N.am      10 UNK        -0.5000 
     25 C          -1.6247  -20.8201  -43.8743 C.2       9 UNK         0.5000 
     26 O          -2.3805  -21.5913  -44.4629 O.2       9 UNK        -0.5000 
     27 CA         -2.1275  -19.4160  -43.4988 C.3       9 UNK         0.1400 
     28 CB         -2.5663  -19.3597  -42.0279 C.3       9 UNK        -0.1800 
     29 N          -1.1259  -18.3826  -43.7558 N.am      9 UNK        -0.5000 
     30 C          -0.6811  -18.0407  -44.9736 C.2       8 UNK         0.5000 
     31 O          -1.0834  -18.5464  -46.0219 O.2       8 UNK        -0.5000 
     32 CA          0.4443  -16.9934  -45.0104 C.3       8 UNK         0.1400 
     33 CB         -0.1192  -15.5840  -44.7630 C.3       8 UNK        -0.1800 
     34 N           1.4902  -17.2831  -44.0279 N.am      8 UNK        -0.5000 
     35 C           2.2917  -18.3594  -44.0776 C.2       7 UNK         0.5000 
     36 O           2.2474  -19.2004  -44.9740 O.2       7 UNK        -0.5000 
     37 CA          3.2630  -18.5722  -42.9002 C.3       7 UNK         0.1400 
     38 CB          4.5924  -17.8486  -43.1566 C.3       7 UNK        -0.1800 
     39 N           2.7202  -18.1309  -41.6165 N.am      7 UNK        -0.5000 
     40 C           1.6037  -18.5982  -41.0390 C.2       6 UNK         0.5000 
     41 O           0.9300  -19.5170  -41.5038 O.2       6 UNK        -0.5000 
     42 CA          1.1382  -17.8870  -39.7522 C.3       6 UNK         0.1400 
     43 CB          1.5479  -18.6963  -38.5131 C.3       6 UNK        -0.1800 
     44 N           1.6570  -16.5196  -39.6291 N.am      6 UNK        -0.5000 
     45 C           1.3406  -15.5094  -40.4502 C.2       5 UNK         0.5000 
     46 O           0.5416  -15.6115  -41.3842 O.2       5 UNK        -0.5000 
     47 CA          2.1259  -14.2048  -40.2510 C.3       5 UNK         0.1400 
     48 CB          3.3684  -14.2000  -41.1525 C.3       5 UNK        -0.1800 
     49 N           1.3099  -13.0369  -40.5681 N.am      5 UNK        -0.5000 
     50 C           0.4301  -12.4822  -39.7244 C.2       4 UNK         0.5000 
     51 O           0.2166  -12.9195  -38.5916 O.2       4 UNK        -0.5000 
     52 CA         -0.3382  -11.2353  -40.2202 C.3       4 UNK         0.1400 
     53 CB         -0.7103  -10.2735  -39.0720 C.3       4 UNK        -0.1800 
     54 N           0.3300  -10.5063  -41.3061 N.am      4 UNK        -0.5000 
     55 C           1.5324   -9.9117  -41.2799 C.2       3 UNK         0.5000 
     56 O           2.2781   -9.8844  -40.2989 O.2       3 UNK        -0.5000 
     57 CA          1.9814   -9.2574  -42.6022 C.3       3 UNK         0.1400 
     58 CB          2.5671   -7.8558  -42.3612 C.3       3 UNK        -0.1800 
     59 N           2.9557  -10.0557  -43.3531 N.am      3 UNK        -0.5000 
     60 C           2.8144  -11.3312  -43.7368 C.2       2 UNK         0.5000 
     61 O           1.8611  -12.0519  -43.4221 O.2       2 UNK        -0.5000 
     62 CA          3.9080  -11.8911  -44.6596 C.3       2 UNK         0.1400 
     63 CB          5.1711  -12.3080  -43.8869 C.3       2 UNK        -0.1800 
     64 N           3.3408  -13.0358  -45.3593 N.am      2 UNK        -0.5000 
     65 C           3.7098  -13.5002  -46.5551 C.2       1 UNK         0.5000 
     66 O           4.6693  -13.0673  -47.1985 O.2       1 UNK        -0.5000 
     67 C          -0.5680  -21.5846  -48.2672 C.2       11 UNK         0.5000 
     68 O          -0.7117  -22.3976  -49.1789 O.2       11 UNK        -0.5000 
     69 N          -1.5823  -20.8967  -47.7211 N.am      12 UNK        -0.5000 
     70 CA         -2.9804  -21.0428  -48.1249 C.3       12 UNK         0.1400 
     71 CB         -3.8509  -20.0073  -47.4006 C.3       12 UNK        -0.1800 
     72 C          -3.5186  -22.4682  -47.9067 C.2       12 UNK         0.5000 
     73 O          -4.1859  -22.9963  -48.7949 O.2       12 UNK        -0.5000 
     74 N          -3.1898  -23.0827  -46.7622 N.am      13 UNK        -0.5000 
     75 CA         -3.5240  -24.4704  -46.4384 C.3       13 UNK         0.1400 
     76 CB         -3.1469  -24.7721  -44.9805 C.3       13 UNK        -0.1800 
     77 C          -2.8661  -25.4782  -47.3982 C.2       13 UNK         0.5000 
     78 O          -3.5505  -26.3757  -47.8916 O.2       13 UNK        -0.5000 
     79 N          -1.5711  -25.2830  -47.6900 N.am      14 UNK        -0.5000 
     80 CA         -0.8082  -26.0694  -48.6653 C.3       14 UNK         0.1400 
     81 CB          0.6730  -25.6672  -48.6031 C.3       14 UNK        -0.1800 
     82 C          -1.3515  -25.9358  -50.1020 C.2       14 UNK         0.5000 
     83 O          -1.3461  -26.9126  -50.8511 O.2       14 UNK        -0.5000 
     84 N          -1.8612  -24.7444  -50.4358 N.am      15 UNK        -0.5000 
     85 CA         -2.5480  -24.4164  -51.6839 C.3       15 UNK         0.1400 
     86 CB         -2.3498  -22.9193  -51.9728 C.3       15 UNK        -0.1800 
     87 C          -4.0425  -24.8129  -51.6953 C.2       15 UNK         0.5000 
     88 O          -4.7792  -24.3245  -52.5520 O.2       15 UNK        -0.5000 
     89 N          -4.4707  -25.6871  -50.7710 N.am      16 UNK        -0.5000 
     90 CA         -5.8108  -26.2746  -50.6629 C.3       16 UNK         0.1400 
     91 CB         -6.0952  -27.1970  -51.8677 C.3       16 UNK        -0.1800 
     92 C          -6.9061  -25.2123  -50.4430 C.2       16 UNK         0.5000 
     93 O          -7.8868  -25.1635  -51.1876 O.2       16 UNK        -0.5000 
     94 N          -6.6874  -24.3682  -49.4250 N.am      17 UNK        -0.5000 
     95 CA         -7.4631  -23.1732  -49.0786 C.3       17 UNK         0.1400 
     96 CB         -8.9246  -23.5169  -48.7202 C.3       17 UNK        -0.1800 
     97 C          -7.3265  -22.0992  -50.1742 C.2       17 UNK         0.5000 
     98 O          -8.3245  -21.6010  -50.6961 O.2       17 UNK        -0.5000 
     99 N          -6.0659  -21.8056  -50.5231 N.am      18 UNK        -0.5000 
    100 CA        -5.5619  -20.8461  -51.5138 C.3       18 UNK         0.1400 
    101 CB        -6.0384  -19.4175  -51.1903 C.3       18 UNK        -0.1800 
    102 C         -5.8411  -21.2002  -52.9883 C.2       18 UNK         0.5000 
    103 O         -5.0633  -20.7917  -53.8511 O.2       18 UNK        -0.5000 
    104 N         -6.9238  -21.9386  -53.2544 N.am      19 UNK        -0.5000 
    105 CA        -7.4999  -22.2305  -54.5668 C.3       19 UNK         0.1400 
    106 CB        -8.7040  -23.1647  -54.3751 C.3       19 UNK        -0.1800 
    107 C         -6.5401  -22.8113  -55.6219 C.2       19 UNK         0.5000 
    108 O         -6.6786  -22.4733  -56.7982 O.2       19 UNK        -0.5000 
    109 N         -5.5855  -23.6556  -55.2089 N.am      20 UNK        -0.5000 
    110 CA        -4.6321  -24.2978  -56.1183 C.3       20 UNK         0.1400 
    111 CB        -4.0087  -25.5236  -55.4331 C.3       20 UNK        -0.1800 
    112 C         -3.5293  -23.3462  -56.6210 C.2       20 UNK         0.5000 
    113 O         -2.9273  -23.6287  -57.6581 O.2       20 UNK        -0.5000 
    114 N         -3.2757  -22.2557  -55.8860 N.am      21 UNK        -0.5000 
    115 CA        -2.2464  -21.2656  -56.2019 C.3       21 UNK         0.1400 
    116 CB        -1.3939  -21.0168  -54.9490 C.3       21 UNK        -0.1800 
    117 C         -2.8603  -19.9459  -56.6916 C.2       21 UNK         0.5000 
    118 O         -2.3552  -19.3644  -57.6530 O.2       21 UNK        -0.5000 
    119 N         -3.9210  -19.4941  -56.0142 N.am      22 UNK        -0.5000 
    120 CA        -4.5460  -18.1746  -56.1889 C.3       22 UNK         0.1400 
    121 C         -5.9853  -18.2412  -56.7761 C.2       22 UNK         0.5000 
    122 N         -6.5136  -19.4041  -57.1365 N.am      22 UNK        -0.7600 
    123 O         -6.6355  -17.2108  -56.9302 O.2       22 UNK        -0.5000 
    124 C124       -4.5117  -17.3613  -54.8664 C.3       23 UNK        -0.0398 
    125 S125       -2.8143  -17.0885  -54.2431 S.3       23 UNK        -0.2404 
    126 C126       -2.8808  -17.9008  -52.6148 C.3       23 UNK        -0.0205 
    127 H127        4.7514  -17.1099  -49.5866 H         1 UNK         0.0600 
    128 H128        4.8302  -18.4010  -48.3864 H         1 UNK         0.0600 
    129 H129        6.1483  -17.2302  -48.5108 H         1 UNK         0.0600 
    130 H130        3.4683  -15.3811  -48.9906 H         1 UNK         0.3000 
    131 H131        2.4058  -15.1751  -46.3137 H         1 UNK         0.0600 
    132 H132        1.0838  -13.2522  -47.2534 H         1 UNK         0.0800 
    133 H133        1.9553  -13.3736  -48.7585 H         1 UNK         0.0800 
    134 H134        1.8024  -15.2148  -50.4058 H         1 UNK         0.0800 
    135 H135        0.2714  -14.4313  -50.7205 H         1 UNK         0.0800 
    136 H136       -1.6458  -15.7516  -51.4922 H         1 UNK         0.1150 
    137 H137       -1.1337  -19.9550  -52.1545 H         1 UNK         0.1150 
    138 H138        1.9534  -17.6891  -50.2268 H         1 UNK         0.1150 
    139 H139        0.6438  -21.1208  -50.9917 H         1 UNK         0.0800 
    140 H140        1.8619  -20.3877  -51.9941 H         1 UNK         0.0800 
    141 H141        0.7515  -19.2757  -48.3639 H         1 UNK         0.0800 
    142 H142        2.1692  -19.6640  -47.4558 H         1 UNK         0.0800 
    143 H143        1.4490  -22.2149  -47.9699 H         1 UNK         0.0600 
    144 H144        1.0565  -20.5783  -45.6992 H         1 UNK         0.3000 
    145 H145       -0.2604  -23.1788  -43.5778 H         1 UNK         0.0600 
    146 H146        1.6425  -22.3117  -42.2170 H         1 UNK         0.0600 
    147 H147        2.2090  -23.3525  -43.5156 H         1 UNK         0.0600 
    148 H148        2.3685  -21.6085  -43.6609 H         1 UNK         0.0600 
    149 H149        0.1854  -20.4381  -43.0317 H         1 UNK         0.3000 
    150 H150       -2.9988  -19.1983  -44.1197 H         1 UNK         0.0600 
    151 H151       -3.3437  -20.0978  -41.8267 H         1 UNK         0.0600 
    152 H152       -2.9747  -18.3811  -41.7754 H         1 UNK         0.0600 
    153 H153       -1.7390  -19.5635  -41.3479 H         1 UNK         0.0600 
    154 H154       -0.7081  -17.9429  -42.9488 H         1 UNK         0.3000 
    155 H155        0.8956  -17.0218  -46.0042 H         1 UNK         0.0600 
    156 H156        0.6661  -14.8293  -44.7592 H         1 UNK         0.0600 
    157 H157       -0.6416  -15.5178  -43.8082 H         1 UNK         0.0600 
    158 H158       -0.8316  -15.3100  -45.5419 H         1 UNK         0.0600 
    159 H159        1.5418  -16.6699  -43.2256 H         1 UNK         0.3000 
    160 H160        3.4655  -19.6417  -42.8227 H         1 UNK         0.0600 
    161 H161        4.4543  -16.7703  -43.2491 H         1 UNK         0.0600 
    162 H162        5.0519  -18.1997  -44.0814 H         1 UNK         0.0600 
    163 H163        5.3055  -18.0304  -42.3524 H         1 UNK         0.0600 
    164 H164        3.2149  -17.3853  -41.1514 H         1 UNK         0.3000 
    165 H165        0.0478  -17.8350  -39.7843 H         1 UNK         0.0600 
    166 H166        1.1598  -18.2441  -37.6002 H         1 UNK         0.0600 
    167 H167        1.1542  -19.7125  -38.5632 H         1 UNK         0.0600 
    168 H168        2.6321  -18.7686  -38.4190 H         1 UNK         0.0600 
    169 H169        2.3274  -16.3603  -38.8903 H         1 UNK         0.3000 
    170 H170        2.4545  -14.1383  -39.2114 H         1 UNK         0.0600 
    171 H171        4.0411  -15.0211  -40.9028 H         1 UNK         0.0600 
    172 H172        3.1001  -14.3029  -42.2049 H         1 UNK         0.0600 
    173 H173        3.9310  -13.2734  -41.0361 H         1 UNK         0.0600 
    174 H174        1.4007  -12.6570  -41.5044 H         1 UNK         0.3000 
    175 H175       -1.2697  -11.6139  -40.6432 H         1 UNK         0.0600 
    176 H176       -1.2649   -9.4117  -39.4432 H         1 UNK         0.0600 
    177 H177       -1.3421  -10.7684  -38.3335 H         1 UNK         0.0600 
    178 H178        0.1735   -9.9049  -38.5507 H         1 UNK         0.0600 
    179 H179       -0.1644  -10.5151  -42.1877 H         1 UNK         0.3000 
    180 H180        1.1025   -9.1384  -43.2391 H         1 UNK         0.0600 
    181 H181        3.4970   -7.8992  -41.7925 H         1 UNK         0.0600 
    182 H182        1.8691   -7.2318  -41.8014 H         1 UNK         0.0600 
    183 H183        2.7731   -7.3460  -43.3025 H         1 UNK         0.0600 
    184 H184        3.7878   -9.5620  -43.6417 H         1 UNK         0.3000 
    185 H185        4.1650  -11.1165  -45.3854 H         1 UNK         0.0600 
    186 H186        5.5495  -11.4893  -43.2738 H         1 UNK         0.0600 
    187 H187        4.9831  -13.1554  -43.2297 H         1 UNK         0.0600 
    188 H188        5.9695  -12.5952  -44.5713 H         1 UNK         0.0600 
    189 H189        2.5095  -13.3950  -44.9054 H         1 UNK         0.3000 
    190 H190       -1.3861  -20.2179  -46.9905 H         1 UNK         0.3000 
    191 H191       -3.0329  -20.8311  -49.1946 H         1 UNK         0.0600 
    192 H192       -3.8282  -20.1462  -46.3198 H         1 UNK         0.0600 
    193 H193       -4.8912  -20.0800  -47.7208 H         1 UNK         0.0600 
    194 H194       -3.5145  -18.9925  -47.6144 H         1 UNK         0.0600 
    195 H195       -2.6866  -22.5587  -46.0503 H         1 UNK         0.3000 
    196 H196       -4.6061  -24.5804  -46.5350 H         1 UNK         0.0600 
    197 H197       -3.4003  -25.7992  -44.7154 H         1 UNK         0.0600 
    198 H198       -3.6821  -24.1172  -44.2926 H         1 UNK         0.0600 
    199 H199       -2.0794  -24.6402  -44.8034 H         1 UNK         0.0600 
    200 H200       -1.0686  -24.5370  -47.2168 H         1 UNK         0.3000 
    201 H201       -0.8877  -27.1200  -48.3789 H         1 UNK         0.0600 
    202 H202        1.0829  -25.8263  -47.6056 H         1 UNK         0.0600 
    203 H203        0.8170  -24.6174  -48.8593 H         1 UNK         0.0600 
    204 H204        1.2685  -26.2599  -49.2985 H         1 UNK         0.0600 
    205 H205       -1.7578  -23.9811  -49.7738 H         1 UNK         0.3000 
    206 H206       -2.0763  -24.9723  -52.4960 H         1 UNK         0.0600 
    207 H207       -1.2929  -22.6811  -52.0923 H         1 UNK         0.0600 
    208 H208       -2.8555  -22.6167  -52.8896 H         1 UNK         0.0600 
    209 H209       -2.7348  -22.3062  -51.1601 H         1 UNK         0.0600 
    210 H210       -3.8114  -25.9873  -50.0640 H         1 UNK         0.3000 
    211 H211       -5.8016  -26.8978  -49.7675 H         1 UNK         0.0600 
    212 H212       -6.1594  -26.6386  -52.8022 H         1 UNK         0.0600 
    213 H213       -7.0402  -27.7256  -51.7386 H         1 UNK         0.0600 
    214 H214       -5.3149  -27.9496  -51.9804 H         1 UNK         0.0600 
    215 H215       -5.7969  -24.4443  -48.9486 H         1 UNK         0.3000 
    216 H216       -6.9998  -22.7577  -48.1824 H         1 UNK         0.0600 
    217 H217       -9.4436  -22.6383  -48.3357 H         1 UNK         0.0600 
    218 H218       -8.9707  -24.2852  -47.9485 H         1 UNK         0.0600 
    219 H219       -9.4888  -23.8723  -49.5825 H         1 UNK         0.0600 
    220 H220       -5.3404  -22.3267  -50.0345 H         1 UNK         0.3000 
    221 H221       -4.4782  -20.8510  -51.4051 H         1 UNK         0.0600 
    222 H222       -7.1229  -19.3245  -51.2454 H         1 UNK         0.0600 
    223 H223       -5.7247  -19.1148  -50.1912 H         1 UNK         0.0600 
    224 H224       -5.6244  -18.6967  -51.8935 H         1 UNK         0.0600 
    225 H225       -7.4906  -22.2025  -52.4574 H         1 UNK         0.3000 
    226 H226       -7.8684  -21.2819  -54.9619 H         1 UNK         0.0600 
    227 H227       -9.1850  -23.3889  -55.3281 H         1 UNK         0.0600 
    228 H228       -8.4049  -24.1124  -53.9246 H         1 UNK         0.0600 
    229 H229       -9.4569  -22.7114  -53.7298 H         1 UNK         0.0600 
    230 H230       -5.4876  -23.8627  -54.2161 H         1 UNK         0.3000 
    231 H231       -5.1828  -24.6526  -56.9922 H         1 UNK         0.0600 
    232 H232       -4.7731  -26.1828  -55.0212 H         1 UNK         0.0600 
    233 H233       -3.3392  -25.2340  -54.6242 H         1 UNK         0.0600 
    234 H234       -3.4225  -26.1077  -56.1435 H         1 UNK         0.0600 
    235 H235       -3.8567  -22.0728  -55.0767 H         1 UNK         0.3000 
    236 H236       -1.5829  -21.6335  -56.9872 H         1 UNK         0.0600 
    237 H237       -0.6243  -20.2670  -55.1377 H         1 UNK         0.0600 
    238 H238       -2.0064  -20.6575  -54.1231 H         1 UNK         0.0600 
    239 H239       -0.8910  -21.9281  -54.6255 H         1 UNK         0.0600 
    240 H240       -4.2874  -20.0384  -55.2354 H         1 UNK         0.3000 
    241 H241       -3.9781  -17.6039  -56.9256 H         1 UNK         0.0600 
    242 H242       -6.0024  -20.2687  -57.0369 H         1 UNK         0.3800 
    243 H243       -7.4416  -19.4215  -57.5284 H         1 UNK         0.3800 
    244 H244       -4.9622  -16.3778  -55.0101 H         1 UNK         0.0800 
    245 H245       -5.1116  -17.8595  -54.1040 H         1 UNK         0.0800 
    246 H246       -3.6225  -17.4004  -51.9913 H         1 UNK         0.0800 
    247 H247       -3.2140  -18.9319  -52.7399 H         1 UNK         0.0800 
@<TRIPOS>BOND
     1    1    2 1    
     2    1  127 1    
     3    1  128 1    
     4    1  129 1    
     5    2    3 2    
     6    2    4 am   BACKBONE|DICT|INTERRES
     7    4    5 1    
     8    4  130 1    
     9    5    6 1    
    10    5   65 1    
    11    5  131 1    
    12    6    7 1    
    13    6  132 1    
    14    6  133 1    
    15    7    8 1    
    16    8    9 1    
    17    8  134 1    
    18    8  135 1    
    19    9   10 ar   
    20    9   14 ar   
    21   10   11 ar   
    22   10  136 1    
    23   11   12 ar   
    24   11  126 1    
    25   12   13 ar   
    26   12  137 1    
    27   13   14 ar   
    28   13   15 1    
    29   14  138 1    
    30   15   16 1    
    31   15  139 1    
    32   15  140 1    
    33   16   17 1    
    34   17   18 1    
    35   17  141 1    
    36   17  142 1    
    37   18   19 1    
    38   18   67 1    
    39   18  143 1    
    40   19   20 am   BACKBONE|DICT|INTERRES
    41   19  144 1    
    42   20   21 2    
    43   20   22 1    
    44   22   23 1    
    45   22   24 1    
    46   22  145 1    
    47   23  146 1    
    48   23  147 1    
    49   23  148 1    
    50   24   25 am   BACKBONE|DICT|INTERRES
    51   24  149 1    
    52   25   26 2    
    53   25   27 1    
    54   27   28 1    
    55   27   29 1    
    56   27  150 1    
    57   28  151 1    
    58   28  152 1    
    59   28  153 1    
    60   29   30 am   BACKBONE|DICT|INTERRES
    61   29  154 1    
    62   30   31 2    
    63   30   32 1    
    64   32   33 1    
    65   32   34 1    
    66   32  155 1    
    67   33  156 1    
    68   33  157 1    
    69   33  158 1    
    70   34   35 am   BACKBONE|DICT|INTERRES
    71   34  159 1    
    72   35   36 2    
    73   35   37 1    
    74   37   38 1    
    75   37   39 1    
    76   37  160 1    
    77   38  161 1    
    78   38  162 1    
    79   38  163 1    
    80   39   40 am   BACKBONE|DICT|INTERRES
    81   39  164 1    
    82   40   41 2    
    83   40   42 1    
    84   42   43 1    
    85   42   44 1    
    86   42  165 1    
    87   43  166 1    
    88   43  167 1    
    89   43  168 1    
    90   44   45 am   BACKBONE|DICT|INTERRES
    91   44  169 1    
    92   45   46 2    
    93   45   47 1    
    94   47   48 1    
    95   47   49 1    
    96   47  170 1    
    97   48  171 1    
    98   48  172 1    
    99   48  173 1    
   100   49   50 am   BACKBONE|DICT|INTERRES
   101   49  174 1    
   102   50   51 2    
   103   50   52 1    
   104   52   53 1    
   105   52   54 1    
   106   52  175 1    
   107   53  176 1    
   108   53  177 1    
   109   53  178 1    
   110   54   55 am   BACKBONE|DICT|INTERRES
   111   54  179 1    
   112   55   56 2    
   113   55   57 1    
   114   57   58 1    
   115   57   59 1    
   116   57  180 1    
   117   58  181 1    
   118   58  182 1    
   119   58  183 1    
   120   59   60 am   BACKBONE|DICT|INTERRES
   121   59  184 1    
   122   60   61 2    
   123   60   62 1    
   124   62   63 1    
   125   62   64 1    
   126   62  185 1    
   127   63  186 1    
   128   63  187 1    
   129   63  188 1    
   130   64   65 am   BACKBONE|DICT|INTERRES
   131   64  189 1    
   132   65   66 2    
   133   67   68 2    
   134   67   69 am   BACKBONE|DICT|INTERRES
   135   69   70 1    
   136   69  190 1    
   137   70   71 1    
   138   70   72 1    
   139   70  191 1    
   140   71  192 1    
   141   71  193 1    
   142   71  194 1    
   143   72   73 2    
   144   72   74 am   BACKBONE|DICT|INTERRES
   145   74   75 1    
   146   74  195 1    
   147   75   76 1    
   148   75   77 1    
   149   75  196 1    
   150   76  197 1    
   151   76  198 1    
   152   76  199 1    
   153   77   78 2    
   154   77   79 am   BACKBONE|DICT|INTERRES
   155   79   80 1    
   156   79  200 1    
   157   80   81 1    
   158   80   82 1    
   159   80  201 1    
   160   81  202 1    
   161   81  203 1    
   162   81  204 1    
   163   82   83 2    
   164   82   84 am   BACKBONE|DICT|INTERRES
   165   84   85 1    
   166   84  205 1    
   167   85   86 1    
   168   85   87 1    
   169   85  206 1    
   170   86  207 1    
   171   86  208 1    
   172   86  209 1    
   173   87   88 2    
   174   87   89 am   BACKBONE|DICT|INTERRES
   175   89   90 1    
   176   89  210 1    
   177   90   91 1    
   178   90   92 1    
   179   90  211 1    
   180   91  212 1    
   181   91  213 1    
   182   91  214 1    
   183   92   93 2    
   184   92   94 am   BACKBONE|DICT|INTERRES
   185   94   95 1    
   186   94  215 1    
   187   95   96 1    
   188   95   97 1    
   189   95  216 1    
   190   96  217 1    
   191   96  218 1    
   192   96  219 1    
   193   97   98 2    
   194   97   99 am   BACKBONE|DICT|INTERRES
   195   99  100 1    
   196   99  220 1    
   197  100  101 1    
   198  100  102 1    
   199  100  221 1    
   200  101  222 1    
   201  101  223 1    
   202  101  224 1    
   203  102  103 2    
   204  102  104 am   BACKBONE|DICT|INTERRES
   205  104  105 1    
   206  104  225 1    
   207  105  106 1    
   208  105  107 1    
   209  105  226 1    
   210  106  227 1    
   211  106  228 1    
   212  106  229 1    
   213  107  108 2    
   214  107  109 am   BACKBONE|DICT|INTERRES
   215  109  110 1    
   216  109  230 1    
   217  110  111 1    
   218  110  112 1    
   219  110  231 1    
   220  111  232 1    
   221  111  233 1    
   222  111  234 1    
   223  112  113 2    
   224  112  114 am   BACKBONE|DICT|INTERRES
   225  114  115 1    
   226  114  235 1    
   227  115  116 1    
   228  115  117 1    
   229  115  236 1    
   230  116  237 1    
   231  116  238 1    
   232  116  239 1    
   233  117  118 2    
   234  117  119 am   BACKBONE|DICT|INTERRES
   235  119  120 1    
   236  119  240 1    
   237  120  121 1    
   238  120  124 1    
   239  120  241 1    
   240  121  122 am   BACKBONE|DICT|INTERRES
   241  121  123 2    
   242  122  242 1    
   243  122  243 1    
   244  124  125 1    
   245  124  244 1    
   246  124  245 1    
   247  125  126 1    
   248  126  246 1    
   249  126  247 1    
@<TRIPOS>SUBSTRUCTURE
     1 UNK         1 GROUP             0       ****    0 ROOT    
