@<TRIPOS>MOLECULE
3R540
247   249    1
SMALL
USER_CHARGES


@<TRIPOS>ATOM
      1 CA         -0.1124  -12.3802  -51.3352 C.3       0 UNK        -0.1800 
      2 C           0.2931  -13.1865  -50.1102 C.2       0 UNK         0.5000 
      3 O           1.4637  -13.5404  -49.9679 O.2       0 UNK        -0.5000 
      4 N          -0.6639  -13.4623  -49.2128 N.am      1 UNK        -0.5000 
      5 CA         -0.4864  -14.2998  -48.0162 C.3       1 UNK         0.1400 
      6 C6         -1.8301  -14.6494  -47.3289 C.3       23 UNK        -0.0398 
      7 S7         -3.0524  -15.4161  -48.4506 S.3       23 UNK        -0.2404 
      8 C8         -2.8309  -17.1891  -48.0997 C.3       23 UNK        -0.0205 
      9 C9         -1.5846  -17.7376  -48.7741 C.ar      23 UNK        -0.0193 
     10 C10        -1.6355  -18.1704  -50.1026 C.ar      23 UNK        -0.1150 
     11 C11        -0.4785  -18.6235  -50.7434 C.ar      23 UNK        -0.0193 
     12 C12         0.7330  -18.6374  -50.0490 C.ar      23 UNK        -0.1150 
     13 C13         0.7939  -18.2085  -48.7215 C.ar      23 UNK        -0.0193 
     14 C14        -0.3727  -17.7832  -48.0807 C.ar      23 UNK        -0.1150 
     15 C15         2.1300  -18.1635  -48.0007 C.3       23 UNK        -0.0205 
     16 S16         2.6378  -19.8044  -47.4059 S.3       23 UNK        -0.2404 
     17 C17         1.5007  -20.0421  -46.0027 C.3       23 UNK        -0.0398 
     18 CA          0.8039  -21.4216  -46.0197 C.3       11 UNK         0.1400 
     19 N           0.3695  -21.7975  -44.6758 N.am      11 UNK        -0.5000 
     20 C          -0.0813  -23.0048  -44.3154 C.2       10 UNK         0.5000 
     21 O          -0.1302  -23.9741  -45.0717 O.2       10 UNK        -0.5000 
     22 CA         -0.6135  -23.1255  -42.8777 C.3       10 UNK         0.1400 
     23 CB          0.5329  -23.3724  -41.8860 C.3       10 UNK        -0.1800 
     24 N          -1.3611  -21.9307  -42.4806 N.am      10 UNK        -0.5000 
     25 C          -2.5680  -21.6067  -42.9650 C.2       9 UNK         0.5000 
     26 O          -3.1932  -22.3103  -43.7582 O.2       9 UNK        -0.5000 
     27 CA         -3.1567  -20.2558  -42.5177 C.3       9 UNK         0.1400 
     28 CB         -3.8341  -20.3872  -41.1456 C.3       9 UNK        -0.1800 
     29 N          -2.1546  -19.1890  -42.4658 N.am      9 UNK        -0.5000 
     30 C          -1.5577  -18.6612  -43.5435 C.2       8 UNK         0.5000 
     31 O          -1.8006  -19.0073  -44.6974 O.2       8 UNK        -0.5000 
     32 CA         -0.4739  -17.5978  -43.2957 C.3       8 UNK         0.1400 
     33 CB         -1.0976  -16.1973  -43.2205 C.3       8 UNK        -0.1800 
     34 N           0.3441  -17.8351  -42.1036 N.am      8 UNK        -0.5000 
     35 C           1.0854  -18.9314  -41.8841 C.2       7 UNK         0.5000 
     36 O           1.0443  -19.9321  -42.6016 O.2       7 UNK        -0.5000 
     37 CA          2.0332  -18.8939  -40.6736 C.3       7 UNK         0.1400 
     38 CB          3.2065  -19.8829  -40.8058 C.3       7 UNK        -0.1800 
     39 N           2.5589  -17.5435  -40.4787 N.am      7 UNK        -0.5000 
     40 C           2.7493  -16.9547  -39.2913 C.2       6 UNK         0.5000 
     41 O           2.4743  -17.4906  -38.2167 O.2       6 UNK        -0.5000 
     42 CA          3.3585  -15.5364  -39.2814 C.3       6 UNK         0.1400 
     43 CB          4.8278  -15.5898  -38.8337 C.3       6 UNK        -0.1800 
     44 N           3.2893  -14.8397  -40.5672 N.am      6 UNK        -0.5000 
     45 C           2.1683  -14.3792  -41.1378 C.2       5 UNK         0.5000 
     46 O           1.0488  -14.4940  -40.6386 O.2       5 UNK        -0.5000 
     47 CA          2.3251  -13.6934  -42.5104 C.3       5 UNK         0.1400 
     48 CB          2.6047  -12.1961  -42.3032 C.3       5 UNK        -0.1800 
     49 N           3.3644  -14.2580  -43.3835 N.am      5 UNK        -0.5000 
     50 C           3.5220  -15.5524  -43.7038 C.2       4 UNK         0.5000 
     51 O           2.8583  -16.4657  -43.2153 O.2       4 UNK        -0.5000 
     52 CA          4.5898  -15.8626  -44.7620 C.3       4 UNK         0.1400 
     53 CB          4.6597  -17.3546  -45.1371 C.3       4 UNK        -0.1800 
     54 N           4.3160  -15.0548  -45.9461 N.am      4 UNK        -0.5000 
     55 C           5.2499  -14.5025  -46.7308 C.2       3 UNK         0.5000 
     56 O           6.4574  -14.7100  -46.6039 O.2       3 UNK        -0.5000 
     57 CA          4.7655  -13.5297  -47.8275 C.3       3 UNK         0.1400 
     58 CB          4.6692  -14.2576  -49.1768 C.3       3 UNK        -0.1800 
     59 N           3.4770  -12.8916  -47.5404 N.am      3 UNK        -0.5000 
     60 C           3.2024  -12.1258  -46.4719 C.2       2 UNK         0.5000 
     61 O           4.0426  -11.8120  -45.6283 O.2       2 UNK        -0.5000 
     62 CA          1.7428  -11.6598  -46.2809 C.3       2 UNK         0.1400 
     63 CB          1.6087  -10.1639  -46.6023 C.3       2 UNK        -0.1800 
     64 N           0.7627  -12.4024  -47.0739 N.am      2 UNK        -0.5000 
     65 C           0.5044  -13.7154  -46.9853 C.2       1 UNK         0.5000 
     66 O           1.0421  -14.4619  -46.1652 O.2       1 UNK        -0.5000 
     67 C          -0.3549  -21.5093  -47.0404 C.2       11 UNK         0.5000 
     68 O          -0.1610  -22.0517  -48.1281 O.2       11 UNK        -0.5000 
     69 N          -1.5560  -21.0567  -46.6445 N.am      12 UNK        -0.5000 
     70 CA         -2.7958  -21.2205  -47.4040 C.3       12 UNK         0.1400 
     71 CB         -3.9459  -20.4566  -46.7303 C.3       12 UNK        -0.1800 
     72 C          -3.1803  -22.6975  -47.5759 C.2       12 UNK         0.5000 
     73 O          -3.4925  -23.1073  -48.6909 O.2       12 UNK        -0.5000 
     74 N          -3.1258  -23.4815  -46.4883 N.am      13 UNK        -0.5000 
     75 CA         -3.4062  -24.9210  -46.4866 C.3       13 UNK         0.1400 
     76 CB         -3.3547  -25.4651  -45.0519 C.3       13 UNK        -0.1800 
     77 C          -2.4710  -25.7181  -47.4156 C.2       13 UNK         0.5000 
     78 O          -2.9443  -26.5846  -48.1518 O.2       13 UNK        -0.5000 
     79 N          -1.1783  -25.3628  -47.4171 N.am      14 UNK        -0.5000 
     80 CA         -0.1628  -25.8913  -48.3319 C.3       14 UNK         0.1400 
     81 CB          1.2238  -25.4058  -47.8835 C.3       14 UNK        -0.1800 
     82 C          -0.4180  -25.5258  -49.8097 C.2       14 UNK         0.5000 
     83 O          -0.0350  -26.2890  -50.6964 O.2       14 UNK        -0.5000 
     84 N          -1.0996  -24.3982  -50.0477 N.am      15 UNK        -0.5000 
     85 CA         -1.5577  -23.9222  -51.3532 C.3       15 UNK         0.1400 
     86 CB         -1.4349  -22.3883  -51.3907 C.3       15 UNK        -0.1800 
     87 C          -2.9934  -24.3975  -51.6708 C.2       15 UNK         0.5000 
     88 O          -3.7331  -23.6878  -52.3534 O.2       15 UNK        -0.5000 
     89 N          -3.3719  -25.5801  -51.1608 N.am      16 UNK        -0.5000 
     90 CA         -4.6550  -26.2681  -51.3525 C.3       16 UNK         0.1400 
     91 CB         -4.8281  -26.6943  -52.8258 C.3       16 UNK        -0.1800 
     92 C          -5.8644  -25.4791  -50.8058 C.2       16 UNK         0.5000 
     93 O          -6.9360  -25.4911  -51.4128 O.2       16 UNK        -0.5000 
     94 N          -5.6548  -24.8080  -49.6645 N.am      17 UNK        -0.5000 
     95 CA         -6.5774  -23.9052  -48.9634 C.3       17 UNK         0.1400 
     96 CB         -7.9012  -24.6056  -48.5909 C.3       17 UNK        -0.1800 
     97 C          -6.7838  -22.5568  -49.6866 C.2       17 UNK         0.5000 
     98 O          -7.7478  -21.8503  -49.3864 O.2       17 UNK        -0.5000 
     99 N          -5.8573  -22.2113  -50.5936 N.am      18 UNK        -0.5000 
    100 CA        -5.8205  -21.0045  -51.4199 C.3       18 UNK         0.1400 
    101 CB        -5.5439  -19.7606  -50.5448 C.3       18 UNK        -0.1800 
    102 C         -7.0609  -20.8841  -52.3353 C.2       18 UNK         0.5000 
    103 O         -7.5819  -21.9066  -52.7880 O.2       18 UNK        -0.5000 
    104 N         -7.4807  -19.6464  -52.6374 N.am      19 UNK        -0.5000 
    105 CA        -8.5823  -19.2250  -53.5170 C.3       19 UNK         0.1400 
    106 CB        -9.9406  -19.7714  -53.0363 C.3       19 UNK        -0.1800 
    107 C         -8.3393  -19.5343  -55.0078 C.2       19 UNK         0.5000 
    108 O         -8.3981  -18.6249  -55.8357 O.2       19 UNK        -0.5000 
    109 N         -8.0291  -20.7979  -55.3181 N.am      20 UNK        -0.5000 
    110 CA        -7.5788  -21.2683  -56.6301 C.3       20 UNK         0.1400 
    111 CB        -7.8246  -22.7827  -56.7175 C.3       20 UNK        -0.1800 
    112 C         -6.0922  -20.9466  -56.8933 C.2       20 UNK         0.5000 
    113 O         -5.6436  -21.0306  -58.0372 O.2       20 UNK        -0.5000 
    114 N         -5.3614  -20.5859  -55.8340 N.am      21 UNK        -0.5000 
    115 CA        -3.9695  -20.1583  -55.8262 C.3       21 UNK         0.1400 
    116 CB        -3.0819  -21.3802  -55.5292 C.3       21 UNK        -0.1800 
    117 C         -3.8248  -19.0780  -54.7356 C.2       21 UNK         0.5000 
    118 O         -4.6863  -19.0032  -53.8579 O.2       21 UNK        -0.5000 
    119 N         -2.7793  -18.2458  -54.7284 N.am      22 UNK        -0.5000 
    120 CA        -1.6245  -18.1713  -55.6424 C.3       22 UNK         0.1400 
    121 C         -1.4912  -16.7888  -56.3487 C.2       22 UNK         0.5000 
    122 N         -2.4400  -15.8716  -56.2005 N.am      22 UNK        -0.7600 
    123 O         -0.5268  -16.5516  -57.0709 O.2       22 UNK        -0.5000 
    124 C124       -0.3125  -18.6079  -54.9317 C.3       23 UNK        -0.0398 
    125 S125       -0.0153  -17.7719  -53.3324 S.3       23 UNK        -0.2404 
    126 C126       -0.5292  -19.0890  -52.1873 C.3       23 UNK        -0.0205 
    127 H127        0.0837  -12.9536  -52.2412 H         1 UNK         0.0600 
    128 H128        0.4634  -11.4560  -51.3835 H         1 UNK         0.0600 
    129 H129       -1.1715  -12.1221  -51.3184 H         1 UNK         0.0600 
    130 H130       -1.6099  -13.1536  -49.3878 H         1 UNK         0.3000 
    131 H131       -0.0300  -15.2232  -48.3679 H         1 UNK         0.0600 
    132 H132       -1.6640  -15.3150  -46.4804 H         1 UNK         0.0800 
    133 H133       -2.2852  -13.7478  -46.9150 H         1 UNK         0.0800 
    134 H134       -2.7868  -17.3482  -47.0214 H         1 UNK         0.0800 
    135 H135       -3.7081  -17.7308  -48.4564 H         1 UNK         0.0800 
    136 H136       -2.5714  -18.1368  -50.6425 H         1 UNK         0.1150 
    137 H137        1.6330  -18.9704  -50.5467 H         1 UNK         0.1150 
    138 H138       -0.3312  -17.4427  -47.0558 H         1 UNK         0.1150 
    139 H139        2.8944  -17.7847  -48.6808 H         1 UNK         0.0800 
    140 H140        2.0921  -17.4583  -47.1690 H         1 UNK         0.0800 
    141 H141        0.7691  -19.2371  -45.9447 H         1 UNK         0.0800 
    142 H142        2.1114  -19.9452  -45.1037 H         1 UNK         0.0800 
    143 H143        1.5454  -22.1672  -46.3151 H         1 UNK         0.0600 
    144 H144        0.4274  -21.0755  -43.9621 H         1 UNK         0.3000 
    145 H145       -1.2872  -23.9839  -42.8379 H         1 UNK         0.0600 
    146 H146        0.1564  -23.4970  -40.8707 H         1 UNK         0.0600 
    147 H147        1.0802  -24.2800  -42.1437 H         1 UNK         0.0600 
    148 H148        1.2484  -22.5500  -41.8805 H         1 UNK         0.0600 
    149 H149       -0.8824  -21.2722  -41.8836 H         1 UNK         0.3000 
    150 H150       -3.9186  -19.9701  -43.2462 H         1 UNK         0.0600 
    151 H151       -4.5984  -21.1653  -41.1612 H         1 UNK         0.0600 
    152 H152       -4.3249  -19.4572  -40.8580 H         1 UNK         0.0600 
    153 H153       -3.1184  -20.6453  -40.3641 H         1 UNK         0.0600 
    154 H154       -1.8886  -18.8496  -41.5532 H         1 UNK         0.3000 
    155 H155        0.1997  -17.6162  -44.1549 H         1 UNK         0.0600 
    156 H156       -1.7134  -16.0772  -42.3285 H         1 UNK         0.0600 
    157 H157       -1.7302  -16.0019  -44.0870 H         1 UNK         0.0600 
    158 H158       -0.3273  -15.4274  -43.2043 H         1 UNK         0.0600 
    159 H159        0.4480  -17.0568  -41.4681 H         1 UNK         0.3000 
    160 H160        1.4305  -19.1880  -39.8123 H         1 UNK         0.0600 
    161 H161        3.8137  -19.6644  -41.6851 H         1 UNK         0.0600 
    162 H162        2.8501  -20.9093  -40.8963 H         1 UNK         0.0600 
    163 H163        3.8561  -19.8439  -39.9313 H         1 UNK         0.0600 
    164 H164        2.7765  -17.0350  -41.3325 H         1 UNK         0.3000 
    165 H165        2.7999  -14.9499  -38.5490 H         1 UNK         0.0600 
    166 H166        5.2504  -14.5888  -38.7443 H         1 UNK         0.0600 
    167 H167        4.9234  -16.0685  -37.8582 H         1 UNK         0.0600 
    168 H168        5.4417  -16.1536  -39.5373 H         1 UNK         0.0600 
    169 H169        4.1610  -14.7113  -41.0594 H         1 UNK         0.3000 
    170 H170        1.3766  -13.7932  -43.0403 H         1 UNK         0.0600 
    171 H171        1.8206  -11.7311  -41.7040 H         1 UNK         0.0600 
    172 H172        3.5515  -12.0335  -41.7865 H         1 UNK         0.0600 
    173 H173        2.6490  -11.6573  -43.2477 H         1 UNK         0.0600 
    174 H174        3.9568  -13.5838  -43.8497 H         1 UNK         0.3000 
    175 H175        5.5495  -15.5718  -44.3298 H         1 UNK         0.0600 
    176 H176        3.6974  -17.7229  -45.4882 H         1 UNK         0.0600 
    177 H177        5.3964  -17.5360  -45.9196 H         1 UNK         0.0600 
    178 H178        4.9432  -17.9592  -44.2749 H         1 UNK         0.0600 
    179 H179        3.3424  -14.8196  -46.1029 H         1 UNK         0.3000 
    180 H180        5.5126  -12.7385  -47.9150 H         1 UNK         0.0600 
    181 H181        3.9093  -15.0401  -49.1566 H         1 UNK         0.0600 
    182 H182        5.6184  -14.7265  -49.4394 H         1 UNK         0.0600 
    183 H183        4.4154  -13.5665  -49.9809 H         1 UNK         0.0600 
    184 H184        2.7294  -13.0885  -48.1957 H         1 UNK         0.3000 
    185 H185        1.4872  -11.8100  -45.2314 H         1 UNK         0.0600 
    186 H186        2.2985   -9.5705  -46.0005 H         1 UNK         0.0600 
    187 H187        1.8266   -9.9576  -47.6510 H         1 UNK         0.0600 
    188 H188        0.6024   -9.8023  -46.3898 H         1 UNK         0.0600 
    189 H189        0.2823  -11.8813  -47.7931 H         1 UNK         0.3000 
    190 H190       -1.6298  -20.5508  -45.7664 H         1 UNK         0.3000 
    191 H191       -2.6349  -20.7927  -48.3958 H         1 UNK         0.0600 
    192 H192       -3.7025  -19.4064  -46.5918 H         1 UNK         0.0600 
    193 H193       -4.8511  -20.5040  -47.3372 H         1 UNK         0.0600 
    194 H194       -4.1883  -20.8662  -45.7503 H         1 UNK         0.0600 
    195 H195       -2.9055  -23.0601  -45.5912 H         1 UNK         0.3000 
    196 H196       -4.4247  -25.0554  -46.8547 H         1 UNK         0.0600 
    197 H197       -3.6139  -26.5242  -45.0280 H         1 UNK         0.0600 
    198 H198       -4.0612  -24.9431  -44.4063 H         1 UNK         0.0600 
    199 H199       -2.3624  -25.3621  -44.6146 H         1 UNK         0.0600 
    200 H200       -0.8645  -24.6734  -46.7392 H         1 UNK         0.3000 
    201 H201       -0.1825  -26.9803  -48.2559 H         1 UNK         0.0600 
    202 H202        1.4398  -25.7185  -46.8617 H         1 UNK         0.0600 
    203 H203        1.3020  -24.3192  -47.9234 H         1 UNK         0.0600 
    204 H204        2.0072  -25.8152  -48.5223 H         1 UNK         0.0600 
    205 H205       -1.3867  -23.8358  -49.2559 H         1 UNK         0.3000 
    206 H206       -0.9097  -24.3250  -52.1337 H         1 UNK         0.0600 
    207 H207       -0.4248  -22.0695  -51.1329 H         1 UNK         0.0600 
    208 H208       -1.6557  -22.0014  -52.3860 H         1 UNK         0.0600 
    209 H209       -2.1211  -21.9093  -50.6919 H         1 UNK         0.0600 
    210 H210       -2.7123  -26.0603  -50.5635 H         1 UNK         0.3000 
    211 H211       -4.5988  -27.1783  -50.7539 H         1 UNK         0.0600 
    212 H212       -4.9537  -25.8343  -53.4845 H         1 UNK         0.0600 
    213 H213       -5.7056  -27.3300  -52.9488 H         1 UNK         0.0600 
    214 H214       -3.9664  -27.2625  -53.1760 H         1 UNK         0.0600 
    215 H215       -4.7081  -24.7995  -49.3034 H         1 UNK         0.3000 
    216 H216       -6.0844  -23.6538  -48.0243 H         1 UNK         0.0600 
    217 H217       -8.4822  -23.9949  -47.8991 H         1 UNK         0.0600 
    218 H218       -7.7187  -25.5625  -48.1019 H         1 UNK         0.0600 
    219 H219       -8.5276  -24.7858  -49.4645 H         1 UNK         0.0600 
    220 H220       -5.1242  -22.8817  -50.7898 H         1 UNK         0.3000 
    221 H221       -4.9671  -21.1318  -52.0872 H         1 UNK         0.0600 
    222 H222       -6.3922  -19.5153  -49.9050 H         1 UNK         0.0600 
    223 H223       -4.6788  -19.9232  -49.9017 H         1 UNK         0.0600 
    224 H224       -5.3202  -18.8845  -51.1538 H         1 UNK         0.0600 
    225 H225       -6.9308  -18.8837  -52.2664 H         1 UNK         0.3000 
    226 H226       -8.6245  -18.1383  -53.4285 H         1 UNK         0.0600 
    227 H227      -10.1299  -19.4956  -51.9990 H         1 UNK         0.0600 
    228 H228      -10.7556  -19.3637  -53.6354 H         1 UNK         0.0600 
    229 H229       -9.9978  -20.8577  -53.1089 H         1 UNK         0.0600 
    230 H230       -7.9773  -21.4619  -54.5482 H         1 UNK         0.3000 
    231 H231       -8.1686  -20.7764  -57.4062 H         1 UNK         0.0600 
    232 H232       -7.2606  -23.3252  -55.9574 H         1 UNK         0.0600 
    233 H233       -7.5254  -23.1730  -57.6911 H         1 UNK         0.0600 
    234 H234       -8.8805  -23.0187  -56.5840 H         1 UNK         0.0600 
    235 H235       -5.8282  -20.4643  -54.9451 H         1 UNK         0.3000 
    236 H236       -3.7275  -19.7307  -56.8000 H         1 UNK         0.0600 
    237 H237       -3.2392  -22.1687  -56.2653 H         1 UNK         0.0600 
    238 H238       -2.0241  -21.1241  -55.5560 H         1 UNK         0.0600 
    239 H239       -3.2938  -21.7991  -54.5442 H         1 UNK         0.0600 
    240 H240       -2.7363  -17.5691  -53.9811 H         1 UNK         0.3000 
    241 H241       -1.7623  -18.8611  -56.4728 H         1 UNK         0.0600 
    242 H242       -2.3479  -14.9848  -56.6712 H         1 UNK         0.3800 
    243 H243       -3.2571  -16.0567  -55.6406 H         1 UNK         0.3800 
    244 H244       -0.3330  -19.6847  -54.7641 H         1 UNK         0.0800 
    245 H245        0.5546  -18.4428  -55.5734 H         1 UNK         0.0800 
    246 H246        0.1250  -19.9521  -52.3173 H         1 UNK         0.0800 
    247 H247       -1.5374  -19.4226  -52.4369 H         1 UNK         0.0800 
@<TRIPOS>BOND
     1    1    2 1    
     2    1  127 1    
     3    1  128 1    
     4    1  129 1    
     5    2    3 2    
     6    2    4 am   BACKBONE|DICT|INTERRES
     7    4    5 1    
     8    4  130 1    
     9    5    6 1    
    10    5   65 1    
    11    5  131 1    
    12    6    7 1    
    13    6  132 1    
    14    6  133 1    
    15    7    8 1    
    16    8    9 1    
    17    8  134 1    
    18    8  135 1    
    19    9   10 ar   
    20    9   14 ar   
    21   10   11 ar   
    22   10  136 1    
    23   11   12 ar   
    24   11  126 1    
    25   12   13 ar   
    26   12  137 1    
    27   13   14 ar   
    28   13   15 1    
    29   14  138 1    
    30   15   16 1    
    31   15  139 1    
    32   15  140 1    
    33   16   17 1    
    34   17   18 1    
    35   17  141 1    
    36   17  142 1    
    37   18   19 1    
    38   18   67 1    
    39   18  143 1    
    40   19   20 am   BACKBONE|DICT|INTERRES
    41   19  144 1    
    42   20   21 2    
    43   20   22 1    
    44   22   23 1    
    45   22   24 1    
    46   22  145 1    
    47   23  146 1    
    48   23  147 1    
    49   23  148 1    
    50   24   25 am   BACKBONE|DICT|INTERRES
    51   24  149 1    
    52   25   26 2    
    53   25   27 1    
    54   27   28 1    
    55   27   29 1    
    56   27  150 1    
    57   28  151 1    
    58   28  152 1    
    59   28  153 1    
    60   29   30 am   BACKBONE|DICT|INTERRES
    61   29  154 1    
    62   30   31 2    
    63   30   32 1    
    64   32   33 1    
    65   32   34 1    
    66   32  155 1    
    67   33  156 1    
    68   33  157 1    
    69   33  158 1    
    70   34   35 am   BACKBONE|DICT|INTERRES
    71   34  159 1    
    72   35   36 2    
    73   35   37 1    
    74   37   38 1    
    75   37   39 1    
    76   37  160 1    
    77   38  161 1    
    78   38  162 1    
    79   38  163 1    
    80   39   40 am   BACKBONE|DICT|INTERRES
    81   39  164 1    
    82   40   41 2    
    83   40   42 1    
    84   42   43 1    
    85   42   44 1    
    86   42  165 1    
    87   43  166 1    
    88   43  167 1    
    89   43  168 1    
    90   44   45 am   BACKBONE|DICT|INTERRES
    91   44  169 1    
    92   45   46 2    
    93   45   47 1    
    94   47   48 1    
    95   47   49 1    
    96   47  170 1    
    97   48  171 1    
    98   48  172 1    
    99   48  173 1    
   100   49   50 am   BACKBONE|DICT|INTERRES
   101   49  174 1    
   102   50   51 2    
   103   50   52 1    
   104   52   53 1    
   105   52   54 1    
   106   52  175 1    
   107   53  176 1    
   108   53  177 1    
   109   53  178 1    
   110   54   55 am   BACKBONE|DICT|INTERRES
   111   54  179 1    
   112   55   56 2    
   113   55   57 1    
   114   57   58 1    
   115   57   59 1    
   116   57  180 1    
   117   58  181 1    
   118   58  182 1    
   119   58  183 1    
   120   59   60 am   BACKBONE|DICT|INTERRES
   121   59  184 1    
   122   60   61 2    
   123   60   62 1    
   124   62   63 1    
   125   62   64 1    
   126   62  185 1    
   127   63  186 1    
   128   63  187 1    
   129   63  188 1    
   130   64   65 am   BACKBONE|DICT|INTERRES
   131   64  189 1    
   132   65   66 2    
   133   67   68 2    
   134   67   69 am   BACKBONE|DICT|INTERRES
   135   69   70 1    
   136   69  190 1    
   137   70   71 1    
   138   70   72 1    
   139   70  191 1    
   140   71  192 1    
   141   71  193 1    
   142   71  194 1    
   143   72   73 2    
   144   72   74 am   BACKBONE|DICT|INTERRES
   145   74   75 1    
   146   74  195 1    
   147   75   76 1    
   148   75   77 1    
   149   75  196 1    
   150   76  197 1    
   151   76  198 1    
   152   76  199 1    
   153   77   78 2    
   154   77   79 am   BACKBONE|DICT|INTERRES
   155   79   80 1    
   156   79  200 1    
   157   80   81 1    
   158   80   82 1    
   159   80  201 1    
   160   81  202 1    
   161   81  203 1    
   162   81  204 1    
   163   82   83 2    
   164   82   84 am   BACKBONE|DICT|INTERRES
   165   84   85 1    
   166   84  205 1    
   167   85   86 1    
   168   85   87 1    
   169   85  206 1    
   170   86  207 1    
   171   86  208 1    
   172   86  209 1    
   173   87   88 2    
   174   87   89 am   BACKBONE|DICT|INTERRES
   175   89   90 1    
   176   89  210 1    
   177   90   91 1    
   178   90   92 1    
   179   90  211 1    
   180   91  212 1    
   181   91  213 1    
   182   91  214 1    
   183   92   93 2    
   184   92   94 am   BACKBONE|DICT|INTERRES
   185   94   95 1    
   186   94  215 1    
   187   95   96 1    
   188   95   97 1    
   189   95  216 1    
   190   96  217 1    
   191   96  218 1    
   192   96  219 1    
   193   97   98 2    
   194   97   99 am   BACKBONE|DICT|INTERRES
   195   99  100 1    
   196   99  220 1    
   197  100  101 1    
   198  100  102 1    
   199  100  221 1    
   200  101  222 1    
   201  101  223 1    
   202  101  224 1    
   203  102  103 2    
   204  102  104 am   BACKBONE|DICT|INTERRES
   205  104  105 1    
   206  104  225 1    
   207  105  106 1    
   208  105  107 1    
   209  105  226 1    
   210  106  227 1    
   211  106  228 1    
   212  106  229 1    
   213  107  108 2    
   214  107  109 am   BACKBONE|DICT|INTERRES
   215  109  110 1    
   216  109  230 1    
   217  110  111 1    
   218  110  112 1    
   219  110  231 1    
   220  111  232 1    
   221  111  233 1    
   222  111  234 1    
   223  112  113 2    
   224  112  114 am   BACKBONE|DICT|INTERRES
   225  114  115 1    
   226  114  235 1    
   227  115  116 1    
   228  115  117 1    
   229  115  236 1    
   230  116  237 1    
   231  116  238 1    
   232  116  239 1    
   233  117  118 2    
   234  117  119 am   BACKBONE|DICT|INTERRES
   235  119  120 1    
   236  119  240 1    
   237  120  121 1    
   238  120  124 1    
   239  120  241 1    
   240  121  122 am   BACKBONE|DICT|INTERRES
   241  121  123 2    
   242  122  242 1    
   243  122  243 1    
   244  124  125 1    
   245  124  244 1    
   246  124  245 1    
   247  125  126 1    
   248  126  246 1    
   249  126  247 1    
@<TRIPOS>SUBSTRUCTURE
     1 UNK         1 GROUP             0       ****    0 ROOT    
