@<TRIPOS>MOLECULE
3R540
247   249    1
SMALL
USER_CHARGES


@<TRIPOS>ATOM
      1 CA          2.9937  -10.8551  -47.2316 C.3       0 UNK        -0.1800 
      2 C           2.9133  -12.3742  -47.2390 C.2       0 UNK         0.5000 
      3 O           2.4874  -12.9745  -46.2539 O.2       0 UNK        -0.5000 
      4 N           3.3038  -12.9989  -48.3568 N.am      1 UNK        -0.5000 
      5 CA          3.3822  -14.4564  -48.5403 C.3       1 UNK         0.1400 
      6 C6          4.2173  -14.8009  -49.8000 C.3       23 UNK        -0.0398 
      7 S7          5.0818  -16.4042  -49.6723 S.3       23 UNK        -0.2404 
      8 C8          4.7714  -17.1327  -51.3118 C.3       23 UNK        -0.0205 
      9 C9          3.3194  -17.5492  -51.4925 C.ar      23 UNK        -0.0193 
     10 C10         2.4457  -16.7557  -52.2378 C.ar      23 UNK        -0.1150 
     11 C11         1.1158  -17.1392  -52.4156 C.ar      23 UNK        -0.0193 
     12 C12         0.6616  -18.3316  -51.8422 C.ar      23 UNK        -0.1150 
     13 C13         1.5238  -19.1466  -51.0982 C.ar      23 UNK        -0.0193 
     14 C14         2.8556  -18.7407  -50.9289 C.ar      23 UNK        -0.1150 
     15 C15         0.9726  -20.4605  -50.5345 C.3       23 UNK        -0.0205 
     16 S16         2.1351  -21.4639  -49.5366 S.3       23 UNK        -0.2404 
     17 C17         1.7296  -20.9513  -47.8300 C.3       23 UNK        -0.0398 
     18 CA          0.9106  -22.0395  -47.0899 C.3       11 UNK         0.1400 
     19 N           0.9818  -21.9208  -45.6304 N.am      11 UNK        -0.5000 
     20 C           0.5037  -22.8387  -44.7750 C.2       10 UNK         0.5000 
     21 O           0.0102  -23.9100  -45.1275 O.2       10 UNK        -0.5000 
     22 CA          0.5252  -22.4826  -43.2775 C.3       10 UNK         0.1400 
     23 CB          1.9144  -22.7302  -42.6721 C.3       10 UNK        -0.1800 
     24 N           0.1040  -21.1045  -43.0230 N.am      10 UNK        -0.5000 
     25 C          -1.1169  -20.6241  -43.3033 C.2       9 UNK         0.5000 
     26 O          -2.0365  -21.3118  -43.7445 O.2       9 UNK        -0.5000 
     27 CA         -1.3333  -19.1129  -43.1166 C.3       9 UNK         0.1400 
     28 CB         -1.6132  -18.7740  -41.6451 C.3       9 UNK        -0.1800 
     29 N          -0.1970  -18.3279  -43.5917 N.am      9 UNK        -0.5000 
     30 C           0.2394  -18.2881  -44.8575 C.2       8 UNK         0.5000 
     31 O          -0.3050  -18.8772  -45.7909 O.2       8 UNK        -0.5000 
     32 CA          1.5424  -17.5122  -45.1046 C.3       8 UNK         0.1400 
     33 CB          1.2904  -16.0016  -45.1343 C.3       8 UNK        -0.1800 
     34 N           2.5532  -17.8079  -44.0933 N.am      8 UNK        -0.5000 
     35 C           3.1859  -18.9811  -43.9725 C.2       7 UNK         0.5000 
     36 O           3.0047  -19.9371  -44.7267 O.2       7 UNK        -0.5000 
     37 CA          4.1603  -19.1128  -42.7875 C.3       7 UNK         0.1400 
     38 CB          5.5525  -18.5908  -43.1728 C.3       7 UNK        -0.1800 
     39 N           3.6915  -18.4069  -41.5922 N.am      7 UNK        -0.5000 
     40 C           2.6292  -18.7836  -40.8671 C.2       6 UNK         0.5000 
     41 O           1.9452  -19.7747  -41.1218 O.2       6 UNK        -0.5000 
     42 CA          2.2381  -17.8713  -39.6889 C.3       6 UNK         0.1400 
     43 CB          3.1300  -18.1476  -38.4690 C.3       6 UNK        -0.1800 
     44 N           2.2724  -16.4385  -40.0065 N.am      6 UNK        -0.5000 
     45 C           1.5393  -15.8577  -40.9656 C.2       5 UNK         0.5000 
     46 O           0.8352  -16.4889  -41.7534 O.2       5 UNK        -0.5000 
     47 CA          1.6313  -14.3237  -41.0882 C.3       5 UNK         0.1400 
     48 CB          2.8190  -13.9299  -41.9807 C.3       5 UNK        -0.1800 
     49 N           0.4104  -13.7329  -41.6453 N.am      5 UNK        -0.5000 
     50 C          -0.8066  -13.7925  -41.0844 C.2       4 UNK         0.5000 
     51 O          -1.0162  -14.2909  -39.9768 O.2       4 UNK        -0.5000 
     52 CA         -1.9909  -13.1745  -41.8607 C.3       4 UNK         0.1400 
     53 CB         -2.6739  -12.0758  -41.0283 C.3       4 UNK        -0.1800 
     54 N          -1.6302  -12.6051  -43.1630 N.am      4 UNK        -0.5000 
     55 C          -1.4728  -13.2963  -44.2993 C.2       3 UNK         0.5000 
     56 O          -1.5858  -14.5215  -44.3632 O.2       3 UNK        -0.5000 
     57 CA         -1.1472  -12.4678  -45.5634 C.3       3 UNK         0.1400 
     58 CB         -0.2007  -11.2877  -45.2694 C.3       3 UNK        -0.1800 
     59 N          -0.5600  -13.2942  -46.6209 N.am      3 UNK        -0.5000 
     60 C          -1.2628  -13.9870  -47.5307 C.2       2 UNK         0.5000 
     61 O          -2.4911  -13.9360  -47.6151 O.2       2 UNK        -0.5000 
     62 CA         -0.4693  -14.8732  -48.5155 C.3       2 UNK         0.1400 
     63 CB         -1.1270  -14.9564  -49.9039 C.3       2 UNK        -0.1800 
     64 N           0.9122  -14.4084  -48.6626 N.am      2 UNK        -0.5000 
     65 C           2.0056  -15.1708  -48.5222 C.2       1 UNK         0.5000 
     66 O           1.9596  -16.3859  -48.3373 O.2       1 UNK        -0.5000 
     67 C          -0.5484  -22.0890  -47.5847 C.2       11 UNK         0.5000 
     68 O          -0.8886  -22.9744  -48.3671 O.2       11 UNK        -0.5000 
     69 N          -1.3931  -21.1723  -47.0915 N.am      12 UNK        -0.5000 
     70 CA         -2.8185  -21.1093  -47.4139 C.3       12 UNK         0.1400 
     71 CB         -3.4381  -19.8469  -46.7986 C.3       12 UNK        -0.1800 
     72 C          -3.5923  -22.3709  -46.9881 C.2       12 UNK         0.5000 
     73 O          -4.4300  -22.8490  -47.7535 O.2       12 UNK        -0.5000 
     74 N          -3.2699  -22.9066  -45.8023 N.am      13 UNK        -0.5000 
     75 CA         -3.8109  -24.1593  -45.2762 C.3       13 UNK         0.1400 
     76 CB         -3.4044  -24.3241  -43.8043 C.3       13 UNK        -0.1800 
     77 C          -3.3819  -25.3832  -46.1044 C.2       13 UNK         0.5000 
     78 O          -4.2290  -26.2148  -46.4304 O.2       13 UNK        -0.5000 
     79 N          -2.0936  -25.4551  -46.4723 N.am      14 UNK        -0.5000 
     80 CA         -1.5356  -26.4925  -47.3480 C.3       14 UNK         0.1400 
     81 CB         -0.0060  -26.3595  -47.3917 C.3       14 UNK        -0.1800 
     82 C          -2.1279  -26.4535  -48.7708 C.2       14 UNK         0.5000 
     83 O          -2.3516  -27.5033  -49.3735 O.2       14 UNK        -0.5000 
     84 N          -2.4183  -25.2397  -49.2527 N.am      15 UNK        -0.5000 
     85 CA         -3.1083  -24.9454  -50.5074 C.3       15 UNK         0.1400 
     86 CB         -2.7435  -23.5120  -50.9148 C.3       15 UNK        -0.1800 
     87 C          -4.6424  -25.1214  -50.4349 C.2       15 UNK         0.5000 
     88 O          -5.3271  -24.8254  -51.4193 O.2       15 UNK        -0.5000 
     89 N          -5.1593  -25.5587  -49.2743 N.am      16 UNK        -0.5000 
     90 CA         -6.5624  -25.8454  -48.9502 C.3       16 UNK         0.1400 
     91 CB         -7.0482  -27.0710  -49.7511 C.3       16 UNK        -0.1800 
     92 C          -7.5036  -24.6323  -49.1062 C.2       16 UNK         0.5000 
     93 O          -8.6987  -24.8136  -49.3438 O.2       16 UNK        -0.5000 
     94 N          -6.9381  -23.4182  -49.0164 N.am      17 UNK        -0.5000 
     95 CA         -7.5458  -22.1154  -49.3121 C.3       17 UNK         0.1400 
     96 CB         -8.6622  -21.7908  -48.2992 C.3       17 UNK        -0.1800 
     97 C          -8.0170  -21.9502  -50.7783 C.2       17 UNK         0.5000 
     98 O          -8.7073  -20.9764  -51.0818 O.2       17 UNK        -0.5000 
     99 N          -7.6379  -22.8841  -51.6621 N.am      18 UNK        -0.5000 
    100 CA        -8.0605  -22.9456  -53.0588 C.3       18 UNK         0.1400 
    101 CB        -8.4162  -24.3987  -53.4150 C.3       18 UNK        -0.1800 
    102 C         -6.9506  -22.4087  -53.9691 C.2       18 UNK         0.5000 
    103 O         -7.1857  -21.4732  -54.7339 O.2       18 UNK        -0.5000 
    104 N         -5.7439  -22.9758  -53.8327 N.am      19 UNK        -0.5000 
    105 CA        -4.5438  -22.5473  -54.5592 C.3       19 UNK         0.1400 
    106 CB        -3.6332  -23.7667  -54.7857 C.3       19 UNK        -0.1800 
    107 C         -3.8044  -21.3904  -53.8526 C.2       19 UNK         0.5000 
    108 O         -2.7731  -20.9348  -54.3469 O.2       19 UNK        -0.5000 
    109 N         -4.3423  -20.9376  -52.7084 N.am      20 UNK        -0.5000 
    110 CA        -3.8301  -19.8382  -51.8880 C.3       20 UNK         0.1400 
    111 CB        -4.6345  -19.7798  -50.5813 C.3       20 UNK        -0.1800 
    112 C         -3.8669  -18.4774  -52.6085 C.2       20 UNK         0.5000 
    113 O         -3.0354  -17.6174  -52.3222 O.2       20 UNK        -0.5000 
    114 N         -4.7990  -18.3222  -53.5583 N.am      21 UNK        -0.5000 
    115 CA        -4.8210  -17.2441  -54.5420 C.3       21 UNK         0.1400 
    116 CB        -6.2669  -17.0476  -55.0307 C.3       21 UNK        -0.1800 
    117 C         -3.8525  -17.6085  -55.6833 C.2       21 UNK         0.5000 
    118 O         -4.2800  -18.1230  -56.7182 O.2       21 UNK        -0.5000 
    119 N         -2.5543  -17.4040  -55.4329 N.am      22 UNK        -0.5000 
    120 CA        -1.4447  -17.8404  -56.2967 C.3       22 UNK         0.1400 
    121 C         -1.3030  -17.0991  -57.6616 C.2       22 UNK         0.5000 
    122 N         -2.0007  -15.9947  -57.8981 N.am      22 UNK        -0.7600 
    123 O         -0.5532  -17.5437  -58.5268 O.2       22 UNK        -0.5000 
    124 C124       -0.1067  -17.8960  -55.5119 C.3       23 UNK        -0.0398 
    125 S125        0.5255  -16.2597  -54.9914 S.3       23 UNK        -0.2404 
    126 C126        0.1730  -16.2439  -53.2063 C.3       23 UNK        -0.0205 
    127 H127        2.0343  -10.4246  -47.5160 H         1 UNK         0.0600 
    128 H128        3.7515  -10.4934  -47.9269 H         1 UNK         0.0600 
    129 H129        3.2504  -10.4944  -46.2355 H         1 UNK         0.0600 
    130 H130        3.6210  -12.4425  -49.1383 H         1 UNK         0.3000 
    131 H131        3.9239  -14.8330  -47.6695 H         1 UNK         0.0600 
    132 H132        3.6039  -14.7516  -50.6993 H         1 UNK         0.0800 
    133 H133        5.0012  -14.0560  -49.9442 H         1 UNK         0.0800 
    134 H134        5.4132  -18.0064  -51.4341 H         1 UNK         0.0800 
    135 H135        5.0719  -16.4263  -52.0873 H         1 UNK         0.0800 
    136 H136        2.7981  -15.8369  -52.6851 H         1 UNK         0.1150 
    137 H137       -0.3689  -18.6291  -51.9798 H         1 UNK         0.1150 
    138 H138        3.5502  -19.3415  -50.3617 H         1 UNK         0.1150 
    139 H139        0.0734  -20.2543  -49.9523 H         1 UNK         0.0800 
    140 H140        0.6504  -21.0757  -51.3759 H         1 UNK         0.0800 
    141 H141        1.2250  -19.9832  -47.8249 H         1 UNK         0.0800 
    142 H142        2.6786  -20.7925  -47.3166 H         1 UNK         0.0800 
    143 H143        1.3591  -23.0069  -47.3275 H         1 UNK         0.0600 
    144 H144        1.4160  -21.0819  -45.2601 H         1 UNK         0.3000 
    145 H145       -0.1831  -23.1420  -42.7718 H         1 UNK         0.0600 
    146 H146        1.9122  -22.5538  -41.5964 H         1 UNK         0.0600 
    147 H147        2.2307  -23.7617  -42.8316 H         1 UNK         0.0600 
    148 H148        2.6707  -22.0833  -43.1156 H         1 UNK         0.0600 
    149 H149        0.7909  -20.4868  -42.6023 H         1 UNK         0.3000 
    150 H150       -2.2056  -18.8237  -43.7058 H         1 UNK         0.0600 
    151 H151       -2.4743  -19.3301  -41.2728 H         1 UNK         0.0600 
    152 H152       -1.8304  -17.7127  -41.5208 H         1 UNK         0.0600 
    153 H153       -0.7627  -19.0161  -41.0072 H         1 UNK         0.0600 
    154 H154        0.2829  -17.7598  -42.8952 H         1 UNK         0.3000 
    155 H155        1.9329  -17.8161  -46.0778 H         1 UNK         0.0600 
    156 H156        0.9275  -15.6235  -44.1802 H         1 UNK         0.0600 
    157 H157        0.5386  -15.7585  -45.8815 H         1 UNK         0.0600 
    158 H158        2.1995  -15.4584  -45.3889 H         1 UNK         0.0600 
    159 H159        2.7154  -17.0987  -43.3949 H         1 UNK         0.3000 
    160 H160        4.2493  -20.1740  -42.5457 H         1 UNK         0.0600 
    161 H161        5.5345  -17.5254  -43.4058 H         1 UNK         0.0600 
    162 H162        5.9347  -19.1127  -44.0512 H         1 UNK         0.0600 
    163 H163        6.2691  -18.7467  -42.3662 H         1 UNK         0.0600 
    164 H164        4.1968  -17.5772  -41.3181 H         1 UNK         0.3000 
    165 H165        1.2099  -18.1190  -39.4168 H         1 UNK         0.0600 
    166 H166        2.7891  -17.5896  -37.5968 H         1 UNK         0.0600 
    167 H167        3.1112  -19.2055  -38.2031 H         1 UNK         0.0600 
    168 H168        4.1690  -17.8749  -38.6577 H         1 UNK         0.0600 
    169 H169        2.8426  -15.8595  -39.4070 H         1 UNK         0.3000 
    170 H170        1.7833  -13.9051  -40.0915 H         1 UNK         0.0600 
    171 H171        3.7550  -14.3324  -41.5914 H         1 UNK         0.0600 
    172 H172        2.7010  -14.3009  -42.9995 H         1 UNK         0.0600 
    173 H173        2.9308  -12.8467  -42.0321 H         1 UNK         0.0600 
    174 H174        0.4842  -13.3271  -42.5650 H         1 UNK         0.3000 
    175 H175       -2.7164  -13.9751  -42.0198 H         1 UNK         0.0600 
    176 H176       -1.9946  -11.2480  -40.8210 H         1 UNK         0.0600 
    177 H177       -3.5461  -11.6741  -41.5445 H         1 UNK         0.0600 
    178 H178       -3.0199  -12.4643  -40.0696 H         1 UNK         0.0600 
    179 H179       -1.5099  -11.6028  -43.1883 H         1 UNK         0.3000 
    180 H180       -2.0905  -12.0497  -45.9204 H         1 UNK         0.0600 
    181 H181        0.7209  -11.6165  -44.7881 H         1 UNK         0.0600 
    182 H182       -0.6688  -10.5489  -44.6185 H         1 UNK         0.0600 
    183 H183        0.0674  -10.7658  -46.1873 H         1 UNK         0.0600 
    184 H184        0.4446  -13.4215  -46.5731 H         1 UNK         0.3000 
    185 H185       -0.4859  -15.8758  -48.0836 H         1 UNK         0.0600 
    186 H186       -0.5875  -15.6557  -50.5399 H         1 UNK         0.0600 
    187 H187       -2.1546  -15.3163  -49.8393 H         1 UNK         0.0600 
    188 H188       -1.1436  -13.9867  -50.4021 H         1 UNK         0.0600 
    189 H189        1.0359  -13.4156  -48.8018 H         1 UNK         0.3000 
    190 H190       -1.0302  -20.4477  -46.4754 H         1 UNK         0.3000 
    191 H191       -2.8945  -21.0269  -48.4984 H         1 UNK         0.0600 
    192 H192       -3.3711  -19.8552  -45.7106 H         1 UNK         0.0600 
    193 H193       -4.4927  -19.7611  -47.0636 H         1 UNK         0.0600 
    194 H194       -2.9375  -18.9473  -47.1575 H         1 UNK         0.0600 
    195 H195       -2.6141  -22.4101  -45.2051 H         1 UNK         0.3000 
    196 H196       -4.9001  -24.0951  -45.3204 H         1 UNK         0.0600 
    197 H197       -3.8086  -25.2474  -43.3877 H         1 UNK         0.0600 
    198 H198       -3.7821  -23.5008  -43.1978 H         1 UNK         0.0600 
    199 H199       -2.3211  -24.3557  -43.6857 H         1 UNK         0.0600 
    200 H200       -1.4441  -24.7503  -46.1337 H         1 UNK         0.3000 
    201 H201       -1.7811  -27.4637  -46.9137 H         1 UNK         0.0600 
    202 H202        0.4265  -26.4611  -46.3962 H         1 UNK         0.0600 
    203 H203        0.3030  -25.3939  -47.7928 H         1 UNK         0.0600 
    204 H204        0.4363  -27.1337  -48.0197 H         1 UNK         0.0600 
    205 H205       -2.1172  -24.4309  -48.7155 H         1 UNK         0.3000 
    206 H206       -2.7413  -25.6258  -51.2780 H         1 UNK         0.0600 
    207 H207       -1.6655  -23.3902  -51.0231 H         1 UNK         0.0600 
    208 H208       -3.1920  -23.2557  -51.8677 H         1 UNK         0.0600 
    209 H209       -3.0928  -22.7834  -50.1842 H         1 UNK         0.0600 
    210 H210       -4.5142  -25.7207  -48.5107 H         1 UNK         0.3000 
    211 H211       -6.5843  -26.1092  -47.8923 H         1 UNK         0.0600 
    212 H212       -7.1160  -26.8547  -50.8180 H         1 UNK         0.0600 
    213 H213       -8.0358  -27.3927  -49.4187 H         1 UNK         0.0600 
    214 H214       -6.3738  -27.9176  -49.6226 H         1 UNK         0.0600 
    215 H215       -5.9565  -23.3783  -48.7490 H         1 UNK         0.3000 
    216 H216       -6.7541  -21.3808  -49.1655 H         1 UNK         0.0600 
    217 H217       -9.0061  -20.7620  -48.4114 H         1 UNK         0.0600 
    218 H218       -8.3081  -21.9022  -47.2744 H         1 UNK         0.0600 
    219 H219       -9.5291  -22.4391  -48.4280 H         1 UNK         0.0600 
    220 H220       -7.0325  -23.6324  -51.3433 H         1 UNK         0.3000 
    221 H221       -8.9524  -22.3349  -53.2146 H         1 UNK         0.0600 
    222 H222       -7.5767  -25.0770  -53.2565 H         1 UNK         0.0600 
    223 H223       -9.2477  -24.7560  -52.8072 H         1 UNK         0.0600 
    224 H224       -8.7166  -24.4831  -54.4600 H         1 UNK         0.0600 
    225 H225       -5.6235  -23.7232  -53.1563 H         1 UNK         0.3000 
    226 H226       -4.8330  -22.1716  -55.5430 H         1 UNK         0.0600 
    227 H227       -4.1261  -24.5043  -55.4190 H         1 UNK         0.0600 
    228 H228       -2.7069  -23.4823  -55.2866 H         1 UNK         0.0600 
    229 H229       -3.3654  -24.2635  -53.8545 H         1 UNK         0.0600 
    230 H230       -5.1895  -21.3823  -52.3900 H         1 UNK         0.3000 
    231 H231       -2.7885  -20.0593  -51.6453 H         1 UNK         0.0600 
    232 H232       -4.6112  -20.7369  -50.0618 H         1 UNK         0.0600 
    233 H233       -5.6790  -19.5231  -50.7630 H         1 UNK         0.0600 
    234 H234       -4.2244  -19.0294  -49.9040 H         1 UNK         0.0600 
    235 H235       -5.4194  -19.0979  -53.7397 H         1 UNK         0.3000 
    236 H236       -4.4871  -16.3107  -54.0834 H         1 UNK         0.0600 
    237 H237       -6.3187  -16.2659  -55.7895 H         1 UNK         0.0600 
    238 H238       -6.6765  -17.9594  -55.4677 H         1 UNK         0.0600 
    239 H239       -6.9205  -16.7488  -54.2109 H         1 UNK         0.0600 
    240 H240       -2.2926  -17.0072  -54.5415 H         1 UNK         0.3000 
    241 H241       -1.6743  -18.8726  -56.5693 H         1 UNK         0.0600 
    242 H242       -1.9061  -15.5263  -58.7855 H         1 UNK         0.3800 
    243 H243       -2.6194  -15.6216  -57.1965 H         1 UNK         0.3800 
    244 H244       -0.2207  -18.5401  -54.6392 H         1 UNK         0.0800 
    245 H245        0.6629  -18.3730  -56.1207 H         1 UNK         0.0800 
    246 H246       -0.8652  -16.5206  -53.0342 H         1 UNK         0.0800 
    247 H247        0.2744  -15.2197  -52.8447 H         1 UNK         0.0800 
@<TRIPOS>BOND
     1    1    2 1    
     2    1  127 1    
     3    1  128 1    
     4    1  129 1    
     5    2    3 2    
     6    2    4 am   BACKBONE|DICT|INTERRES
     7    4    5 1    
     8    4  130 1    
     9    5    6 1    
    10    5   65 1    
    11    5  131 1    
    12    6    7 1    
    13    6  132 1    
    14    6  133 1    
    15    7    8 1    
    16    8    9 1    
    17    8  134 1    
    18    8  135 1    
    19    9   10 ar   
    20    9   14 ar   
    21   10   11 ar   
    22   10  136 1    
    23   11   12 ar   
    24   11  126 1    
    25   12   13 ar   
    26   12  137 1    
    27   13   14 ar   
    28   13   15 1    
    29   14  138 1    
    30   15   16 1    
    31   15  139 1    
    32   15  140 1    
    33   16   17 1    
    34   17   18 1    
    35   17  141 1    
    36   17  142 1    
    37   18   19 1    
    38   18   67 1    
    39   18  143 1    
    40   19   20 am   BACKBONE|DICT|INTERRES
    41   19  144 1    
    42   20   21 2    
    43   20   22 1    
    44   22   23 1    
    45   22   24 1    
    46   22  145 1    
    47   23  146 1    
    48   23  147 1    
    49   23  148 1    
    50   24   25 am   BACKBONE|DICT|INTERRES
    51   24  149 1    
    52   25   26 2    
    53   25   27 1    
    54   27   28 1    
    55   27   29 1    
    56   27  150 1    
    57   28  151 1    
    58   28  152 1    
    59   28  153 1    
    60   29   30 am   BACKBONE|DICT|INTERRES
    61   29  154 1    
    62   30   31 2    
    63   30   32 1    
    64   32   33 1    
    65   32   34 1    
    66   32  155 1    
    67   33  156 1    
    68   33  157 1    
    69   33  158 1    
    70   34   35 am   BACKBONE|DICT|INTERRES
    71   34  159 1    
    72   35   36 2    
    73   35   37 1    
    74   37   38 1    
    75   37   39 1    
    76   37  160 1    
    77   38  161 1    
    78   38  162 1    
    79   38  163 1    
    80   39   40 am   BACKBONE|DICT|INTERRES
    81   39  164 1    
    82   40   41 2    
    83   40   42 1    
    84   42   43 1    
    85   42   44 1    
    86   42  165 1    
    87   43  166 1    
    88   43  167 1    
    89   43  168 1    
    90   44   45 am   BACKBONE|DICT|INTERRES
    91   44  169 1    
    92   45   46 2    
    93   45   47 1    
    94   47   48 1    
    95   47   49 1    
    96   47  170 1    
    97   48  171 1    
    98   48  172 1    
    99   48  173 1    
   100   49   50 am   BACKBONE|DICT|INTERRES
   101   49  174 1    
   102   50   51 2    
   103   50   52 1    
   104   52   53 1    
   105   52   54 1    
   106   52  175 1    
   107   53  176 1    
   108   53  177 1    
   109   53  178 1    
   110   54   55 am   BACKBONE|DICT|INTERRES
   111   54  179 1    
   112   55   56 2    
   113   55   57 1    
   114   57   58 1    
   115   57   59 1    
   116   57  180 1    
   117   58  181 1    
   118   58  182 1    
   119   58  183 1    
   120   59   60 am   BACKBONE|DICT|INTERRES
   121   59  184 1    
   122   60   61 2    
   123   60   62 1    
   124   62   63 1    
   125   62   64 1    
   126   62  185 1    
   127   63  186 1    
   128   63  187 1    
   129   63  188 1    
   130   64   65 am   BACKBONE|DICT|INTERRES
   131   64  189 1    
   132   65   66 2    
   133   67   68 2    
   134   67   69 am   BACKBONE|DICT|INTERRES
   135   69   70 1    
   136   69  190 1    
   137   70   71 1    
   138   70   72 1    
   139   70  191 1    
   140   71  192 1    
   141   71  193 1    
   142   71  194 1    
   143   72   73 2    
   144   72   74 am   BACKBONE|DICT|INTERRES
   145   74   75 1    
   146   74  195 1    
   147   75   76 1    
   148   75   77 1    
   149   75  196 1    
   150   76  197 1    
   151   76  198 1    
   152   76  199 1    
   153   77   78 2    
   154   77   79 am   BACKBONE|DICT|INTERRES
   155   79   80 1    
   156   79  200 1    
   157   80   81 1    
   158   80   82 1    
   159   80  201 1    
   160   81  202 1    
   161   81  203 1    
   162   81  204 1    
   163   82   83 2    
   164   82   84 am   BACKBONE|DICT|INTERRES
   165   84   85 1    
   166   84  205 1    
   167   85   86 1    
   168   85   87 1    
   169   85  206 1    
   170   86  207 1    
   171   86  208 1    
   172   86  209 1    
   173   87   88 2    
   174   87   89 am   BACKBONE|DICT|INTERRES
   175   89   90 1    
   176   89  210 1    
   177   90   91 1    
   178   90   92 1    
   179   90  211 1    
   180   91  212 1    
   181   91  213 1    
   182   91  214 1    
   183   92   93 2    
   184   92   94 am   BACKBONE|DICT|INTERRES
   185   94   95 1    
   186   94  215 1    
   187   95   96 1    
   188   95   97 1    
   189   95  216 1    
   190   96  217 1    
   191   96  218 1    
   192   96  219 1    
   193   97   98 2    
   194   97   99 am   BACKBONE|DICT|INTERRES
   195   99  100 1    
   196   99  220 1    
   197  100  101 1    
   198  100  102 1    
   199  100  221 1    
   200  101  222 1    
   201  101  223 1    
   202  101  224 1    
   203  102  103 2    
   204  102  104 am   BACKBONE|DICT|INTERRES
   205  104  105 1    
   206  104  225 1    
   207  105  106 1    
   208  105  107 1    
   209  105  226 1    
   210  106  227 1    
   211  106  228 1    
   212  106  229 1    
   213  107  108 2    
   214  107  109 am   BACKBONE|DICT|INTERRES
   215  109  110 1    
   216  109  230 1    
   217  110  111 1    
   218  110  112 1    
   219  110  231 1    
   220  111  232 1    
   221  111  233 1    
   222  111  234 1    
   223  112  113 2    
   224  112  114 am   BACKBONE|DICT|INTERRES
   225  114  115 1    
   226  114  235 1    
   227  115  116 1    
   228  115  117 1    
   229  115  236 1    
   230  116  237 1    
   231  116  238 1    
   232  116  239 1    
   233  117  118 2    
   234  117  119 am   BACKBONE|DICT|INTERRES
   235  119  120 1    
   236  119  240 1    
   237  120  121 1    
   238  120  124 1    
   239  120  241 1    
   240  121  122 am   BACKBONE|DICT|INTERRES
   241  121  123 2    
   242  122  242 1    
   243  122  243 1    
   244  124  125 1    
   245  124  244 1    
   246  124  245 1    
   247  125  126 1    
   248  126  246 1    
   249  126  247 1    
@<TRIPOS>SUBSTRUCTURE
     1 UNK         1 GROUP             0       ****    0 ROOT    
