@<TRIPOS>MOLECULE
3R540
247   249    1
SMALL
USER_CHARGES


@<TRIPOS>ATOM
      1 CA          8.7116   -9.4875  -49.5635 C.3       0 UNK        -0.1800 
      2 C           8.1584  -10.8948  -49.3891 C.2       0 UNK         0.5000 
      3 O           8.9293  -11.8537  -49.3551 O.2       0 UNK        -0.5000 
      4 N           6.8282  -11.0156  -49.2847 N.am      1 UNK        -0.5000 
      5 CA          6.0969  -12.2690  -49.0543 C.3       1 UNK         0.1400 
      6 C6          4.5605  -12.1007  -49.2080 C.3       23 UNK        -0.0398 
      7 S7          3.7846  -13.4819  -50.1081 S.3       23 UNK        -0.2404 
      8 C8          3.1280  -14.4931  -48.7479 C.3       23 UNK        -0.0205 
      9 C9          2.1597  -15.5359  -49.2822 C.ar      23 UNK        -0.0193 
     10 C10         0.8114  -15.2124  -49.4596 C.ar      23 UNK        -0.1150 
     11 C11        -0.0786  -16.1490  -49.9929 C.ar      23 UNK        -0.0193 
     12 C12         0.3878  -17.4182  -50.3445 C.ar      23 UNK        -0.1150 
     13 C13         1.7311  -17.7578  -50.1629 C.ar      23 UNK        -0.0193 
     14 C14         2.6121  -16.8131  -49.6267 C.ar      23 UNK        -0.1150 
     15 C15         2.2390  -19.1301  -50.5802 C.3       23 UNK        -0.0205 
     16 S16         2.1410  -20.3406  -49.2256 S.3       23 UNK        -0.2404 
     17 C17         0.3675  -20.7692  -49.2514 C.3       23 UNK        -0.0398 
     18 CA          0.0649  -22.0059  -48.3746 C.3       11 UNK         0.1400 
     19 N           0.1852  -21.7179  -46.9439 N.am      11 UNK        -0.5000 
     20 C           0.1669  -22.6397  -45.9724 C.2       10 UNK         0.5000 
     21 O           0.0822  -23.8506  -46.1802 O.2       10 UNK        -0.5000 
     22 CA          0.2042  -22.1197  -44.5236 C.3       10 UNK         0.1400 
     23 CB          1.6256  -21.6945  -44.1263 C.3       10 UNK        -0.1800 
     24 N          -0.7270  -21.0124  -44.2972 N.am      10 UNK        -0.5000 
     25 C          -2.0604  -21.1164  -44.3950 C.2       9 UNK         0.5000 
     26 O          -2.6457  -22.1666  -44.6559 O.2       9 UNK        -0.5000 
     27 CA         -2.8807  -19.8278  -44.2070 C.3       9 UNK         0.1400 
     28 CB         -3.0552  -19.5025  -42.7163 C.3       9 UNK        -0.1800 
     29 N          -2.2945  -18.6797  -44.8966 N.am      9 UNK        -0.5000 
     30 C          -2.1475  -18.5871  -46.2261 C.2       8 UNK         0.5000 
     31 O          -2.5363  -19.4412  -47.0202 O.2       8 UNK        -0.5000 
     32 CA         -1.3824  -17.3626  -46.7533 C.3       8 UNK         0.1400 
     33 CB         -2.2762  -16.1137  -46.7678 C.3       8 UNK        -0.1800 
     34 N          -0.1674  -17.0945  -45.9846 N.am      8 UNK        -0.5000 
     35 C           0.8701  -17.9397  -45.8943 C.2       7 UNK         0.5000 
     36 O           0.9165  -19.0297  -46.4567 O.2       7 UNK        -0.5000 
     37 CA          2.0206  -17.5259  -44.9650 C.3       7 UNK         0.1400 
     38 CB          2.9974  -16.5941  -45.6977 C.3       7 UNK        -0.1800 
     39 N           1.5278  -16.8781  -43.7501 N.am      7 UNK        -0.5000 
     40 C           0.8181  -17.5008  -42.7973 C.2       6 UNK         0.5000 
     41 O           0.5419  -18.7006  -42.8230 O.2       6 UNK        -0.5000 
     42 CA          0.2816  -16.6191  -41.6560 C.3       6 UNK         0.1400 
     43 CB          1.4010  -16.2734  -40.6625 C.3       6 UNK        -0.1800 
     44 N          -0.3243  -15.3835  -42.1550 N.am      6 UNK        -0.5000 
     45 C          -1.4536  -15.3281  -42.8769 C.2       5 UNK         0.5000 
     46 O          -2.1290  -16.3140  -43.1678 O.2       5 UNK        -0.5000 
     47 CA         -1.8292  -13.9562  -43.4486 C.3       5 UNK         0.1400 
     48 CB         -2.1654  -12.9346  -42.3492 C.3       5 UNK        -0.1800 
     49 N          -0.7010  -13.5004  -44.2466 N.am      5 UNK        -0.5000 
     50 C          -0.7314  -12.7617  -45.3548 C.2       4 UNK         0.5000 
     51 O          -1.7571  -12.2509  -45.8064 O.2       4 UNK        -0.5000 
     52 CA          0.6238  -12.6008  -46.0857 C.3       4 UNK         0.1400 
     53 CB          0.5522  -11.6157  -47.2659 C.3       4 UNK        -0.1800 
     54 N           1.7475  -12.2172  -45.2192 N.am      4 UNK        -0.5000 
     55 C           2.3368  -12.9632  -44.2747 C.2       3 UNK         0.5000 
     56 O           1.9576  -14.0967  -43.9717 O.2       3 UNK        -0.5000 
     57 CA          3.5592  -12.3468  -43.5700 C.3       3 UNK         0.1400 
     58 CB          4.0895  -13.2372  -42.4311 C.3       3 UNK        -0.1800 
     59 N           4.6427  -12.1085  -44.5233 N.am      3 UNK        -0.5000 
     60 C           4.7559  -11.0281  -45.3079 C.2       2 UNK         0.5000 
     61 O           3.9287  -10.1160  -45.3208 O.2       2 UNK        -0.5000 
     62 CA          5.9620  -10.9619  -46.2619 C.3       2 UNK         0.1400 
     63 CB          7.0818  -10.1066  -45.6498 C.3       2 UNK        -0.1800 
     64 N           6.4922  -12.2984  -46.5612 N.am      2 UNK        -0.5000 
     65 C           6.4809  -12.9708  -47.7249 C.2       1 UNK         0.5000 
     66 O           6.8202  -14.1523  -47.7647 O.2       1 UNK        -0.5000 
     67 C          -1.3047  -22.6231  -48.7194 C.2       11 UNK         0.5000 
     68 O          -1.3440  -23.6072  -49.4586 O.2       11 UNK        -0.5000 
     69 N          -2.3907  -22.0884  -48.1403 N.am      12 UNK        -0.5000 
     70 CA         -3.7403  -22.6375  -48.2693 C.3       12 UNK         0.1400 
     71 CB         -4.7630  -21.7114  -47.5970 C.3       12 UNK        -0.1800 
     72 C          -3.8515  -24.0603  -47.6997 C.2       12 UNK         0.5000 
     73 O          -4.4135  -24.9270  -48.3649 O.2       12 UNK        -0.5000 
     74 N          -3.2862  -24.2911  -46.5059 N.am      13 UNK        -0.5000 
     75 CA         -3.2376  -25.5999  -45.8516 C.3       13 UNK         0.1400 
     76 CB         -2.6642  -25.4557  -44.4341 C.3       13 UNK        -0.1800 
     77 C          -2.4480  -26.6441  -46.6610 C.2       13 UNK         0.5000 
     78 O          -2.9157  -27.7741  -46.8053 O.2       13 UNK        -0.5000 
     79 N          -1.3000  -26.2379  -47.2225 N.am      14 UNK        -0.5000 
     80 CA         -0.4744  -27.0564  -48.1158 C.3       14 UNK         0.1400 
     81 CB          0.8422  -26.3218  -48.4096 C.3       14 UNK        -0.1800 
     82 C          -1.1932  -27.4360  -49.4268 C.2       14 UNK         0.5000 
     83 O          -0.9995  -28.5431  -49.9296 O.2       14 UNK        -0.5000 
     84 N          -2.0382  -26.5279  -49.9298 N.am      15 UNK        -0.5000 
     85 CA         -2.9017  -26.7185  -51.0958 C.3       15 UNK         0.1400 
     86 CB         -3.1096  -25.3524  -51.7666 C.3       15 UNK        -0.1800 
     87 C          -4.2563  -27.3795  -50.7563 C.2       15 UNK         0.5000 
     88 O          -5.1139  -27.4662  -51.6362 O.2       15 UNK        -0.5000 
     89 N          -4.4514  -27.8072  -49.4981 N.am      16 UNK        -0.5000 
     90 CA         -5.6563  -28.4447  -48.9492 C.3       16 UNK         0.1400 
     91 CB         -5.8341  -29.8567  -49.5446 C.3       16 UNK        -0.1800 
     92 C          -6.9297  -27.5771  -49.0757 C.2       16 UNK         0.5000 
     93 O          -8.0278  -28.1097  -49.2442 O.2       16 UNK        -0.5000 
     94 N          -6.7460  -26.2505  -49.0119 N.am      17 UNK        -0.5000 
     95 CA         -7.7334  -25.1774  -49.1623 C.3       17 UNK         0.1400 
     96 CB         -8.7866  -25.2380  -48.0372 C.3       17 UNK        -0.1800 
     97 C          -8.3724  -25.0818  -50.5655 C.2       17 UNK         0.5000 
     98 O          -9.3467  -24.3461  -50.7322 O.2       17 UNK        -0.5000 
     99 N          -7.8206  -25.7959  -51.5574 N.am      18 UNK        -0.5000 
    100 CA        -8.3100  -25.7998  -52.9376 C.3       18 UNK         0.1400 
    101 CB        -7.8824  -27.1111  -53.6147 C.3       18 UNK        -0.1800 
    102 C         -7.8146  -24.5898  -53.7519 C.2       18 UNK         0.5000 
    103 O         -8.4284  -24.2530  -54.7654 O.2       18 UNK        -0.5000 
    104 N         -6.7170  -23.9672  -53.3085 N.am      19 UNK        -0.5000 
    105 CA        -6.0361  -22.8461  -53.9466 C.3       19 UNK         0.1400 
    106 CB        -5.2973  -23.3348  -55.2123 C.3       19 UNK        -0.1800 
    107 C         -5.0654  -22.2173  -52.9316 C.2       19 UNK         0.5000 
    108 O         -5.0531  -22.6193  -51.7662 O.2       19 UNK        -0.5000 
    109 N         -4.2597  -21.2549  -53.4037 N.am      20 UNK        -0.5000 
    110 CA        -3.0905  -20.6598  -52.7388 C.3       20 UNK         0.1400 
    111 CB        -2.0112  -21.7326  -52.4951 C.3       20 UNK        -0.1800 
    112 C         -3.3888  -19.8336  -51.4686 C.2       20 UNK         0.5000 
    113 O         -2.4616  -19.5053  -50.7294 O.2       20 UNK        -0.5000 
    114 N         -4.6605  -19.4735  -51.2563 N.am      21 UNK        -0.5000 
    115 CA        -5.1112  -18.6237  -50.1516 C.3       21 UNK         0.1400 
    116 CB        -6.5561  -19.0115  -49.7980 C.3       21 UNK        -0.1800 
    117 C         -5.0166  -17.1184  -50.4727 C.2       21 UNK         0.5000 
    118 O         -5.1693  -16.3029  -49.5635 O.2       21 UNK        -0.5000 
    119 N         -4.7815  -16.7784  -51.7489 N.am      22 UNK        -0.5000 
    120 CA        -4.7057  -15.4108  -52.3004 C.3       22 UNK         0.1400 
    121 C         -6.0673  -14.6470  -52.3325 C.2       22 UNK         0.5000 
    122 N         -7.2056  -15.3110  -52.1710 N.am      22 UNK        -0.7600 
    123 O         -6.1021  -13.4372  -52.5415 O.2       22 UNK        -0.5000 
    124 C124       -3.5629  -14.5508  -51.6872 C.3       23 UNK        -0.0398 
    125 S125       -1.9033  -15.2884  -51.8863 S.3       23 UNK        -0.2404 
    126 C126       -1.5444  -15.7937  -50.1780 C.3       23 UNK        -0.0205 
    127 H127        7.9198   -8.7380  -49.5762 H         1 UNK         0.0600 
    128 H128        9.3914   -9.2485  -48.7455 H         1 UNK         0.0600 
    129 H129        9.2642   -9.4145  -50.5003 H         1 UNK         0.0600 
    130 H130        6.2631  -10.1811  -49.3448 H         1 UNK         0.3000 
    131 H131        6.4379  -12.9305  -49.8542 H         1 UNK         0.0600 
    132 H132        4.0566  -11.9459  -48.2531 H         1 UNK         0.0800 
    133 H133        4.3387  -11.2076  -49.7937 H         1 UNK         0.0800 
    134 H134        3.9536  -14.9729  -48.2198 H         1 UNK         0.0800 
    135 H135        2.6231  -13.8564  -48.0225 H         1 UNK         0.0800 
    136 H136        0.4590  -14.2243  -49.1996 H         1 UNK         0.1150 
    137 H137       -0.2961  -18.1405  -50.7658 H         1 UNK         0.1150 
    138 H138        3.6548  -17.0662  -49.4955 H         1 UNK         0.1150 
    139 H139        1.6845  -19.4946  -51.4463 H         1 UNK         0.0800 
    140 H140        3.2787  -19.0520  -50.9011 H         1 UNK         0.0800 
    141 H141        0.0901  -20.9573  -50.2882 H         1 UNK         0.0800 
    142 H142       -0.2214  -19.9105  -48.9238 H         1 UNK         0.0800 
    143 H143        0.8097  -22.7696  -48.6093 H         1 UNK         0.0600 
    144 H144        0.3132  -20.7382  -46.6959 H         1 UNK         0.3000 
    145 H145       -0.0954  -22.9417  -43.8702 H         1 UNK         0.0600 
    146 H146        1.6670  -21.3849  -43.0818 H         1 UNK         0.0600 
    147 H147        2.3278  -22.5196  -44.2504 H         1 UNK         0.0600 
    148 H148        1.9843  -20.8646  -44.7350 H         1 UNK         0.0600 
    149 H149       -0.3216  -20.1180  -44.0424 H         1 UNK         0.3000 
    150 H150       -3.8708  -20.0007  -44.6335 H         1 UNK         0.0600 
    151 H151       -3.4998  -20.3430  -42.1820 H         1 UNK         0.0600 
    152 H152       -3.7115  -18.6435  -42.5757 H         1 UNK         0.0600 
    153 H153       -2.1019  -19.2750  -42.2383 H         1 UNK         0.0600 
    154 H154       -1.9885  -17.9092  -44.3104 H         1 UNK         0.3000 
    155 H155       -1.0803  -17.5833  -47.7779 H         1 UNK         0.0600 
    156 H156       -1.7300  -15.2376  -47.1163 H         1 UNK         0.0600 
    157 H157       -2.6742  -15.8869  -45.7796 H         1 UNK         0.0600 
    158 H158       -3.1276  -16.2560  -47.4346 H         1 UNK         0.0600 
    159 H159       -0.1380  -16.2411  -45.4506 H         1 UNK         0.3000 
    160 H160        2.5630  -18.4272  -44.6728 H         1 UNK         0.0600 
    161 H161        2.5011  -15.6930  -46.0576 H         1 UNK         0.0600 
    162 H162        3.4330  -17.0941  -46.5637 H         1 UNK         0.0600 
    163 H163        3.8182  -16.2891  -45.0484 H         1 UNK         0.0600 
    164 H164        1.7095  -15.8806  -43.6676 H         1 UNK         0.3000 
    165 H165       -0.4857  -17.1869  -41.1252 H         1 UNK         0.0600 
    166 H166        2.1892  -15.6823  -41.1307 H         1 UNK         0.0600 
    167 H167        1.0147  -15.7065  -39.8153 H         1 UNK         0.0600 
    168 H168        1.8618  -17.1784  -40.2643 H         1 UNK         0.0600 
    169 H169        0.1796  -14.5304  -41.9630 H         1 UNK         0.3000 
    170 H170       -2.7035  -14.0849  -44.0901 H         1 UNK         0.0600 
    171 H171       -2.9789  -13.2949  -41.7185 H         1 UNK         0.0600 
    172 H172       -1.3102  -12.7323  -41.7036 H         1 UNK         0.0600 
    173 H173       -2.4850  -11.9867  -42.7824 H         1 UNK         0.0600 
    174 H174        0.2108  -13.8679  -43.9820 H         1 UNK         0.3000 
    175 H175        0.8516  -13.5852  -46.4982 H         1 UNK         0.0600 
    176 H176        1.4952  -11.5805  -47.8114 H         1 UNK         0.0600 
    177 H177       -0.2193  -11.9094  -47.9788 H         1 UNK         0.0600 
    178 H178        0.3225  -10.6043  -46.9286 H         1 UNK         0.0600 
    179 H179        2.1350  -11.2945  -45.3788 H         1 UNK         0.3000 
    180 H180        3.2426  -11.3986  -43.1304 H         1 UNK         0.0600 
    181 H181        4.4172  -14.2114  -42.7968 H         1 UNK         0.0600 
    182 H182        3.3183  -13.4105  -41.6795 H         1 UNK         0.0600 
    183 H183        4.9333  -12.7682  -41.9250 H         1 UNK         0.0600 
    184 H184        5.3254  -12.8455  -44.6061 H         1 UNK         0.3000 
    185 H185        5.6028  -10.4537  -47.1537 H         1 UNK         0.0600 
    186 H186        7.9178   -9.9997  -46.3410 H         1 UNK         0.0600 
    187 H187        6.7250   -9.1027  -45.4154 H         1 UNK         0.0600 
    188 H188        7.4651  -10.5434  -44.7268 H         1 UNK         0.0600 
    189 H189        6.8571  -12.7928  -45.7615 H         1 UNK         0.3000 
    190 H190       -2.2971  -21.2415  -47.5851 H         1 UNK         0.3000 
    191 H191       -3.9742  -22.6840  -49.3342 H         1 UNK         0.0600 
    192 H192       -4.7320  -20.7142  -48.0299 H         1 UNK         0.0600 
    193 H193       -5.7773  -22.0907  -47.7264 H         1 UNK         0.0600 
    194 H194       -4.5802  -21.6144  -46.5269 H         1 UNK         0.0600 
    195 H195       -2.8787  -23.5126  -45.9944 H         1 UNK         0.3000 
    196 H196       -4.2645  -25.9607  -45.7641 H         1 UNK         0.0600 
    197 H197       -2.6289  -26.4202  -43.9263 H         1 UNK         0.0600 
    198 H198       -3.2794  -24.7913  -43.8271 H         1 UNK         0.0600 
    199 H199       -1.6513  -25.0531  -44.4470 H         1 UNK         0.0600 
    200 H200       -0.9621  -25.3010  -47.0197 H         1 UNK         0.3000 
    201 H201       -0.2363  -27.9833  -47.5903 H         1 UNK         0.0600 
    202 H202        1.3900  -26.1119  -47.4907 H         1 UNK         0.0600 
    203 H203        0.6691  -25.3735  -48.9189 H         1 UNK         0.0600 
    204 H204        1.4919  -26.9233  -49.0464 H         1 UNK         0.0600 
    205 H205       -2.1012  -25.6241  -49.4736 H         1 UNK         0.3000 
    206 H206       -2.3995  -27.3715  -51.8121 H         1 UNK         0.0600 
    207 H207       -3.7370  -25.4292  -52.6553 H         1 UNK         0.0600 
    208 H208       -3.5867  -24.6511  -51.0825 H         1 UNK         0.0600 
    209 H209       -2.1593  -24.9183  -52.0773 H         1 UNK         0.0600 
    210 H210       -3.7072  -27.6538  -48.8285 H         1 UNK         0.3000 
    211 H211       -5.4765  -28.5582  -47.8794 H         1 UNK         0.0600 
    212 H212       -6.0768  -29.8199  -50.6071 H         1 UNK         0.0600 
    213 H213       -6.6391  -30.3955  -49.0435 H         1 UNK         0.0600 
    214 H214       -4.9273  -30.4502  -49.4277 H         1 UNK         0.0600 
    215 H215       -5.7940  -25.9164  -48.8585 H         1 UNK         0.3000 
    216 H216       -7.1741  -24.2495  -49.0336 H         1 UNK         0.0600 
    217 H217       -8.3129  -25.2832  -47.0565 H         1 UNK         0.0600 
    218 H218       -9.4375  -26.1069  -48.1371 H         1 UNK         0.0600 
    219 H219       -9.4227  -24.3523  -48.0470 H         1 UNK         0.0600 
    220 H220       -7.0148  -26.3780  -51.3595 H         1 UNK         0.3000 
    221 H221       -9.4016  -25.7685  -52.9267 H         1 UNK         0.0600 
    222 H222       -6.7984  -27.1803  -53.7099 H         1 UNK         0.0600 
    223 H223       -8.2261  -27.9784  -53.0506 H         1 UNK         0.0600 
    224 H224       -8.3036  -27.1868  -54.6179 H         1 UNK         0.0600 
    225 H225       -6.3028  -24.2541  -52.4304 H         1 UNK         0.3000 
    226 H226       -6.7753  -22.0902  -54.2185 H         1 UNK         0.0600 
    227 H227       -5.9789  -23.8086  -55.9184 H         1 UNK         0.0600 
    228 H228       -4.8216  -22.5109  -55.7446 H         1 UNK         0.0600 
    229 H229       -4.5207  -24.0597  -54.9646 H         1 UNK         0.0600 
    230 H230       -4.3840  -20.9732  -54.3663 H         1 UNK         0.3000 
    231 H231       -2.6787  -19.9485  -53.4560 H         1 UNK         0.0600 
    232 H232       -1.8400  -22.3353  -53.3869 H         1 UNK         0.0600 
    233 H233       -2.2928  -22.4048  -51.6850 H         1 UNK         0.0600 
    234 H234       -1.0588  -21.2750  -52.2314 H         1 UNK         0.0600 
    235 H235       -5.3652  -19.8075  -51.8967 H         1 UNK         0.3000 
    236 H236       -4.4824  -18.8018  -49.2770 H         1 UNK         0.0600 
    237 H237       -6.9137  -18.4448  -48.9374 H         1 UNK         0.0600 
    238 H238       -7.2396  -18.8194  -50.6258 H         1 UNK         0.0600 
    239 H239       -6.6302  -20.0688  -49.5428 H         1 UNK         0.0600 
    240 H240       -4.6686  -17.5235  -52.4194 H         1 UNK         0.3000 
    241 H241       -4.4596  -15.5483  -53.3538 H         1 UNK         0.0600 
    242 H242       -7.2034  -16.3052  -52.0131 H         1 UNK         0.3800 
    243 H243       -8.0799  -14.8103  -52.2053 H         1 UNK         0.3800 
    244 H244       -3.5228  -13.5764  -52.1765 H         1 UNK         0.0800 
    245 H245       -3.7616  -14.3401  -50.6360 H         1 UNK         0.0800 
    246 H246       -1.8174  -14.9863  -49.4980 H         1 UNK         0.0800 
    247 H247       -2.1665  -16.6498  -49.9146 H         1 UNK         0.0800 
@<TRIPOS>BOND
     1    1    2 1    
     2    1  127 1    
     3    1  128 1    
     4    1  129 1    
     5    2    3 2    
     6    2    4 am   BACKBONE|DICT|INTERRES
     7    4    5 1    
     8    4  130 1    
     9    5    6 1    
    10    5   65 1    
    11    5  131 1    
    12    6    7 1    
    13    6  132 1    
    14    6  133 1    
    15    7    8 1    
    16    8    9 1    
    17    8  134 1    
    18    8  135 1    
    19    9   10 ar   
    20    9   14 ar   
    21   10   11 ar   
    22   10  136 1    
    23   11   12 ar   
    24   11  126 1    
    25   12   13 ar   
    26   12  137 1    
    27   13   14 ar   
    28   13   15 1    
    29   14  138 1    
    30   15   16 1    
    31   15  139 1    
    32   15  140 1    
    33   16   17 1    
    34   17   18 1    
    35   17  141 1    
    36   17  142 1    
    37   18   19 1    
    38   18   67 1    
    39   18  143 1    
    40   19   20 am   BACKBONE|DICT|INTERRES
    41   19  144 1    
    42   20   21 2    
    43   20   22 1    
    44   22   23 1    
    45   22   24 1    
    46   22  145 1    
    47   23  146 1    
    48   23  147 1    
    49   23  148 1    
    50   24   25 am   BACKBONE|DICT|INTERRES
    51   24  149 1    
    52   25   26 2    
    53   25   27 1    
    54   27   28 1    
    55   27   29 1    
    56   27  150 1    
    57   28  151 1    
    58   28  152 1    
    59   28  153 1    
    60   29   30 am   BACKBONE|DICT|INTERRES
    61   29  154 1    
    62   30   31 2    
    63   30   32 1    
    64   32   33 1    
    65   32   34 1    
    66   32  155 1    
    67   33  156 1    
    68   33  157 1    
    69   33  158 1    
    70   34   35 am   BACKBONE|DICT|INTERRES
    71   34  159 1    
    72   35   36 2    
    73   35   37 1    
    74   37   38 1    
    75   37   39 1    
    76   37  160 1    
    77   38  161 1    
    78   38  162 1    
    79   38  163 1    
    80   39   40 am   BACKBONE|DICT|INTERRES
    81   39  164 1    
    82   40   41 2    
    83   40   42 1    
    84   42   43 1    
    85   42   44 1    
    86   42  165 1    
    87   43  166 1    
    88   43  167 1    
    89   43  168 1    
    90   44   45 am   BACKBONE|DICT|INTERRES
    91   44  169 1    
    92   45   46 2    
    93   45   47 1    
    94   47   48 1    
    95   47   49 1    
    96   47  170 1    
    97   48  171 1    
    98   48  172 1    
    99   48  173 1    
   100   49   50 am   BACKBONE|DICT|INTERRES
   101   49  174 1    
   102   50   51 2    
   103   50   52 1    
   104   52   53 1    
   105   52   54 1    
   106   52  175 1    
   107   53  176 1    
   108   53  177 1    
   109   53  178 1    
   110   54   55 am   BACKBONE|DICT|INTERRES
   111   54  179 1    
   112   55   56 2    
   113   55   57 1    
   114   57   58 1    
   115   57   59 1    
   116   57  180 1    
   117   58  181 1    
   118   58  182 1    
   119   58  183 1    
   120   59   60 am   BACKBONE|DICT|INTERRES
   121   59  184 1    
   122   60   61 2    
   123   60   62 1    
   124   62   63 1    
   125   62   64 1    
   126   62  185 1    
   127   63  186 1    
   128   63  187 1    
   129   63  188 1    
   130   64   65 am   BACKBONE|DICT|INTERRES
   131   64  189 1    
   132   65   66 2    
   133   67   68 2    
   134   67   69 am   BACKBONE|DICT|INTERRES
   135   69   70 1    
   136   69  190 1    
   137   70   71 1    
   138   70   72 1    
   139   70  191 1    
   140   71  192 1    
   141   71  193 1    
   142   71  194 1    
   143   72   73 2    
   144   72   74 am   BACKBONE|DICT|INTERRES
   145   74   75 1    
   146   74  195 1    
   147   75   76 1    
   148   75   77 1    
   149   75  196 1    
   150   76  197 1    
   151   76  198 1    
   152   76  199 1    
   153   77   78 2    
   154   77   79 am   BACKBONE|DICT|INTERRES
   155   79   80 1    
   156   79  200 1    
   157   80   81 1    
   158   80   82 1    
   159   80  201 1    
   160   81  202 1    
   161   81  203 1    
   162   81  204 1    
   163   82   83 2    
   164   82   84 am   BACKBONE|DICT|INTERRES
   165   84   85 1    
   166   84  205 1    
   167   85   86 1    
   168   85   87 1    
   169   85  206 1    
   170   86  207 1    
   171   86  208 1    
   172   86  209 1    
   173   87   88 2    
   174   87   89 am   BACKBONE|DICT|INTERRES
   175   89   90 1    
   176   89  210 1    
   177   90   91 1    
   178   90   92 1    
   179   90  211 1    
   180   91  212 1    
   181   91  213 1    
   182   91  214 1    
   183   92   93 2    
   184   92   94 am   BACKBONE|DICT|INTERRES
   185   94   95 1    
   186   94  215 1    
   187   95   96 1    
   188   95   97 1    
   189   95  216 1    
   190   96  217 1    
   191   96  218 1    
   192   96  219 1    
   193   97   98 2    
   194   97   99 am   BACKBONE|DICT|INTERRES
   195   99  100 1    
   196   99  220 1    
   197  100  101 1    
   198  100  102 1    
   199  100  221 1    
   200  101  222 1    
   201  101  223 1    
   202  101  224 1    
   203  102  103 2    
   204  102  104 am   BACKBONE|DICT|INTERRES
   205  104  105 1    
   206  104  225 1    
   207  105  106 1    
   208  105  107 1    
   209  105  226 1    
   210  106  227 1    
   211  106  228 1    
   212  106  229 1    
   213  107  108 2    
   214  107  109 am   BACKBONE|DICT|INTERRES
   215  109  110 1    
   216  109  230 1    
   217  110  111 1    
   218  110  112 1    
   219  110  231 1    
   220  111  232 1    
   221  111  233 1    
   222  111  234 1    
   223  112  113 2    
   224  112  114 am   BACKBONE|DICT|INTERRES
   225  114  115 1    
   226  114  235 1    
   227  115  116 1    
   228  115  117 1    
   229  115  236 1    
   230  116  237 1    
   231  116  238 1    
   232  116  239 1    
   233  117  118 2    
   234  117  119 am   BACKBONE|DICT|INTERRES
   235  119  120 1    
   236  119  240 1    
   237  120  121 1    
   238  120  124 1    
   239  120  241 1    
   240  121  122 am   BACKBONE|DICT|INTERRES
   241  121  123 2    
   242  122  242 1    
   243  122  243 1    
   244  124  125 1    
   245  124  244 1    
   246  124  245 1    
   247  125  126 1    
   248  126  246 1    
   249  126  247 1    
@<TRIPOS>SUBSTRUCTURE
     1 UNK         1 GROUP             0       ****    0 ROOT    
