@<TRIPOS>MOLECULE
3R540
247   249    1
SMALL
USER_CHARGES


@<TRIPOS>ATOM
      1 CA          2.7342  -10.9688  -45.7222 C.3       0 UNK        -0.1800 
      2 C           1.9361  -11.9238  -46.5966 C.2       0 UNK         0.5000 
      3 O           0.7127  -11.7974  -46.6884 O.2       0 UNK        -0.5000 
      4 N           2.6177  -12.8671  -47.2640 N.am      1 UNK        -0.5000 
      5 CA          2.0446  -13.8842  -48.1602 C.3       1 UNK         0.1400 
      6 C6          2.9730  -15.1182  -48.2923 C.3       23 UNK        -0.0398 
      7 S7          2.0719  -16.6111  -48.8378 S.3       23 UNK        -0.2404 
      8 C8          3.0130  -17.0596  -50.3301 C.3       23 UNK        -0.0205 
      9 C9          2.2559  -18.0194  -51.2385 C.ar      23 UNK        -0.0193 
     10 C10         2.0721  -17.6987  -52.5862 C.ar      23 UNK        -0.1150 
     11 C11         1.4153  -18.5813  -53.4458 C.ar      23 UNK        -0.0193 
     12 C12         0.9383  -19.7968  -52.9444 C.ar      23 UNK        -0.1150 
     13 C13         1.1015  -20.1320  -51.5956 C.ar      23 UNK        -0.0193 
     14 C14         1.7670  -19.2356  -50.7503 C.ar      23 UNK        -0.1150 
     15 C15         0.5079  -21.4363  -51.0664 C.3       23 UNK        -0.0205 
     16 S16         1.6721  -22.4100  -50.0560 S.3       23 UNK        -0.2404 
     17 C17         1.2945  -21.8215  -48.3673 C.3       23 UNK        -0.0398 
     18 CA          0.7473  -22.9431  -47.4528 C.3       11 UNK         0.1400 
     19 N           0.8953  -22.6121  -46.0331 N.am      11 UNK        -0.5000 
     20 C           0.7178  -23.4852  -45.0313 C.2       10 UNK         0.5000 
     21 O           0.4288  -24.6694  -45.2017 O.2       10 UNK        -0.5000 
     22 CA          0.8485  -22.9405  -43.5979 C.3       10 UNK         0.1400 
     23 CB          2.3253  -22.7759  -43.2093 C.3       10 UNK        -0.1800 
     24 N           0.1419  -21.6740  -43.4051 N.am      10 UNK        -0.5000 
     25 C          -1.1851  -21.5196  -43.5198 C.2       9 UNK         0.5000 
     26 O          -1.9616  -22.4393  -43.7723 O.2       9 UNK        -0.5000 
     27 CA         -1.7352  -20.0887  -43.3841 C.3       9 UNK         0.1400 
     28 CB         -1.8176  -19.6649  -41.9102 C.3       9 UNK        -0.1800 
     29 N          -0.9482  -19.1102  -44.1323 N.am      9 UNK        -0.5000 
     30 C          -0.7546  -19.1402  -45.4584 C.2       8 UNK         0.5000 
     31 O          -1.2399  -19.9853  -46.2083 O.2       8 UNK        -0.5000 
     32 CA          0.1961  -18.0809  -46.0316 C.3       8 UNK         0.1400 
     33 CB         -0.4946  -16.7095  -46.1152 C.3       8 UNK        -0.1800 
     34 N           1.4211  -17.9792  -45.2399 N.am      8 UNK        -0.5000 
     35 C           2.3408  -18.9507  -45.1436 C.2       7 UNK         0.5000 
     36 O           2.2695  -20.0258  -45.7386 O.2       7 UNK        -0.5000 
     37 CA          3.5156  -18.6914  -44.1840 C.3       7 UNK         0.1400 
     38 CB          4.5983  -17.8507  -44.8777 C.3       7 UNK        -0.1800 
     39 N           3.0950  -18.0203  -42.9528 N.am      7 UNK        -0.5000 
     40 C           2.2809  -18.5552  -42.0302 C.2       6 UNK         0.5000 
     41 O           1.8393  -19.7019  -42.0887 O.2       6 UNK        -0.5000 
     42 CA          1.8369  -17.6249  -40.8843 C.3       6 UNK         0.1400 
     43 CB          2.8680  -17.6345  -39.7463 C.3       6 UNK        -0.1800 
     44 N           1.6160  -16.2466  -41.3351 N.am      6 UNK        -0.5000 
     45 C           0.6838  -15.8929  -42.2289 C.2       5 UNK         0.5000 
     46 O          -0.1317  -16.6840  -42.7124 O.2       5 UNK        -0.5000 
     47 CA          0.7124  -14.4382  -42.7164 C.3       5 UNK         0.1400 
     48 CB          1.9352  -14.2087  -43.6290 C.3       5 UNK        -0.1800 
     49 N          -0.5251  -14.1790  -43.4453 N.am      5 UNK        -0.5000 
     50 C          -0.9577  -12.9980  -43.8941 C.2       4 UNK         0.5000 
     51 O          -0.3682  -11.9302  -43.7132 O.2       4 UNK        -0.5000 
     52 CA         -2.2958  -13.0078  -44.6450 C.3       4 UNK         0.1400 
     53 CB         -3.4460  -12.6374  -43.6875 C.3       4 UNK        -0.1800 
     54 N          -2.2200  -12.0694  -45.7625 N.am      4 UNK        -0.5000 
     55 C          -3.1154  -11.9629  -46.7530 C.2       3 UNK         0.5000 
     56 O          -4.1207  -12.6678  -46.8467 O.2       3 UNK        -0.5000 
     57 CA         -2.8276  -10.9189  -47.8411 C.3       3 UNK         0.1400 
     58 CB         -2.7004   -9.4970  -47.2651 C.3       3 UNK        -0.1800 
     59 N          -1.6074  -11.2833  -48.5520 N.am      3 UNK        -0.5000 
     60 C          -1.3997  -11.1349  -49.8710 C.2       2 UNK         0.5000 
     61 O          -2.2295  -10.6365  -50.6326 O.2       2 UNK        -0.5000 
     62 CA         -0.0482  -11.6125  -50.4465 C.3       2 UNK         0.1400 
     63 CB          0.7469  -10.4533  -51.0707 C.3       2 UNK        -0.1800 
     64 N           0.7528  -12.2454  -49.4069 N.am      2 UNK        -0.5000 
     65 C           1.5679  -13.2933  -49.5129 C.2       1 UNK         0.5000 
     66 O           1.9229  -13.7767  -50.5884 O.2       1 UNK        -0.5000 
     67 C          -0.7048  -23.3336  -47.8022 C.2       11 UNK         0.5000 
     68 O          -0.9140  -24.3349  -48.4871 O.2       11 UNK        -0.5000 
     69 N          -1.6835  -22.5789  -47.2824 N.am      12 UNK        -0.5000 
     70 CA         -3.1093  -22.8662  -47.4354 C.3       12 UNK         0.1400 
     71 CB         -3.9370  -21.6846  -46.9093 C.3       12 UNK        -0.1800 
     72 C          -3.5316  -24.1839  -46.7584 C.2       12 UNK         0.5000 
     73 O          -4.3036  -24.9438  -47.3418 O.2       12 UNK        -0.5000 
     74 N          -2.9904  -24.4613  -45.5635 N.am      13 UNK        -0.5000 
     75 CA         -3.1960  -25.7165  -44.8385 C.3       13 UNK         0.1400 
     76 CB         -2.6235  -25.6013  -43.4179 C.3       13 UNK        -0.1800 
     77 C          -2.5988  -26.9315  -45.5717 C.2       13 UNK         0.5000 
     78 O          -3.2397  -27.9818  -45.6163 O.2       13 UNK        -0.5000 
     79 N          -1.4047  -26.7604  -46.1572 N.am      14 UNK        -0.5000 
     80 CA         -0.7289  -27.7683  -46.9760 C.3       14 UNK         0.1400 
     81 CB          0.7175  -27.3273  -47.2476 C.3       14 UNK        -0.1800 
     82 C          -1.4716  -28.0579  -48.2939 C.2       14 UNK         0.5000 
     83 O          -1.5880  -29.2212  -48.6815 O.2       14 UNK        -0.5000 
     84 N          -1.9781  -27.0017  -48.9453 N.am      15 UNK        -0.5000 
     85 CA         -2.7923  -27.0856  -50.1597 C.3       15 UNK         0.1400 
     86 CB         -2.8776  -25.6920  -50.8001 C.3       15 UNK        -0.1800 
     87 C          -4.2099  -27.6360  -49.9079 C.2       15 UNK         0.5000 
     88 O          -4.8086  -28.1977  -50.8259 O.2       15 UNK        -0.5000 
     89 N          -4.7174  -27.4417  -48.6818 N.am      16 UNK        -0.5000 
     90 CA         -6.0785  -27.7193  -48.2133 C.3       16 UNK         0.1400 
     91 CB         -6.3845  -29.2311  -48.2464 C.3       16 UNK        -0.1800 
     92 C          -7.1325  -26.8603  -48.9457 C.2       16 UNK         0.5000 
     93 O          -8.2377  -27.3306  -49.2226 O.2       16 UNK        -0.5000 
     94 N          -6.7617  -25.6118  -49.2505 N.am      17 UNK        -0.5000 
     95 CA         -7.5351  -24.6285  -50.0016 C.3       17 UNK         0.1400 
     96 CB         -7.5910  -25.0241  -51.4903 C.3       17 UNK        -0.1800 
     97 C          -6.8587  -23.2611  -49.8390 C.2       17 UNK         0.5000 
     98 O          -5.6912  -23.2008  -49.4483 O.2       17 UNK        -0.5000 
     99 N          -7.5688  -22.1812  -50.1884 N.am      18 UNK        -0.5000 
    100 CA        -7.0893  -20.7926  -50.1488 C.3       18 UNK         0.1400 
    101 CB        -8.3063  -19.8501  -50.1540 C.3       18 UNK        -0.1800 
    102 C         -6.0781  -20.4627  -51.2742 C.2       18 UNK         0.5000 
    103 O         -6.2322  -19.4682  -51.9853 O.2       18 UNK        -0.5000 
    104 N         -5.0568  -21.3146  -51.4198 N.am      19 UNK        -0.5000 
    105 CA        -4.0144  -21.2474  -52.4431 C.3       19 UNK         0.1400 
    106 CB        -3.2234  -22.5637  -52.4262 C.3       19 UNK        -0.1800 
    107 C         -3.0596  -20.0545  -52.2728 C.2       19 UNK         0.5000 
    108 O         -2.4736  -19.6099  -53.2557 O.2       19 UNK        -0.5000 
    109 N         -2.9294  -19.5491  -51.0393 N.am      20 UNK        -0.5000 
    110 CA        -2.0263  -18.4603  -50.6621 C.3       20 UNK         0.1400 
    111 CB        -1.7519  -18.5459  -49.1560 C.3       20 UNK        -0.1800 
    112 C         -2.4934  -17.0512  -51.0784 C.2       20 UNK         0.5000 
    113 O         -1.8384  -16.0728  -50.7183 O.2       20 UNK        -0.5000 
    114 N         -3.5869  -16.9518  -51.8480 N.am      21 UNK        -0.5000 
    115 CA        -4.1083  -15.7089  -52.4263 C.3       21 UNK         0.1400 
    116 CB        -5.4071  -16.0219  -53.1843 C.3       21 UNK        -0.1800 
    117 C         -3.1050  -14.9769  -53.3451 C.2       21 UNK         0.5000 
    118 O         -3.1646  -13.7516  -53.4507 O.2       21 UNK        -0.5000 
    119 N         -2.1895  -15.7338  -53.9635 N.am      22 UNK        -0.5000 
    120 CA        -1.0187  -15.2288  -54.6986 C.3       22 UNK         0.1400 
    121 C          0.1690  -14.7615  -53.8036 C.2       22 UNK         0.5000 
    122 N          0.1082  -14.8750  -52.4831 N.am      22 UNK        -0.7600 
    123 O          1.1620  -14.2585  -54.3223 O.2       22 UNK        -0.5000 
    124 C124       -0.5685  -16.2015  -55.8243 C.3       23 UNK        -0.0398 
    125 S125       -0.5039  -17.9667  -55.3523 S.3       23 UNK        -0.2404 
    126 C126        1.2441  -18.2360  -54.9194 C.3       23 UNK        -0.0205 
    127 H127        3.7570  -11.3153  -45.5740 H         1 UNK         0.0600 
    128 H128        2.2623  -10.8723  -44.7443 H         1 UNK         0.0600 
    129 H129        2.7677   -9.9814  -46.1822 H         1 UNK         0.0600 
    130 H130        3.6241  -12.8858  -47.1793 H         1 UNK         0.3000 
    131 H131        1.1346  -14.2326  -47.6688 H         1 UNK         0.0600 
    132 H132        3.8167  -14.9045  -48.9503 H         1 UNK         0.0800 
    133 H133        3.4072  -15.3590  -47.3210 H         1 UNK         0.0800 
    134 H134        3.9581  -17.5162  -50.0341 H         1 UNK         0.0800 
    135 H135        3.2640  -16.1504  -50.8784 H         1 UNK         0.0800 
    136 H136        2.4472  -16.7602  -52.9701 H         1 UNK         0.1150 
    137 H137        0.4171  -20.4724  -53.6085 H         1 UNK         0.1150 
    138 H138        1.9044  -19.4741  -49.7065 H         1 UNK         0.1150 
    139 H139       -0.3985  -21.2215  -50.4997 H         1 UNK         0.0800 
    140 H140        0.1938  -22.0661  -51.9002 H         1 UNK         0.0800 
    141 H141        0.6178  -20.9658  -48.3851 H         1 UNK         0.0800 
    142 H142        2.2346  -21.4456  -47.9623 H         1 UNK         0.0800 
    143 H143        1.3621  -23.8305  -47.6201 H         1 UNK         0.0600 
    144 H144        1.1640  -21.6571  -45.8146 H         1 UNK         0.3000 
    145 H145        0.4021  -23.6745  -42.9240 H         1 UNK         0.0600 
    146 H146        2.4264  -22.4817  -42.1646 H         1 UNK         0.0600 
    147 H147        2.8703  -23.7118  -43.3379 H         1 UNK         0.0600 
    148 H148        2.8209  -22.0195  -43.8185 H         1 UNK         0.0600 
    149 H149        0.7095  -20.8717  -43.1470 H         1 UNK         0.3000 
    150 H150       -2.7460  -20.0819  -43.7969 H         1 UNK         0.0600 
    151 H151       -2.4354  -20.3590  -41.3391 H         1 UNK         0.0600 
    152 H152       -2.2609  -18.6741  -41.8094 H         1 UNK         0.0600 
    153 H153       -0.8338  -19.6389  -41.4417 H         1 UNK         0.0600 
    154 H154       -0.5270  -18.3576  -43.5956 H         1 UNK         0.3000 
    155 H155        0.4761  -18.3916  -47.0397 H         1 UNK         0.0600 
    156 H156        0.1929  -15.9391  -46.4584 H         1 UNK         0.0600 
    157 H157       -1.3318  -16.7344  -46.8124 H         1 UNK         0.0600 
    158 H158       -0.8951  -16.3945  -45.1543 H         1 UNK         0.0600 
    159 H159        1.5313  -17.1515  -44.6764 H         1 UNK         0.3000 
    160 H160        3.9481  -19.6573  -43.9148 H         1 UNK         0.0600 
    161 H161        4.2313  -16.8589  -45.1453 H         1 UNK         0.0600 
    162 H162        4.9376  -18.3329  -45.7955 H         1 UNK         0.0600 
    163 H163        5.4707  -17.7245  -44.2364 H         1 UNK         0.0600 
    164 H164        3.4187  -17.0747  -42.8164 H         1 UNK         0.3000 
    165 H165        0.8921  -18.0079  -40.4929 H         1 UNK         0.0600 
    166 H166        2.5259  -17.0393  -38.8994 H         1 UNK         0.0600 
    167 H167        3.0365  -18.6488  -39.3819 H         1 UNK         0.0600 
    168 H168        3.8311  -17.2373  -40.0694 H         1 UNK         0.0600 
    169 H169        2.2483  -15.5458  -40.9757 H         1 UNK         0.3000 
    170 H170        0.7627  -13.7803  -41.8468 H         1 UNK         0.0600 
    171 H171        2.8641  -14.5069  -43.1420 H         1 UNK         0.0600 
    172 H172        1.8554  -14.7685  -44.5617 H         1 UNK         0.0600 
    173 H173        2.0419  -13.1554  -43.8804 H         1 UNK         0.0600 
    174 H174       -1.0867  -15.0117  -43.5756 H         1 UNK         0.3000 
    175 H175       -2.4668  -14.0090  -45.0464 H         1 UNK         0.0600 
    176 H176       -3.4620  -13.3003  -42.8215 H         1 UNK         0.0600 
    177 H177       -3.3442  -11.6164  -43.3178 H         1 UNK         0.0600 
    178 H178       -4.4185  -12.7224  -44.1717 H         1 UNK         0.0600 
    179 H179       -1.3826  -11.4965  -45.7649 H         1 UNK         0.3000 
    180 H180       -3.6751  -10.9343  -48.5300 H         1 UNK         0.0600 
    181 H181       -1.8284   -9.3961  -46.6180 H         1 UNK         0.0600 
    182 H182       -3.5810   -9.2329  -46.6783 H         1 UNK         0.0600 
    183 H183       -2.6082   -8.7597  -48.0627 H         1 UNK         0.0600 
    184 H184       -0.8995  -11.7217  -47.9770 H         1 UNK         0.3000 
    185 H185       -0.2755  -12.3456  -51.2227 H         1 UNK         0.0600 
    186 H186        1.6780  -10.8087  -51.5124 H         1 UNK         0.0600 
    187 H187        0.1763   -9.9684  -51.8636 H         1 UNK         0.0600 
    188 H188        0.9948   -9.6934  -50.3288 H         1 UNK         0.0600 
    189 H189        0.6176  -11.8918  -48.4640 H         1 UNK         0.3000 
    190 H190       -1.4441  -21.7469  -46.7468 H         1 UNK         0.3000 
    191 H191       -3.3032  -22.9672  -48.5042 H         1 UNK         0.0600 
    192 H192       -3.7497  -21.5029  -45.8505 H         1 UNK         0.0600 
    193 H193       -5.0047  -21.8724  -47.0295 H         1 UNK         0.0600 
    194 H194       -3.7043  -20.7689  -47.4528 H         1 UNK         0.0600 
    195 H195       -2.4098  -23.7624  -45.1083 H         1 UNK         0.3000 
    196 H196       -4.2726  -25.8789  -44.7546 H         1 UNK         0.0600 
    197 H197       -2.7704  -26.5272  -42.8605 H         1 UNK         0.0600 
    198 H198       -3.1153  -24.8049  -42.8592 H         1 UNK         0.0600 
    199 H199       -1.5540  -25.3903  -43.4296 H         1 UNK         0.0600 
    200 H200       -0.9152  -25.8808  -46.0217 H         1 UNK         0.3000 
    201 H201       -0.6959  -28.6973  -46.4030 H         1 UNK         0.0600 
    202 H202        1.2696  -27.1940  -46.3171 H         1 UNK         0.0600 
    203 H203        0.7569  -26.3862  -47.7964 H         1 UNK         0.0600 
    204 H204        1.2494  -28.0745  -47.8377 H         1 UNK         0.0600 
    205 H205       -1.7713  -26.0680  -48.6001 H         1 UNK         0.3000 
    206 H206       -2.2939  -27.7562  -50.8626 H         1 UNK         0.0600 
    207 H207       -1.8872  -25.3063  -51.0426 H         1 UNK         0.0600 
    208 H208       -3.4518  -25.7232  -51.7267 H         1 UNK         0.0600 
    209 H209       -3.3630  -24.9746  -50.1369 H         1 UNK         0.0600 
    210 H210       -4.1582  -26.8922  -48.0394 H         1 UNK         0.3000 
    211 H211       -6.1042  -27.4031  -47.1696 H         1 UNK         0.0600 
    212 H212       -6.4494  -29.6119  -49.2659 H         1 UNK         0.0600 
    213 H213       -7.3350  -29.4466  -47.7572 H         1 UNK         0.0600 
    214 H214       -5.6148  -29.7988  -47.7234 H         1 UNK         0.0600 
    215 H215       -5.8607  -25.2687  -48.9275 H         1 UNK         0.3000 
    216 H216       -8.5438  -24.5724  -49.5881 H         1 UNK         0.0600 
    217 H217       -6.5908  -25.1094  -51.9177 H         1 UNK         0.0600 
    218 H218       -8.1373  -24.2846  -52.0768 H         1 UNK         0.0600 
    219 H219       -8.0956  -25.9797  -51.6323 H         1 UNK         0.0600 
    220 H220       -8.5058  -22.3127  -50.5412 H         1 UNK         0.3000 
    221 H221       -6.5631  -20.6419  -49.2038 H         1 UNK         0.0600 
    222 H222       -8.9737  -20.0627  -49.3186 H         1 UNK         0.0600 
    223 H223       -8.8818  -19.9418  -51.0760 H         1 UNK         0.0600 
    224 H224       -7.9971  -18.8081  -50.0609 H         1 UNK         0.0600 
    225 H225       -5.0237  -22.1031  -50.7780 H         1 UNK         0.3000 
    226 H226       -4.4995  -21.1468  -53.4162 H         1 UNK         0.0600 
    227 H227       -3.8747  -23.4147  -52.6253 H         1 UNK         0.0600 
    228 H228       -2.4452  -22.5645  -53.1907 H         1 UNK         0.0600 
    229 H229       -2.7380  -22.7281  -51.4630 H         1 UNK         0.0600 
    230 H230       -3.4759  -19.9611  -50.2981 H         1 UNK         0.3000 
    231 H231       -1.0801  -18.6144  -51.1789 H         1 UNK         0.0600 
    232 H232       -2.6458  -18.3402  -48.5663 H         1 UNK         0.0600 
    233 H233       -0.9869  -17.8248  -48.8693 H         1 UNK         0.0600 
    234 H234       -1.3829  -19.5325  -48.8776 H         1 UNK         0.0600 
    235 H235       -4.0704  -17.8030  -52.0983 H         1 UNK         0.3000 
    236 H236       -4.3453  -15.0356  -51.6001 H         1 UNK         0.0600 
    237 H237       -6.1537  -16.4630  -52.5234 H         1 UNK         0.0600 
    238 H238       -5.8421  -15.1154  -53.6072 H         1 UNK         0.0600 
    239 H239       -5.2340  -16.7187  -54.0055 H         1 UNK         0.0600 
    240 H240       -2.2105  -16.7347  -53.8221 H         1 UNK         0.3000 
    241 H241       -1.3362  -14.3156  -55.2055 H         1 UNK         0.0600 
    242 H242        0.8829  -14.5358  -51.9186 H         1 UNK         0.3800 
    243 H243       -0.6889  -15.2921  -52.0140 H         1 UNK         0.3800 
    244 H244        0.3797  -15.8959  -56.2694 H         1 UNK         0.0800 
    245 H245       -1.2902  -16.1337  -56.6391 H         1 UNK         0.0800 
    246 H246        1.6301  -19.0592  -55.5220 H         1 UNK         0.0800 
    247 H247        1.8411  -17.3620  -55.1832 H         1 UNK         0.0800 
@<TRIPOS>BOND
     1    1    2 1    
     2    1  127 1    
     3    1  128 1    
     4    1  129 1    
     5    2    3 2    
     6    2    4 am   BACKBONE|DICT|INTERRES
     7    4    5 1    
     8    4  130 1    
     9    5    6 1    
    10    5   65 1    
    11    5  131 1    
    12    6    7 1    
    13    6  132 1    
    14    6  133 1    
    15    7    8 1    
    16    8    9 1    
    17    8  134 1    
    18    8  135 1    
    19    9   10 ar   
    20    9   14 ar   
    21   10   11 ar   
    22   10  136 1    
    23   11   12 ar   
    24   11  126 1    
    25   12   13 ar   
    26   12  137 1    
    27   13   14 ar   
    28   13   15 1    
    29   14  138 1    
    30   15   16 1    
    31   15  139 1    
    32   15  140 1    
    33   16   17 1    
    34   17   18 1    
    35   17  141 1    
    36   17  142 1    
    37   18   19 1    
    38   18   67 1    
    39   18  143 1    
    40   19   20 am   BACKBONE|DICT|INTERRES
    41   19  144 1    
    42   20   21 2    
    43   20   22 1    
    44   22   23 1    
    45   22   24 1    
    46   22  145 1    
    47   23  146 1    
    48   23  147 1    
    49   23  148 1    
    50   24   25 am   BACKBONE|DICT|INTERRES
    51   24  149 1    
    52   25   26 2    
    53   25   27 1    
    54   27   28 1    
    55   27   29 1    
    56   27  150 1    
    57   28  151 1    
    58   28  152 1    
    59   28  153 1    
    60   29   30 am   BACKBONE|DICT|INTERRES
    61   29  154 1    
    62   30   31 2    
    63   30   32 1    
    64   32   33 1    
    65   32   34 1    
    66   32  155 1    
    67   33  156 1    
    68   33  157 1    
    69   33  158 1    
    70   34   35 am   BACKBONE|DICT|INTERRES
    71   34  159 1    
    72   35   36 2    
    73   35   37 1    
    74   37   38 1    
    75   37   39 1    
    76   37  160 1    
    77   38  161 1    
    78   38  162 1    
    79   38  163 1    
    80   39   40 am   BACKBONE|DICT|INTERRES
    81   39  164 1    
    82   40   41 2    
    83   40   42 1    
    84   42   43 1    
    85   42   44 1    
    86   42  165 1    
    87   43  166 1    
    88   43  167 1    
    89   43  168 1    
    90   44   45 am   BACKBONE|DICT|INTERRES
    91   44  169 1    
    92   45   46 2    
    93   45   47 1    
    94   47   48 1    
    95   47   49 1    
    96   47  170 1    
    97   48  171 1    
    98   48  172 1    
    99   48  173 1    
   100   49   50 am   BACKBONE|DICT|INTERRES
   101   49  174 1    
   102   50   51 2    
   103   50   52 1    
   104   52   53 1    
   105   52   54 1    
   106   52  175 1    
   107   53  176 1    
   108   53  177 1    
   109   53  178 1    
   110   54   55 am   BACKBONE|DICT|INTERRES
   111   54  179 1    
   112   55   56 2    
   113   55   57 1    
   114   57   58 1    
   115   57   59 1    
   116   57  180 1    
   117   58  181 1    
   118   58  182 1    
   119   58  183 1    
   120   59   60 am   BACKBONE|DICT|INTERRES
   121   59  184 1    
   122   60   61 2    
   123   60   62 1    
   124   62   63 1    
   125   62   64 1    
   126   62  185 1    
   127   63  186 1    
   128   63  187 1    
   129   63  188 1    
   130   64   65 am   BACKBONE|DICT|INTERRES
   131   64  189 1    
   132   65   66 2    
   133   67   68 2    
   134   67   69 am   BACKBONE|DICT|INTERRES
   135   69   70 1    
   136   69  190 1    
   137   70   71 1    
   138   70   72 1    
   139   70  191 1    
   140   71  192 1    
   141   71  193 1    
   142   71  194 1    
   143   72   73 2    
   144   72   74 am   BACKBONE|DICT|INTERRES
   145   74   75 1    
   146   74  195 1    
   147   75   76 1    
   148   75   77 1    
   149   75  196 1    
   150   76  197 1    
   151   76  198 1    
   152   76  199 1    
   153   77   78 2    
   154   77   79 am   BACKBONE|DICT|INTERRES
   155   79   80 1    
   156   79  200 1    
   157   80   81 1    
   158   80   82 1    
   159   80  201 1    
   160   81  202 1    
   161   81  203 1    
   162   81  204 1    
   163   82   83 2    
   164   82   84 am   BACKBONE|DICT|INTERRES
   165   84   85 1    
   166   84  205 1    
   167   85   86 1    
   168   85   87 1    
   169   85  206 1    
   170   86  207 1    
   171   86  208 1    
   172   86  209 1    
   173   87   88 2    
   174   87   89 am   BACKBONE|DICT|INTERRES
   175   89   90 1    
   176   89  210 1    
   177   90   91 1    
   178   90   92 1    
   179   90  211 1    
   180   91  212 1    
   181   91  213 1    
   182   91  214 1    
   183   92   93 2    
   184   92   94 am   BACKBONE|DICT|INTERRES
   185   94   95 1    
   186   94  215 1    
   187   95   96 1    
   188   95   97 1    
   189   95  216 1    
   190   96  217 1    
   191   96  218 1    
   192   96  219 1    
   193   97   98 2    
   194   97   99 am   BACKBONE|DICT|INTERRES
   195   99  100 1    
   196   99  220 1    
   197  100  101 1    
   198  100  102 1    
   199  100  221 1    
   200  101  222 1    
   201  101  223 1    
   202  101  224 1    
   203  102  103 2    
   204  102  104 am   BACKBONE|DICT|INTERRES
   205  104  105 1    
   206  104  225 1    
   207  105  106 1    
   208  105  107 1    
   209  105  226 1    
   210  106  227 1    
   211  106  228 1    
   212  106  229 1    
   213  107  108 2    
   214  107  109 am   BACKBONE|DICT|INTERRES
   215  109  110 1    
   216  109  230 1    
   217  110  111 1    
   218  110  112 1    
   219  110  231 1    
   220  111  232 1    
   221  111  233 1    
   222  111  234 1    
   223  112  113 2    
   224  112  114 am   BACKBONE|DICT|INTERRES
   225  114  115 1    
   226  114  235 1    
   227  115  116 1    
   228  115  117 1    
   229  115  236 1    
   230  116  237 1    
   231  116  238 1    
   232  116  239 1    
   233  117  118 2    
   234  117  119 am   BACKBONE|DICT|INTERRES
   235  119  120 1    
   236  119  240 1    
   237  120  121 1    
   238  120  124 1    
   239  120  241 1    
   240  121  122 am   BACKBONE|DICT|INTERRES
   241  121  123 2    
   242  122  242 1    
   243  122  243 1    
   244  124  125 1    
   245  124  244 1    
   246  124  245 1    
   247  125  126 1    
   248  126  246 1    
   249  126  247 1    
@<TRIPOS>SUBSTRUCTURE
     1 UNK         1 GROUP             0       ****    0 ROOT    
