@<TRIPOS>MOLECULE
3R540
247   249    1
SMALL
USER_CHARGES


@<TRIPOS>ATOM
      1 CA          5.6500  -14.5224  -46.3563 C.3       0 UNK        -0.1800 
      2 C           4.5125  -13.5906  -45.9678 C.2       0 UNK         0.5000 
      3 O           4.4911  -13.0845  -44.8464 O.2       0 UNK        -0.5000 
      4 N           3.5761  -13.3469  -46.8946 N.am      1 UNK        -0.5000 
      5 CA          2.3524  -12.5564  -46.6856 C.3       1 UNK         0.1400 
      6 C6          1.3902  -12.6344  -47.8933 C.3       23 UNK        -0.0398 
      7 S7          0.8357  -14.3412  -48.2188 S.3       23 UNK        -0.2404 
      8 C8          1.6517  -14.6839  -49.8046 C.3       23 UNK        -0.0205 
      9 C9          1.3187  -16.0773  -50.3134 C.ar      23 UNK        -0.0193 
     10 C10         0.2122  -16.2762  -51.1439 C.ar      23 UNK        -0.1150 
     11 C11        -0.0778  -17.5456  -51.6576 C.ar      23 UNK        -0.0193 
     12 C12         0.7594  -18.6179  -51.3358 C.ar      23 UNK        -0.1150 
     13 C13         1.8736  -18.4311  -50.5111 C.ar      23 UNK        -0.0193 
     14 C14         2.1411  -17.1608  -49.9929 C.ar      23 UNK        -0.1150 
     15 C15         2.8185  -19.5891  -50.2225 C.3       23 UNK        -0.0205 
     16 S16         2.4461  -20.4079  -48.6432 S.3       23 UNK        -0.2404 
     17 C17         0.8151  -21.1336  -49.0078 C.3       23 UNK        -0.0398 
     18 CA          0.4356  -22.2475  -48.0074 C.3       11 UNK         0.1400 
     19 N           0.1745  -21.7351  -46.6592 N.am      11 UNK        -0.5000 
     20 C          -0.0123  -22.5039  -45.5772 C.2       10 UNK         0.5000 
     21 O           0.0741  -23.7316  -45.5909 O.2       10 UNK        -0.5000 
     22 CA         -0.4203  -21.7922  -44.2740 C.3       10 UNK         0.1400 
     23 CB          0.8012  -21.1812  -43.5726 C.3       10 UNK        -0.1800 
     24 N          -1.4386  -20.7636  -44.4932 N.am      10 UNK        -0.5000 
     25 C          -2.6756  -21.0104  -44.9483 C.2       9 UNK         0.5000 
     26 O          -3.1037  -22.1397  -45.1797 O.2       9 UNK        -0.5000 
     27 CA         -3.5755  -19.7961  -45.2317 C.3       9 UNK         0.1400 
     28 CB         -4.2942  -19.3347  -43.9552 C.3       9 UNK        -0.1800 
     29 N          -2.8356  -18.6771  -45.8081 N.am      9 UNK        -0.5000 
     30 C          -2.2742  -18.6799  -47.0254 C.2       8 UNK         0.5000 
     31 O          -2.3132  -19.6340  -47.8046 O.2       8 UNK        -0.5000 
     32 CA         -1.4797  -17.4132  -47.3933 C.3       8 UNK         0.1400 
     33 CB         -2.4326  -16.2398  -47.6820 C.3       8 UNK        -0.1800 
     34 N          -0.5473  -17.0245  -46.3322 N.am      8 UNK        -0.5000 
     35 C           0.4561  -17.7924  -45.8796 C.2       7 UNK         0.5000 
     36 O           0.7154  -18.9066  -46.3270 O.2       7 UNK        -0.5000 
     37 CA          1.2667  -17.2666  -44.6788 C.3       7 UNK         0.1400 
     38 CB          2.4363  -16.4000  -45.1621 C.3       7 UNK        -0.1800 
     39 N           0.4613  -16.5090  -43.7202 N.am      7 UNK        -0.5000 
     40 C          -0.6269  -16.9792  -43.0890 C.2       6 UNK         0.5000 
     41 O          -1.0120  -18.1452  -43.1823 O.2       6 UNK        -0.5000 
     42 CA         -1.4553  -15.9852  -42.2476 C.3       6 UNK         0.1400 
     43 CB         -1.1856  -16.1987  -40.7508 C.3       6 UNK        -0.1800 
     44 N          -1.2185  -14.5769  -42.5735 N.am      6 UNK        -0.5000 
     45 C          -1.4067  -13.9997  -43.7694 C.2       5 UNK         0.5000 
     46 O          -1.8909  -14.5836  -44.7387 O.2       5 UNK        -0.5000 
     47 CA         -0.9174  -12.5451  -43.9261 C.3       5 UNK         0.1400 
     48 CB         -2.1013  -11.5697  -43.8541 C.3       5 UNK        -0.1800 
     49 N           0.1017  -12.1335  -42.9507 N.am      5 UNK        -0.5000 
     50 C           1.3065  -12.7005  -42.8000 C.2       4 UNK         0.5000 
     51 O           1.6765  -13.6963  -43.4231 O.2       4 UNK        -0.5000 
     52 CA          2.2367  -12.0801  -41.7543 C.3       4 UNK         0.1400 
     53 CB          2.5228  -13.0707  -40.6111 C.3       4 UNK        -0.1800 
     54 N           3.4785  -11.6861  -42.4090 N.am      4 UNK        -0.5000 
     55 C           4.3050  -10.7317  -41.9636 C.2       3 UNK         0.5000 
     56 O           4.1242  -10.1010  -40.9209 O.2       3 UNK        -0.5000 
     57 CA          5.5232  -10.4031  -42.8408 C.3       3 UNK         0.1400 
     58 CB          6.6197  -11.4696  -42.6869 C.3       3 UNK        -0.1800 
     59 N           5.1369  -10.2883  -44.2461 N.am      3 UNK        -0.5000 
     60 C           4.7118   -9.1551  -44.8236 C.2       2 UNK         0.5000 
     61 O           4.6597   -8.0711  -44.2411 O.2       2 UNK        -0.5000 
     62 CA          4.2731   -9.2324  -46.3004 C.3       2 UNK         0.1400 
     63 CB          5.4337   -8.8370  -47.2262 C.3       2 UNK        -0.1800 
     64 N           3.7887  -10.5571  -46.6874 N.am      2 UNK        -0.5000 
     65 C           2.6205  -11.0860  -46.2974 C.2       1 UNK         0.5000 
     66 O           1.7814  -10.4726  -45.6375 O.2       1 UNK        -0.5000 
     67 C          -0.7488  -23.0738  -48.5443 C.2       11 UNK         0.5000 
     68 O          -0.5241  -24.1492  -49.0987 O.2       11 UNK        -0.5000 
     69 N          -1.9828  -22.5896  -48.3425 N.am      12 UNK        -0.5000 
     70 CA         -3.2055  -23.3018  -48.7195 C.3       12 UNK         0.1400 
     71 CB         -4.4163  -22.3736  -48.5609 C.3       12 UNK        -0.1800 
     72 C          -3.3999  -24.6141  -47.9348 C.2       12 UNK         0.5000 
     73 O          -3.7869  -25.6237  -48.5223 O.2       12 UNK        -0.5000 
     74 N          -3.0831  -24.5985  -46.6327 N.am      13 UNK        -0.5000 
     75 CA         -3.0860  -25.7777  -45.7664 C.3       13 UNK         0.1400 
     76 CB         -2.8990  -25.3495  -44.3033 C.3       13 UNK        -0.1800 
     77 C          -2.0258  -26.8167  -46.1762 C.2       13 UNK         0.5000 
     78 O          -2.3264  -28.0103  -46.1861 O.2       13 UNK        -0.5000 
     79 N          -0.8232  -26.3478  -46.5402 N.am      14 UNK        -0.5000 
     80 CA          0.2750  -27.1741  -47.0465 C.3       14 UNK         0.1400 
     81 CB          1.5650  -26.3415  -47.1010 C.3       14 UNK        -0.1800 
     82 C          -0.0331  -27.7994  -48.4203 C.2       14 UNK         0.5000 
     83 O           0.2791  -28.9710  -48.6372 O.2       14 UNK        -0.5000 
     84 N          -0.6632  -27.0202  -49.3107 N.am      15 UNK        -0.5000 
     85 CA         -1.1482  -27.4685  -50.6188 C.3       15 UNK         0.1400 
     86 CB         -1.4983  -26.2378  -51.4712 C.3       15 UNK        -0.1800 
     87 C          -2.3658  -28.4100  -50.5256 C.2       15 UNK         0.5000 
     88 O          -2.6018  -29.1829  -51.4549 O.2       15 UNK        -0.5000 
     89 N          -3.1155  -28.3085  -49.4183 N.am      16 UNK        -0.5000 
     90 CA         -4.3844  -28.9774  -49.1177 C.3       16 UNK         0.1400 
     91 CB         -4.1983  -30.5054  -49.0144 C.3       16 UNK        -0.1800 
     92 C          -5.5138  -28.5608  -50.0845 C.2       16 UNK         0.5000 
     93 O          -6.3948  -29.3655  -50.3940 O.2       16 UNK        -0.5000 
     94 N          -5.4652  -27.3051  -50.5426 N.am      17 UNK        -0.5000 
     95 CA         -6.3746  -26.6945  -51.5045 C.3       17 UNK         0.1400 
     96 CB         -6.1372  -27.2769  -52.9115 C.3       17 UNK        -0.1800 
     97 C          -6.1243  -25.1823  -51.5096 C.2       17 UNK         0.5000 
     98 O          -5.0238  -24.7423  -51.1686 O.2       17 UNK        -0.5000 
     99 N          -7.1269  -24.4067  -51.9377 N.am      18 UNK        -0.5000 
    100 CA        -7.0687  -22.9485  -52.0664 C.3       18 UNK         0.1400 
    101 CB        -8.5041  -22.3923  -52.0823 C.3       18 UNK        -0.1800 
    102 C         -6.2460  -22.5048  -53.2957 C.2       18 UNK         0.5000 
    103 O         -6.7822  -21.8737  -54.2094 O.2       18 UNK        -0.5000 
    104 N         -4.9550  -22.8595  -53.2969 N.am      19 UNK        -0.5000 
    105 CA        -3.9573  -22.5288  -54.3134 C.3       19 UNK         0.1400 
    106 CB        -2.5990  -23.1023  -53.8794 C.3       19 UNK        -0.1800 
    107 C         -3.8666  -21.0098  -54.5387 C.2       19 UNK         0.5000 
    108 O         -3.6306  -20.2720  -53.5814 O.2       19 UNK        -0.5000 
    109 N         -4.1269  -20.5731  -55.7793 N.am      20 UNK        -0.5000 
    110 CA        -4.2063  -19.1724  -56.2209 C.3       20 UNK         0.1400 
    111 CB        -2.8058  -18.5266  -56.2069 C.3       20 UNK        -0.1800 
    112 C         -5.2562  -18.3293  -55.4563 C.2       20 UNK         0.5000 
    113 O         -5.1190  -17.1079  -55.3767 O.2       20 UNK        -0.5000 
    114 N         -6.2793  -19.0022  -54.9047 N.am      21 UNK        -0.5000 
    115 CA        -7.3411  -18.4759  -54.0410 C.3       21 UNK         0.1400 
    116 CB        -8.2011  -17.4291  -54.7806 C.3       21 UNK        -0.1800 
    117 C         -6.8430  -17.9810  -52.6637 C.2       21 UNK         0.5000 
    118 O         -7.5566  -17.2267  -52.0005 O.2       21 UNK        -0.5000 
    119 N         -5.6531  -18.4268  -52.2349 N.am      22 UNK        -0.5000 
    120 CA        -5.0461  -18.0819  -50.9355 C.3       22 UNK         0.1400 
    121 C         -5.6501  -18.8373  -49.7148 C.2       22 UNK         0.5000 
    122 N         -6.5444  -19.8011  -49.8994 N.am      22 UNK        -0.7600 
    123 O         -5.3284  -18.5190  -48.5747 O.2       22 UNK        -0.5000 
    124 C124       -3.4997  -18.1984  -50.9795 C.3       23 UNK        -0.0398 
    125 S125       -2.7881  -16.9604  -52.1155 S.3       23 UNK        -0.2404 
    126 C126       -1.2308  -17.7507  -52.6348 C.3       23 UNK        -0.0205 
    127 H127        5.6669  -15.3856  -45.6910 H         1 UNK         0.0600 
    128 H128        6.6051  -14.0046  -46.2698 H         1 UNK         0.0600 
    129 H129        5.5474  -14.8836  -47.3798 H         1 UNK         0.0600 
    130 H130        3.6534  -13.7927  -47.7963 H         1 UNK         0.3000 
    131 H131        1.8354  -13.0033  -45.8379 H         1 UNK         0.0600 
    132 H132        0.4948  -12.0384  -47.7064 H         1 UNK         0.0800 
    133 H133        1.8545  -12.2119  -48.7861 H         1 UNK         0.0800 
    134 H134        1.3422  -13.9386  -50.5391 H         1 UNK         0.0800 
    135 H135        2.7313  -14.5767  -49.6927 H         1 UNK         0.0800 
    136 H136       -0.4135  -15.4350  -51.4072 H         1 UNK         0.1150 
    137 H137        0.5606  -19.5958  -51.7511 H         1 UNK         0.1150 
    138 H138        3.0031  -17.0120  -49.3577 H         1 UNK         0.1150 
    139 H139        2.7859  -20.3211  -51.0309 H         1 UNK         0.0800 
    140 H140        3.8454  -19.2218  -50.1915 H         1 UNK         0.0800 
    141 H141        0.8467  -21.5289  -50.0250 H         1 UNK         0.0800 
    142 H142        0.0663  -20.3395  -49.0047 H         1 UNK         0.0800 
    143 H143        1.2833  -22.9321  -47.9324 H         1 UNK         0.0600 
    144 H144        0.1518  -20.7230  -46.5582 H         1 UNK         0.3000 
    145 H145       -0.8506  -22.5415  -43.6065 H         1 UNK         0.0600 
    146 H146        0.5162  -20.6685  -42.6537 H         1 UNK         0.0600 
    147 H147        1.5210  -21.9557  -43.3055 H         1 UNK         0.0600 
    148 H148        1.3170  -20.4657  -44.2114 H         1 UNK         0.0600 
    149 H149       -1.1816  -19.8055  -44.2777 H         1 UNK         0.3000 
    150 H150       -4.3326  -20.1032  -45.9565 H         1 UNK         0.0600 
    151 H151       -4.8812  -20.1472  -43.5251 H         1 UNK         0.0600 
    152 H152       -4.9803  -18.5138  -44.1640 H         1 UNK         0.0600 
    153 H153       -3.5911  -18.9995  -43.1921 H         1 UNK         0.0600 
    154 H154       -2.6994  -17.8702  -45.2177 H         1 UNK         0.3000 
    155 H155       -0.9010  -17.6242  -48.2955 H         1 UNK         0.0600 
    156 H156       -2.9671  -15.9252  -46.7857 H         1 UNK         0.0600 
    157 H157       -1.8938  -15.3762  -48.0686 H         1 UNK         0.0600 
    158 H158       -3.1872  -16.5034  -48.4211 H         1 UNK         0.0600 
    159 H159       -0.7197  -16.1329  -45.8845 H         1 UNK         0.3000 
    160 H160        1.6787  -18.1278  -44.1508 H         1 UNK         0.0600 
    161 H161        2.0788  -15.5000  -45.6614 H         1 UNK         0.0600 
    162 H162        3.0632  -16.9428  -45.8707 H         1 UNK         0.0600 
    163 H163        3.0714  -16.0906  -44.3317 H         1 UNK         0.0600 
    164 H164        0.7283  -15.5400  -43.5805 H         1 UNK         0.3000 
    165 H165       -2.5083  -16.1974  -42.4427 H         1 UNK         0.0600 
    166 H166       -1.8296  -15.5670  -40.1388 H         1 UNK         0.0600 
    167 H167       -1.3787  -17.2329  -40.4620 H         1 UNK         0.0600 
    168 H168       -0.1496  -15.9738  -40.4936 H         1 UNK         0.0600 
    169 H169       -0.8082  -14.0132  -41.8443 H         1 UNK         0.3000 
    170 H170       -0.4710  -12.4646  -44.9192 H         1 UNK         0.0600 
    171 H171       -2.8675  -11.8294  -44.5860 H         1 UNK         0.0600 
    172 H172       -2.5707  -11.5789  -42.8696 H         1 UNK         0.0600 
    173 H173       -1.7844  -10.5486  -44.0677 H         1 UNK         0.0600 
    174 H174       -0.1259  -11.3239  -42.3915 H         1 UNK         0.3000 
    175 H175        1.7529  -11.1933  -41.3391 H         1 UNK         0.0600 
    176 H176        3.0429  -13.9592  -40.9717 H         1 UNK         0.0600 
    177 H177        3.1389  -12.6150  -39.8359 H         1 UNK         0.0600 
    178 H178        1.5971  -13.4002  -40.1380 H         1 UNK         0.0600 
    179 H179        3.6963  -12.1805  -43.2717 H         1 UNK         0.3000 
    180 H180        5.9391   -9.4530  -42.4984 H         1 UNK         0.0600 
    181 H181        6.2742  -12.4594  -42.9857 H         1 UNK         0.0600 
    182 H182        6.9493  -11.5392  -41.6496 H         1 UNK         0.0600 
    183 H183        7.4939  -11.2244  -43.2900 H         1 UNK         0.0600 
    184 H184        5.0799  -11.1582  -44.7633 H         1 UNK         0.3000 
    185 H185        3.4631   -8.5139  -46.4430 H         1 UNK         0.0600 
    186 H186        5.8038   -7.8398  -46.9844 H         1 UNK         0.0600 
    187 H187        6.2727   -9.5285  -47.1384 H         1 UNK         0.0600 
    188 H188        5.1185   -8.8208  -48.2697 H         1 UNK         0.0600 
    189 H189        4.4188  -11.1333  -47.2262 H         1 UNK         0.3000 
    190 H190       -2.0942  -21.6764  -47.9131 H         1 UNK         0.3000 
    191 H191       -3.1181  -23.5602  -49.7763 H         1 UNK         0.0600 
    192 H192       -4.5557  -22.0615  -47.5261 H         1 UNK         0.0600 
    193 H193       -5.3322  -22.8697  -48.8840 H         1 UNK         0.0600 
    194 H194       -4.2981  -21.4769  -49.1684 H         1 UNK         0.0600 
    195 H195       -2.8389  -23.7126  -46.1976 H         1 UNK         0.3000 
    196 H196       -4.0655  -26.2522  -45.8554 H         1 UNK         0.0600 
    197 H197       -2.9219  -26.2131  -43.6376 H         1 UNK         0.0600 
    198 H198       -3.6933  -24.6733  -43.9867 H         1 UNK         0.0600 
    199 H199       -1.9472  -24.8411  -44.1494 H         1 UNK         0.0600 
    200 H200       -0.6374  -25.3536  -46.4438 H         1 UNK         0.3000 
    201 H201        0.4312  -27.9908  -46.3387 H         1 UNK         0.0600 
    202 H202        1.8274  -25.9571  -46.1153 H         1 UNK         0.0600 
    203 H203        1.4685  -25.4911  -47.7760 H         1 UNK         0.0600 
    204 H204        2.4044  -26.9442  -47.4497 H         1 UNK         0.0600 
    205 H205       -0.8121  -26.0401  -49.0840 H         1 UNK         0.3000 
    206 H206       -0.3434  -28.0137  -51.1158 H         1 UNK         0.0600 
    207 H207       -0.6318  -25.5903  -51.6060 H         1 UNK         0.0600 
    208 H208       -1.8428  -26.5319  -52.4634 H         1 UNK         0.0600 
    209 H209       -2.2904  -25.6444  -51.0129 H         1 UNK         0.0600 
    210 H210       -2.8557  -27.5850  -48.7593 H         1 UNK         0.3000 
    211 H211       -4.6838  -28.6165  -48.1327 H         1 UNK         0.0600 
    212 H212       -3.9695  -30.9539  -49.9813 H         1 UNK         0.0600 
    213 H213       -5.1034  -30.9840  -48.6391 H         1 UNK         0.0600 
    214 H214       -3.3903  -30.7567  -48.3271 H         1 UNK         0.0600 
    215 H215       -4.7487  -26.6757  -50.1894 H         1 UNK         0.3000 
    216 H216       -7.4033  -26.8815  -51.1904 H         1 UNK         0.0600 
    217 H217       -5.1033  -27.1379  -53.2308 H         1 UNK         0.0600 
    218 H218       -6.7776  -26.7947  -53.6510 H         1 UNK         0.0600 
    219 H219       -6.3558  -28.3441  -52.9464 H         1 UNK         0.0600 
    220 H220       -7.9853  -24.8439  -52.2407 H         1 UNK         0.3000 
    221 H221       -6.5688  -22.5426  -51.1844 H         1 UNK         0.0600 
    222 H222       -9.0394  -22.6584  -51.1707 H         1 UNK         0.0600 
    223 H223       -9.0748  -22.7740  -52.9298 H         1 UNK         0.0600 
    224 H224       -8.5045  -21.3039  -52.1501 H         1 UNK         0.0600 
    225 H225       -4.6318  -23.4110  -52.5076 H         1 UNK         0.3000 
    226 H226       -4.2571  -23.0142  -55.2441 H         1 UNK         0.0600 
    227 H227       -2.6461  -24.1855  -53.7653 H         1 UNK         0.0600 
    228 H228       -1.8282  -22.8854  -54.6200 H         1 UNK         0.0600 
    229 H229       -2.2698  -22.6809  -52.9283 H         1 UNK         0.0600 
    230 H230       -4.3462  -21.2587  -56.4888 H         1 UNK         0.3000 
    231 H231       -4.5449  -19.1992  -57.2574 H         1 UNK         0.0600 
    232 H232       -2.4297  -18.4112  -55.1914 H         1 UNK         0.0600 
    233 H233       -2.8230  -17.5365  -56.6637 H         1 UNK         0.0600 
    234 H234       -2.0877  -19.1274  -56.7648 H         1 UNK         0.0600 
    235 H235       -6.2876  -20.0122  -55.0039 H         1 UNK         0.3000 
    236 H236       -7.9889  -19.3269  -53.8273 H         1 UNK         0.0600 
    237 H237       -9.0946  -17.1817  -54.2064 H         1 UNK         0.0600 
    238 H238       -7.6568  -16.4996  -54.9482 H         1 UNK         0.0600 
    239 H239       -8.5339  -17.8039  -55.7484 H         1 UNK         0.0600 
    240 H240       -5.0967  -19.0267  -52.8351 H         1 UNK         0.3000 
    241 H241       -5.2758  -17.0322  -50.7417 H         1 UNK         0.0600 
    242 H242       -6.9451  -20.2579  -49.0962 H         1 UNK         0.3800 
    243 H243       -6.8622  -20.0255  -50.8252 H         1 UNK         0.3800 
    244 H244       -3.2015  -19.2035  -51.2778 H         1 UNK         0.0800 
    245 H245       -3.0550  -18.0424  -49.9990 H         1 UNK         0.0800 
    246 H246       -1.4074  -18.8114  -52.8199 H         1 UNK         0.0800 
    247 H247       -0.9346  -17.3203  -53.5918 H         1 UNK         0.0800 
@<TRIPOS>BOND
     1    1    2 1    
     2    1  127 1    
     3    1  128 1    
     4    1  129 1    
     5    2    3 2    
     6    2    4 am   BACKBONE|DICT|INTERRES
     7    4    5 1    
     8    4  130 1    
     9    5    6 1    
    10    5   65 1    
    11    5  131 1    
    12    6    7 1    
    13    6  132 1    
    14    6  133 1    
    15    7    8 1    
    16    8    9 1    
    17    8  134 1    
    18    8  135 1    
    19    9   10 ar   
    20    9   14 ar   
    21   10   11 ar   
    22   10  136 1    
    23   11   12 ar   
    24   11  126 1    
    25   12   13 ar   
    26   12  137 1    
    27   13   14 ar   
    28   13   15 1    
    29   14  138 1    
    30   15   16 1    
    31   15  139 1    
    32   15  140 1    
    33   16   17 1    
    34   17   18 1    
    35   17  141 1    
    36   17  142 1    
    37   18   19 1    
    38   18   67 1    
    39   18  143 1    
    40   19   20 am   BACKBONE|DICT|INTERRES
    41   19  144 1    
    42   20   21 2    
    43   20   22 1    
    44   22   23 1    
    45   22   24 1    
    46   22  145 1    
    47   23  146 1    
    48   23  147 1    
    49   23  148 1    
    50   24   25 am   BACKBONE|DICT|INTERRES
    51   24  149 1    
    52   25   26 2    
    53   25   27 1    
    54   27   28 1    
    55   27   29 1    
    56   27  150 1    
    57   28  151 1    
    58   28  152 1    
    59   28  153 1    
    60   29   30 am   BACKBONE|DICT|INTERRES
    61   29  154 1    
    62   30   31 2    
    63   30   32 1    
    64   32   33 1    
    65   32   34 1    
    66   32  155 1    
    67   33  156 1    
    68   33  157 1    
    69   33  158 1    
    70   34   35 am   BACKBONE|DICT|INTERRES
    71   34  159 1    
    72   35   36 2    
    73   35   37 1    
    74   37   38 1    
    75   37   39 1    
    76   37  160 1    
    77   38  161 1    
    78   38  162 1    
    79   38  163 1    
    80   39   40 am   BACKBONE|DICT|INTERRES
    81   39  164 1    
    82   40   41 2    
    83   40   42 1    
    84   42   43 1    
    85   42   44 1    
    86   42  165 1    
    87   43  166 1    
    88   43  167 1    
    89   43  168 1    
    90   44   45 am   BACKBONE|DICT|INTERRES
    91   44  169 1    
    92   45   46 2    
    93   45   47 1    
    94   47   48 1    
    95   47   49 1    
    96   47  170 1    
    97   48  171 1    
    98   48  172 1    
    99   48  173 1    
   100   49   50 am   BACKBONE|DICT|INTERRES
   101   49  174 1    
   102   50   51 2    
   103   50   52 1    
   104   52   53 1    
   105   52   54 1    
   106   52  175 1    
   107   53  176 1    
   108   53  177 1    
   109   53  178 1    
   110   54   55 am   BACKBONE|DICT|INTERRES
   111   54  179 1    
   112   55   56 2    
   113   55   57 1    
   114   57   58 1    
   115   57   59 1    
   116   57  180 1    
   117   58  181 1    
   118   58  182 1    
   119   58  183 1    
   120   59   60 am   BACKBONE|DICT|INTERRES
   121   59  184 1    
   122   60   61 2    
   123   60   62 1    
   124   62   63 1    
   125   62   64 1    
   126   62  185 1    
   127   63  186 1    
   128   63  187 1    
   129   63  188 1    
   130   64   65 am   BACKBONE|DICT|INTERRES
   131   64  189 1    
   132   65   66 2    
   133   67   68 2    
   134   67   69 am   BACKBONE|DICT|INTERRES
   135   69   70 1    
   136   69  190 1    
   137   70   71 1    
   138   70   72 1    
   139   70  191 1    
   140   71  192 1    
   141   71  193 1    
   142   71  194 1    
   143   72   73 2    
   144   72   74 am   BACKBONE|DICT|INTERRES
   145   74   75 1    
   146   74  195 1    
   147   75   76 1    
   148   75   77 1    
   149   75  196 1    
   150   76  197 1    
   151   76  198 1    
   152   76  199 1    
   153   77   78 2    
   154   77   79 am   BACKBONE|DICT|INTERRES
   155   79   80 1    
   156   79  200 1    
   157   80   81 1    
   158   80   82 1    
   159   80  201 1    
   160   81  202 1    
   161   81  203 1    
   162   81  204 1    
   163   82   83 2    
   164   82   84 am   BACKBONE|DICT|INTERRES
   165   84   85 1    
   166   84  205 1    
   167   85   86 1    
   168   85   87 1    
   169   85  206 1    
   170   86  207 1    
   171   86  208 1    
   172   86  209 1    
   173   87   88 2    
   174   87   89 am   BACKBONE|DICT|INTERRES
   175   89   90 1    
   176   89  210 1    
   177   90   91 1    
   178   90   92 1    
   179   90  211 1    
   180   91  212 1    
   181   91  213 1    
   182   91  214 1    
   183   92   93 2    
   184   92   94 am   BACKBONE|DICT|INTERRES
   185   94   95 1    
   186   94  215 1    
   187   95   96 1    
   188   95   97 1    
   189   95  216 1    
   190   96  217 1    
   191   96  218 1    
   192   96  219 1    
   193   97   98 2    
   194   97   99 am   BACKBONE|DICT|INTERRES
   195   99  100 1    
   196   99  220 1    
   197  100  101 1    
   198  100  102 1    
   199  100  221 1    
   200  101  222 1    
   201  101  223 1    
   202  101  224 1    
   203  102  103 2    
   204  102  104 am   BACKBONE|DICT|INTERRES
   205  104  105 1    
   206  104  225 1    
   207  105  106 1    
   208  105  107 1    
   209  105  226 1    
   210  106  227 1    
   211  106  228 1    
   212  106  229 1    
   213  107  108 2    
   214  107  109 am   BACKBONE|DICT|INTERRES
   215  109  110 1    
   216  109  230 1    
   217  110  111 1    
   218  110  112 1    
   219  110  231 1    
   220  111  232 1    
   221  111  233 1    
   222  111  234 1    
   223  112  113 2    
   224  112  114 am   BACKBONE|DICT|INTERRES
   225  114  115 1    
   226  114  235 1    
   227  115  116 1    
   228  115  117 1    
   229  115  236 1    
   230  116  237 1    
   231  116  238 1    
   232  116  239 1    
   233  117  118 2    
   234  117  119 am   BACKBONE|DICT|INTERRES
   235  119  120 1    
   236  119  240 1    
   237  120  121 1    
   238  120  124 1    
   239  120  241 1    
   240  121  122 am   BACKBONE|DICT|INTERRES
   241  121  123 2    
   242  122  242 1    
   243  122  243 1    
   244  124  125 1    
   245  124  244 1    
   246  124  245 1    
   247  125  126 1    
   248  126  246 1    
   249  126  247 1    
@<TRIPOS>SUBSTRUCTURE
     1 UNK         1 GROUP             0       ****    0 ROOT    
