@<TRIPOS>MOLECULE
3R540
247   249    1
SMALL
USER_CHARGES


@<TRIPOS>ATOM
      1 CA          4.2644  -17.3963  -46.1625 C.3       0 UNK        -0.1800 
      2 C           3.2996  -16.2206  -46.1460 C.2       0 UNK         0.5000 
      3 O           3.3526  -15.3944  -45.2342 O.2       0 UNK        -0.5000 
      4 N           2.4373  -16.1260  -47.1680 N.am      1 UNK        -0.5000 
      5 CA          1.4460  -15.0560  -47.3561 C.3       1 UNK         0.1400 
      6 C6          0.5175  -15.3340  -48.5653 C.3       23 UNK        -0.0398 
      7 S7         -0.5540  -16.7917  -48.3154 S.3       23 UNK        -0.2404 
      8 C8         -2.1772  -16.0985  -48.7638 C.3       23 UNK        -0.0205 
      9 C9         -3.3089  -17.0634  -48.4483 C.ar      23 UNK        -0.0193 
     10 C10        -3.7771  -17.9598  -49.4136 C.ar      23 UNK        -0.1150 
     11 C11        -4.8361  -18.8269  -49.1214 C.ar      23 UNK        -0.0193 
     12 C12        -5.4083  -18.8103  -47.8458 C.ar      23 UNK        -0.1150 
     13 C13        -4.9391  -17.9263  -46.8708 C.ar      23 UNK        -0.0193 
     14 C14        -3.9036  -17.0444  -47.1855 C.ar      23 UNK        -0.1150 
     15 C15        -5.5353  -17.9231  -45.4727 C.3       23 UNK        -0.0205 
     16 S16        -4.4063  -18.6926  -44.2686 S.3       23 UNK        -0.2404 
     17 C17        -4.5235  -20.4587  -44.7221 C.3       23 UNK        -0.0398 
     18 CA         -3.4265  -20.9336  -45.7095 C.3       11 UNK         0.1400 
     19 N          -2.0806  -20.5490  -45.2774 N.am      11 UNK        -0.5000 
     20 C          -0.9505  -20.7702  -45.9605 C.2       10 UNK         0.5000 
     21 O          -0.9107  -21.3041  -47.0672 O.2       10 UNK        -0.5000 
     22 CA          0.3669  -20.4041  -45.2642 C.3       10 UNK         0.1400 
     23 CB          0.8711  -19.0468  -45.7643 C.3       10 UNK        -0.1800 
     24 N           0.2706  -20.3841  -43.8039 N.am      10 UNK        -0.5000 
     25 C          -0.0146  -21.4299  -43.0136 C.2       9 UNK         0.5000 
     26 O          -0.3432  -22.5374  -43.4464 O.2       9 UNK        -0.5000 
     27 CA          0.0613  -21.1713  -41.4934 C.3       9 UNK         0.1400 
     28 CB          0.2731  -22.4604  -40.6737 C.3       9 UNK        -0.1800 
     29 N           1.0546  -20.1430  -41.1550 N.am      9 UNK        -0.5000 
     30 C           2.3835  -20.1957  -41.3376 C.2       8 UNK         0.5000 
     31 O           2.9908  -21.2042  -41.6984 O.2       8 UNK        -0.5000 
     32 CA          3.1700  -18.8861  -41.1275 C.3       8 UNK         0.1400 
     33 CB          3.5604  -18.2806  -42.4840 C.3       8 UNK        -0.1800 
     34 N           2.4358  -17.8745  -40.3679 N.am      8 UNK        -0.5000 
     35 C           2.2569  -17.8989  -39.0406 C.2       7 UNK         0.5000 
     36 O           2.6977  -18.7815  -38.3036 O.2       7 UNK        -0.5000 
     37 CA          1.4301  -16.7487  -38.4438 C.3       7 UNK         0.1400 
     38 CB          2.2933  -15.4894  -38.2758 C.3       7 UNK        -0.1800 
     39 N           0.2672  -16.4360  -39.2745 N.am      7 UNK        -0.5000 
     40 C          -0.8660  -17.1515  -39.2833 C.2       6 UNK         0.5000 
     41 O          -1.0586  -18.1370  -38.5712 O.2       6 UNK        -0.5000 
     42 CA         -1.9683  -16.6979  -40.2583 C.3       6 UNK         0.1400 
     43 CB         -2.9029  -15.6841  -39.5815 C.3       6 UNK        -0.1800 
     44 N          -1.4408  -16.1143  -41.4919 N.am      6 UNK        -0.5000 
     45 C          -0.8131  -16.8124  -42.4469 C.2       5 UNK         0.5000 
     46 O          -0.5886  -18.0198  -42.3830 O.2       5 UNK        -0.5000 
     47 CA         -0.3290  -16.0208  -43.6720 C.3       5 UNK         0.1400 
     48 CB         -1.4891  -15.8491  -44.6620 C.3       5 UNK        -0.1800 
     49 N           0.2584  -14.7168  -43.3545 N.am      5 UNK        -0.5000 
     50 C           1.3178  -14.5410  -42.5535 C.2       4 UNK         0.5000 
     51 O           1.8504  -15.4472  -41.9081 O.2       4 UNK        -0.5000 
     52 CA          1.9028  -13.1276  -42.4870 C.3       4 UNK         0.1400 
     53 CB          2.1992  -12.7275  -41.0255 C.3       4 UNK        -0.1800 
     54 N           3.1124  -13.1380  -43.3037 N.am      4 UNK        -0.5000 
     55 C           3.9392  -12.1103  -43.5276 C.2       3 UNK         0.5000 
     56 O           3.7586  -10.9687  -43.1023 O.2       3 UNK        -0.5000 
     57 CA          5.1689  -12.4085  -44.3979 C.3       3 UNK         0.1400 
     58 CB          6.0154  -13.5590  -43.8232 C.3       3 UNK        -0.1800 
     59 N           4.7472  -12.7400  -45.7554 N.am      3 UNK        -0.5000 
     60 C           4.6367  -11.8532  -46.7546 C.2       2 UNK         0.5000 
     61 O           4.9326  -10.6624  -46.6473 O.2       2 UNK        -0.5000 
     62 CA          4.1189  -12.3746  -48.1107 C.3       2 UNK         0.1400 
     63 CB          5.2923  -12.6379  -49.0672 C.3       2 UNK        -0.1800 
     64 N           3.3206  -13.5955  -47.9971 N.am      2 UNK        -0.5000 
     65 C           2.0828  -13.6549  -47.4861 C.2       1 UNK         0.5000 
     66 O           1.4533  -12.6671  -47.1064 O.2       1 UNK        -0.5000 
     67 C          -3.5638  -22.4528  -45.9573 C.2       11 UNK         0.5000 
     68 O          -4.3549  -22.8523  -46.8117 O.2       11 UNK        -0.5000 
     69 N          -2.7833  -23.2575  -45.2213 N.am      12 UNK        -0.5000 
     70 CA         -2.6910  -24.7062  -45.3781 C.3       12 UNK         0.1400 
     71 CB         -2.8947  -25.3706  -44.0072 C.3       12 UNK        -0.1800 
     72 C          -1.3352  -25.1183  -45.9752 C.2       12 UNK         0.5000 
     73 O          -1.3002  -26.0051  -46.8284 O.2       12 UNK        -0.5000 
     74 N          -0.2431  -24.4917  -45.5106 N.am      13 UNK        -0.5000 
     75 CA          1.1299  -24.8685  -45.8551 C.3       13 UNK         0.1400 
     76 CB          2.0993  -24.2441  -44.8393 C.3       13 UNK        -0.1800 
     77 C           1.5459  -24.5091  -47.2936 C.2       13 UNK         0.5000 
     78 O           2.3903  -25.2066  -47.8576 O.2       13 UNK        -0.5000 
     79 N           0.9621  -23.4442  -47.8578 N.am      14 UNK        -0.5000 
     80 CA          1.1992  -22.9999  -49.2318 C.3       14 UNK         0.1400 
     81 CB          1.7450  -21.5616  -49.2287 C.3       14 UNK        -0.1800 
     82 C          -0.0928  -23.0977  -50.0536 C.2       14 UNK         0.5000 
     83 O          -0.0629  -23.6269  -51.1649 O.2       14 UNK        -0.5000 
     84 N          -1.1997  -22.5823  -49.4951 N.am      15 UNK        -0.5000 
     85 CA         -2.5694  -22.6050  -50.0243 C.3       15 UNK         0.1400 
     86 CB         -3.1419  -24.0338  -49.9346 C.3       15 UNK        -0.1800 
     87 C          -2.6995  -22.0048  -51.4420 C.2       15 UNK         0.5000 
     88 O          -3.5161  -22.4723  -52.2376 O.2       15 UNK        -0.5000 
     89 N          -1.8494  -21.0111  -51.7504 N.am      16 UNK        -0.5000 
     90 CA         -1.6601  -20.3818  -53.0660 C.3       16 UNK         0.1400 
     91 CB         -2.8740  -19.5002  -53.4208 C.3       16 UNK        -0.1800 
     92 C          -1.3160  -21.3923  -54.1858 C.2       16 UNK         0.5000 
     93 O          -1.7067  -21.1925  -55.3365 O.2       16 UNK        -0.5000 
     94 N          -0.6387  -22.4915  -53.8142 N.am      17 UNK        -0.5000 
     95 CA         -0.3061  -23.6595  -54.6390 C.3       17 UNK         0.1400 
     96 CB          0.6884  -23.2745  -55.7543 C.3       17 UNK        -0.1800 
     97 C          -1.5427  -24.4116  -55.1833 C.2       17 UNK         0.5000 
     98 O          -1.4140  -25.1686  -56.1469 O.2       17 UNK        -0.5000 
     99 N          -2.7157  -24.1849  -54.5673 N.am      18 UNK        -0.5000 
    100 CA        -4.0405  -24.6739  -54.9605 C.3       18 UNK         0.1400 
    101 CB        -4.1428  -26.1996  -54.7566 C.3       18 UNK        -0.1800 
    102 C         -4.4593  -24.2229  -56.3782 C.2       18 UNK         0.5000 
    103 O         -5.1744  -24.9509  -57.0705 O.2       18 UNK        -0.5000 
    104 N         -4.0125  -23.0275  -56.7926 N.am      19 UNK        -0.5000 
    105 CA        -4.2323  -22.4352  -58.1150 C.3       19 UNK         0.1400 
    106 CB        -3.1567  -21.3607  -58.3538 C.3       19 UNK        -0.1800 
    107 C         -5.6666  -21.8917  -58.3019 C.2       19 UNK         0.5000 
    108 O         -5.8522  -20.7016  -58.5603 O.2       19 UNK        -0.5000 
    109 N         -6.6577  -22.7794  -58.1491 N.am      20 UNK        -0.5000 
    110 CA        -8.1117  -22.6016  -58.2715 C.3       20 UNK         0.1400 
    111 CB        -8.5028  -22.0933  -59.6725 C.3       20 UNK        -0.1800 
    112 C         -8.7637  -21.7440  -57.1676 C.2       20 UNK         0.5000 
    113 O         -9.8706  -22.0697  -56.7357 O.2       20 UNK        -0.5000 
    114 N         -8.0837  -20.6876  -56.7156 N.am      21 UNK        -0.5000 
    115 CA        -8.5101  -19.7844  -55.6534 C.3       21 UNK         0.1400 
    116 CB        -9.4564  -18.7150  -56.2292 C.3       21 UNK        -0.1800 
    117 C         -7.2746  -19.1410  -55.0089 C.2       21 UNK         0.5000 
    118 O         -6.2016  -19.1174  -55.6175 O.2       21 UNK        -0.5000 
    119 N         -7.4522  -18.6254  -53.7891 N.am      22 UNK        -0.5000 
    120 CA        -6.4264  -17.8874  -53.0390 C.3       22 UNK         0.1400 
    121 C         -6.1342  -16.4905  -53.6542 C.2       22 UNK         0.5000 
    122 N         -4.8855  -16.0440  -53.6380 N.am      22 UNK        -0.7600 
    123 O         -7.0368  -15.7890  -54.1063 O.2       22 UNK        -0.5000 
    124 C124       -6.7978  -17.7510  -51.5421 C.3       23 UNK        -0.0398 
    125 S125       -7.0504  -19.3638  -50.7220 S.3       23 UNK        -0.2404 
    126 C126       -5.3636  -19.7856  -50.1784 C.3       23 UNK        -0.0205 
    127 H127        5.2924  -17.0350  -46.1879 H         1 UNK         0.0600 
    128 H128        4.1064  -18.0387  -47.0290 H         1 UNK         0.0600 
    129 H129        4.1387  -18.0004  -45.2664 H         1 UNK         0.0600 
    130 H130        2.4363  -16.8429  -47.8793 H         1 UNK         0.3000 
    131 H131        0.8394  -15.0269  -46.4515 H         1 UNK         0.0600 
    132 H132       -0.1154  -14.4669  -48.7637 H         1 UNK         0.0800 
    133 H133        1.1041  -15.4877  -49.4726 H         1 UNK         0.0800 
    134 H134       -2.1821  -15.8464  -49.8254 H         1 UNK         0.0800 
    135 H135       -2.3372  -15.1642  -48.2233 H         1 UNK         0.0800 
    136 H136       -3.3216  -17.9729  -50.3930 H         1 UNK         0.1150 
    137 H137       -6.2171  -19.4893  -47.6146 H         1 UNK         0.1150 
    138 H138       -3.5544  -16.3473  -46.4392 H         1 UNK         0.1150 
    139 H139       -5.7269  -16.8935  -45.1671 H         1 UNK         0.0800 
    140 H140       -6.5007  -18.4310  -45.4552 H         1 UNK         0.0800 
    141 H141       -5.5153  -20.6553  -45.1333 H         1 UNK         0.0800 
    142 H142       -4.4668  -21.0300  -43.7937 H         1 UNK         0.0800 
    143 H143       -3.5889  -20.4468  -46.6712 H         1 UNK         0.0600 
    144 H144       -2.0157  -20.0874  -44.3818 H         1 UNK         0.3000 
    145 H145        1.1053  -21.1594  -45.5354 H         1 UNK         0.0600 
    146 H146        1.7653  -18.7334  -45.2282 H         1 UNK         0.0600 
    147 H147        1.1246  -19.0942  -46.8239 H         1 UNK         0.0600 
    148 H148        0.1129  -18.2736  -45.6492 H         1 UNK         0.0600 
    149 H149        0.3998  -19.4876  -43.3486 H         1 UNK         0.3000 
    150 H150       -0.9072  -20.7569  -41.2103 H         1 UNK         0.0600 
    151 H151       -0.5619  -23.1486  -40.8095 H         1 UNK         0.0600 
    152 H152        0.3444  -22.2429  -39.6081 H         1 UNK         0.0600 
    153 H153        1.1789  -22.9890  -40.9715 H         1 UNK         0.0600 
    154 H154        0.6646  -19.2424  -40.9093 H         1 UNK         0.3000 
    155 H155        4.0857  -19.1344  -40.5868 H         1 UNK         0.0600 
    156 H156        2.6815  -17.9920  -43.0617 H         1 UNK         0.0600 
    157 H157        4.1313  -18.9938  -43.0795 H         1 UNK         0.0600 
    158 H158        4.1795  -17.3919  -42.3580 H         1 UNK         0.0600 
    159 H159        2.0857  -17.0791  -40.8959 H         1 UNK         0.3000 
    160 H160        1.0849  -17.0556  -37.4540 H         1 UNK         0.0600 
    161 H161        2.7061  -15.1558  -39.2276 H         1 UNK         0.0600 
    162 H162        3.1322  -15.6804  -37.6056 H         1 UNK         0.0600 
    163 H163        1.7174  -14.6672  -37.8511 H         1 UNK         0.0600 
    164 H164        0.3655  -15.6732  -39.9285 H         1 UNK         0.3000 
    165 H165       -2.5570  -17.5788  -40.5242 H         1 UNK         0.0600 
    166 H166       -3.7323  -15.4147  -40.2357 H         1 UNK         0.0600 
    167 H167       -3.3324  -16.0982  -38.6682 H         1 UNK         0.0600 
    168 H168       -2.3763  -14.7681  -39.3107 H         1 UNK         0.0600 
    169 H169       -1.5762  -15.1232  -41.6262 H         1 UNK         0.3000 
    170 H170        0.4570  -16.6048  -44.1523 H         1 UNK         0.0600 
    171 H171       -1.8662  -16.8247  -44.9714 H         1 UNK         0.0600 
    172 H172       -2.3217  -15.3010  -44.2194 H         1 UNK         0.0600 
    173 H173       -1.1879  -15.3191  -45.5632 H         1 UNK         0.0600 
    174 H174       -0.1193  -13.9206  -43.8473 H         1 UNK         0.3000 
    175 H175        1.1905  -12.4198  -42.9148 H         1 UNK         0.0600 
    176 H176        3.0484  -13.2803  -40.6234 H         1 UNK         0.0600 
    177 H177        2.4241  -11.6651  -40.9382 H         1 UNK         0.0600 
    178 H178        1.3413  -12.9233  -40.3810 H         1 UNK         0.0600 
    179 H179        3.3121  -14.0299  -43.7502 H         1 UNK         0.3000 
    180 H180        5.7972  -11.5152  -44.4079 H         1 UNK         0.0600 
    181 H181        5.4793  -14.5083  -43.8191 H         1 UNK         0.0600 
    182 H182        6.3135  -13.3465  -42.7958 H         1 UNK         0.0600 
    183 H183        6.9277  -13.6982  -44.4032 H         1 UNK         0.0600 
    184 H184        4.4130  -13.6848  -45.9003 H         1 UNK         0.3000 
    185 H185        3.4923  -11.5932  -48.5462 H         1 UNK         0.0600 
    186 H186        5.8959  -11.7392  -49.2020 H         1 UNK         0.0600 
    187 H187        5.9506  -13.4217  -48.6905 H         1 UNK         0.0600 
    188 H188        4.9383  -12.9401  -50.0530 H         1 UNK         0.0600 
    189 H189        3.7638  -14.4563  -48.2833 H         1 UNK         0.3000 
    190 H190       -2.1422  -22.8370  -44.5593 H         1 UNK         0.3000 
    191 H191       -3.4715  -25.0715  -46.0488 H         1 UNK         0.0600 
    192 H192       -2.1481  -25.0415  -43.2830 H         1 UNK         0.0600 
    193 H193       -2.8235  -26.4563  -44.0842 H         1 UNK         0.0600 
    194 H194       -3.8791  -25.1374  -43.6011 H         1 UNK         0.0600 
    195 H195       -0.3409  -23.7930  -44.7779 H         1 UNK         0.3000 
    196 H196        1.2084  -25.9537  -45.7599 H         1 UNK         0.0600 
    197 H197        3.1245  -24.5636  -45.0305 H         1 UNK         0.0600 
    198 H198        1.8511  -24.5431  -43.8206 H         1 UNK         0.0600 
    199 H199        2.0846  -23.1556  -44.8792 H         1 UNK         0.0600 
    200 H200        0.2527  -22.9401  -47.3396 H         1 UNK         0.3000 
    201 H201        1.9408  -23.6341  -49.7218 H         1 UNK         0.0600 
    202 H202        2.6786  -21.4990  -48.6696 H         1 UNK         0.0600 
    203 H203        1.0446  -20.8543  -48.7849 H         1 UNK         0.0600 
    204 H204        1.9516  -21.2226  -50.2445 H         1 UNK         0.0600 
    205 H205       -1.1006  -22.1120  -48.5955 H         1 UNK         0.3000 
    206 H206       -3.1605  -21.9672  -49.3659 H         1 UNK         0.0600 
    207 H207       -3.0493  -24.4309  -48.9234 H         1 UNK         0.0600 
    208 H208       -4.2019  -24.0493  -50.1906 H         1 UNK         0.0600 
    209 H209       -2.6287  -24.7174  -50.6118 H         1 UNK         0.0600 
    210 H210       -1.2102  -20.7104  -51.0282 H         1 UNK         0.3000 
    211 H211       -0.7917  -19.7282  -52.9737 H         1 UNK         0.0600 
    212 H212       -3.7747  -20.0967  -53.5703 H         1 UNK         0.0600 
    213 H213       -2.6997  -18.9394  -54.3399 H         1 UNK         0.0600 
    214 H214       -3.0727  -18.7736  -52.6347 H         1 UNK         0.0600 
    215 H215       -0.4129  -22.6041  -52.8303 H         1 UNK         0.3000 
    216 H216        0.2001  -24.3603  -53.9738 H         1 UNK         0.0600 
    217 H217        1.0673  -24.1606  -56.2646 H         1 UNK         0.0600 
    218 H218        1.5496  -22.7435  -55.3489 H         1 UNK         0.0600 
    219 H219        0.2253  -22.6379  -56.5089 H         1 UNK         0.0600 
    220 H220       -2.7232  -23.5431  -53.7808 H         1 UNK         0.3000 
    221 H221       -4.7483  -24.2038  -54.2763 H         1 UNK         0.0600 
    222 H222       -3.5069  -26.7458  -55.4538 H         1 UNK         0.0600 
    223 H223       -3.8517  -26.4817  -53.7447 H         1 UNK         0.0600 
    224 H224       -5.1656  -26.5469  -54.9068 H         1 UNK         0.0600 
    225 H225       -3.4279  -22.4900  -56.1640 H         1 UNK         0.3000 
    226 H226       -4.0878  -23.2142  -58.8665 H         1 UNK         0.0600 
    227 H227       -2.1540  -21.7798  -58.2659 H         1 UNK         0.0600 
    228 H228       -3.2434  -20.9327  -59.3531 H         1 UNK         0.0600 
    229 H229       -3.2403  -20.5436  -57.6358 H         1 UNK         0.0600 
    230 H230       -6.3653  -23.7152  -57.8772 H         1 UNK         0.3000 
    231 H231       -8.5300  -23.6037  -58.1651 H         1 UNK         0.0600 
    232 H232       -8.0956  -22.7354  -60.4535 H         1 UNK         0.0600 
    233 H233       -8.1488  -21.0780  -59.8527 H         1 UNK         0.0600 
    234 H234       -9.5868  -22.0834  -59.7922 H         1 UNK         0.0600 
    235 H235       -7.1715  -20.4816  -57.1168 H         1 UNK         0.3000 
    236 H236       -9.0321  -20.3570  -54.8836 H         1 UNK         0.0600 
    237 H237       -9.7815  -18.0186  -55.4554 H         1 UNK         0.0600 
    238 H238       -8.9700  -18.1322  -57.0124 H         1 UNK         0.0600 
    239 H239      -10.3528  -19.1658  -56.6552 H         1 UNK         0.0600 
    240 H240       -8.3646  -18.6710  -53.3602 H         1 UNK         0.3000 
    241 H241       -5.5074  -18.4705  -53.0970 H         1 UNK         0.0600 
    242 H242       -4.1262  -16.5947  -53.2719 H         1 UNK         0.3800 
    243 H243       -4.6914  -15.1321  -54.0221 H         1 UNK         0.3800 
    244 H244       -6.0334  -17.1892  -51.0039 H         1 UNK         0.0800 
    245 H245       -7.7181  -17.1745  -51.4339 H         1 UNK         0.0800 
    246 H246       -5.3713  -20.7970  -49.7698 H         1 UNK         0.0800 
    247 H247       -4.7063  -19.8101  -51.0473 H         1 UNK         0.0800 
@<TRIPOS>BOND
     1    1    2 1    
     2    1  127 1    
     3    1  128 1    
     4    1  129 1    
     5    2    3 2    
     6    2    4 am   BACKBONE|DICT|INTERRES
     7    4    5 1    
     8    4  130 1    
     9    5    6 1    
    10    5   65 1    
    11    5  131 1    
    12    6    7 1    
    13    6  132 1    
    14    6  133 1    
    15    7    8 1    
    16    8    9 1    
    17    8  134 1    
    18    8  135 1    
    19    9   10 ar   
    20    9   14 ar   
    21   10   11 ar   
    22   10  136 1    
    23   11   12 ar   
    24   11  126 1    
    25   12   13 ar   
    26   12  137 1    
    27   13   14 ar   
    28   13   15 1    
    29   14  138 1    
    30   15   16 1    
    31   15  139 1    
    32   15  140 1    
    33   16   17 1    
    34   17   18 1    
    35   17  141 1    
    36   17  142 1    
    37   18   19 1    
    38   18   67 1    
    39   18  143 1    
    40   19   20 am   BACKBONE|DICT|INTERRES
    41   19  144 1    
    42   20   21 2    
    43   20   22 1    
    44   22   23 1    
    45   22   24 1    
    46   22  145 1    
    47   23  146 1    
    48   23  147 1    
    49   23  148 1    
    50   24   25 am   BACKBONE|DICT|INTERRES
    51   24  149 1    
    52   25   26 2    
    53   25   27 1    
    54   27   28 1    
    55   27   29 1    
    56   27  150 1    
    57   28  151 1    
    58   28  152 1    
    59   28  153 1    
    60   29   30 am   BACKBONE|DICT|INTERRES
    61   29  154 1    
    62   30   31 2    
    63   30   32 1    
    64   32   33 1    
    65   32   34 1    
    66   32  155 1    
    67   33  156 1    
    68   33  157 1    
    69   33  158 1    
    70   34   35 am   BACKBONE|DICT|INTERRES
    71   34  159 1    
    72   35   36 2    
    73   35   37 1    
    74   37   38 1    
    75   37   39 1    
    76   37  160 1    
    77   38  161 1    
    78   38  162 1    
    79   38  163 1    
    80   39   40 am   BACKBONE|DICT|INTERRES
    81   39  164 1    
    82   40   41 2    
    83   40   42 1    
    84   42   43 1    
    85   42   44 1    
    86   42  165 1    
    87   43  166 1    
    88   43  167 1    
    89   43  168 1    
    90   44   45 am   BACKBONE|DICT|INTERRES
    91   44  169 1    
    92   45   46 2    
    93   45   47 1    
    94   47   48 1    
    95   47   49 1    
    96   47  170 1    
    97   48  171 1    
    98   48  172 1    
    99   48  173 1    
   100   49   50 am   BACKBONE|DICT|INTERRES
   101   49  174 1    
   102   50   51 2    
   103   50   52 1    
   104   52   53 1    
   105   52   54 1    
   106   52  175 1    
   107   53  176 1    
   108   53  177 1    
   109   53  178 1    
   110   54   55 am   BACKBONE|DICT|INTERRES
   111   54  179 1    
   112   55   56 2    
   113   55   57 1    
   114   57   58 1    
   115   57   59 1    
   116   57  180 1    
   117   58  181 1    
   118   58  182 1    
   119   58  183 1    
   120   59   60 am   BACKBONE|DICT|INTERRES
   121   59  184 1    
   122   60   61 2    
   123   60   62 1    
   124   62   63 1    
   125   62   64 1    
   126   62  185 1    
   127   63  186 1    
   128   63  187 1    
   129   63  188 1    
   130   64   65 am   BACKBONE|DICT|INTERRES
   131   64  189 1    
   132   65   66 2    
   133   67   68 2    
   134   67   69 am   BACKBONE|DICT|INTERRES
   135   69   70 1    
   136   69  190 1    
   137   70   71 1    
   138   70   72 1    
   139   70  191 1    
   140   71  192 1    
   141   71  193 1    
   142   71  194 1    
   143   72   73 2    
   144   72   74 am   BACKBONE|DICT|INTERRES
   145   74   75 1    
   146   74  195 1    
   147   75   76 1    
   148   75   77 1    
   149   75  196 1    
   150   76  197 1    
   151   76  198 1    
   152   76  199 1    
   153   77   78 2    
   154   77   79 am   BACKBONE|DICT|INTERRES
   155   79   80 1    
   156   79  200 1    
   157   80   81 1    
   158   80   82 1    
   159   80  201 1    
   160   81  202 1    
   161   81  203 1    
   162   81  204 1    
   163   82   83 2    
   164   82   84 am   BACKBONE|DICT|INTERRES
   165   84   85 1    
   166   84  205 1    
   167   85   86 1    
   168   85   87 1    
   169   85  206 1    
   170   86  207 1    
   171   86  208 1    
   172   86  209 1    
   173   87   88 2    
   174   87   89 am   BACKBONE|DICT|INTERRES
   175   89   90 1    
   176   89  210 1    
   177   90   91 1    
   178   90   92 1    
   179   90  211 1    
   180   91  212 1    
   181   91  213 1    
   182   91  214 1    
   183   92   93 2    
   184   92   94 am   BACKBONE|DICT|INTERRES
   185   94   95 1    
   186   94  215 1    
   187   95   96 1    
   188   95   97 1    
   189   95  216 1    
   190   96  217 1    
   191   96  218 1    
   192   96  219 1    
   193   97   98 2    
   194   97   99 am   BACKBONE|DICT|INTERRES
   195   99  100 1    
   196   99  220 1    
   197  100  101 1    
   198  100  102 1    
   199  100  221 1    
   200  101  222 1    
   201  101  223 1    
   202  101  224 1    
   203  102  103 2    
   204  102  104 am   BACKBONE|DICT|INTERRES
   205  104  105 1    
   206  104  225 1    
   207  105  106 1    
   208  105  107 1    
   209  105  226 1    
   210  106  227 1    
   211  106  228 1    
   212  106  229 1    
   213  107  108 2    
   214  107  109 am   BACKBONE|DICT|INTERRES
   215  109  110 1    
   216  109  230 1    
   217  110  111 1    
   218  110  112 1    
   219  110  231 1    
   220  111  232 1    
   221  111  233 1    
   222  111  234 1    
   223  112  113 2    
   224  112  114 am   BACKBONE|DICT|INTERRES
   225  114  115 1    
   226  114  235 1    
   227  115  116 1    
   228  115  117 1    
   229  115  236 1    
   230  116  237 1    
   231  116  238 1    
   232  116  239 1    
   233  117  118 2    
   234  117  119 am   BACKBONE|DICT|INTERRES
   235  119  120 1    
   236  119  240 1    
   237  120  121 1    
   238  120  124 1    
   239  120  241 1    
   240  121  122 am   BACKBONE|DICT|INTERRES
   241  121  123 2    
   242  122  242 1    
   243  122  243 1    
   244  124  125 1    
   245  124  244 1    
   246  124  245 1    
   247  125  126 1    
   248  126  246 1    
   249  126  247 1    
@<TRIPOS>SUBSTRUCTURE
     1 UNK         1 GROUP             0       ****    0 ROOT    
