@<TRIPOS>MOLECULE
3R540
247   249    1
SMALL
USER_CHARGES


@<TRIPOS>ATOM
      1 CA          1.3322  -10.6740  -45.9107 C.3       0 UNK        -0.1800 
      2 C           0.7648  -11.7019  -46.8800 C.2       0 UNK         0.5000 
      3 O           0.6970  -11.4411  -48.0814 O.2       0 UNK        -0.5000 
      4 N           0.3511  -12.8630  -46.3612 N.am      1 UNK        -0.5000 
      5 CA         -0.1489  -14.0006  -47.1362 C.3       1 UNK         0.1400 
      6 C6         -0.9210  -14.9680  -46.2049 C.3       23 UNK        -0.0398 
      7 S7         -1.6516  -16.4063  -47.0545 S.3       23 UNK        -0.2404 
      8 C8         -3.4080  -15.9612  -47.2147 C.3       23 UNK        -0.0205 
      9 C9         -4.1417  -16.8966  -48.1699 C.ar      23 UNK        -0.0193 
     10 C10        -4.9732  -16.3644  -49.1590 C.ar      23 UNK        -0.1150 
     11 C11        -5.6236  -17.2019  -50.0690 C.ar      23 UNK        -0.0193 
     12 C12        -5.4547  -18.5857  -49.9731 C.ar      23 UNK        -0.1150 
     13 C13        -4.6320  -19.1348  -48.9864 C.ar      23 UNK        -0.0193 
     14 C14        -3.9846  -18.2859  -48.0847 C.ar      23 UNK        -0.1150 
     15 C15        -4.3831  -20.6357  -48.9535 C.3       23 UNK        -0.0205 
     16 S16        -5.4723  -21.5253  -47.7986 S.3       23 UNK        -0.2404 
     17 C17        -4.6845  -21.2261  -46.1764 C.3       23 UNK        -0.0398 
     18 CA         -3.3213  -21.9325  -45.9441 C.3       11 UNK         0.1400 
     19 N          -2.7044  -21.4531  -44.7029 N.am      11 UNK        -0.5000 
     20 C          -1.5183  -21.8144  -44.1985 C.2       10 UNK         0.5000 
     21 O          -0.7764  -22.6420  -44.7300 O.2       10 UNK        -0.5000 
     22 CA         -1.1149  -21.1290  -42.8761 C.3       10 UNK         0.1400 
     23 CB          0.1301  -21.7584  -42.2307 C.3       10 UNK        -0.1800 
     24 N          -0.8829  -19.6939  -43.0380 N.am      10 UNK        -0.5000 
     25 C          -1.8314  -18.7607  -43.1909 C.2       9 UNK         0.5000 
     26 O          -3.0343  -19.0190  -43.2812 O.2       9 UNK        -0.5000 
     27 CA         -1.3359  -17.3021  -43.2023 C.3       9 UNK         0.1400 
     28 CB         -2.4809  -16.2714  -43.2740 C.3       9 UNK        -0.1800 
     29 N          -0.4558  -17.0112  -42.0672 N.am      9 UNK        -0.5000 
     30 C          -0.7584  -17.0895  -40.7609 C.2       8 UNK         0.5000 
     31 O          -1.8563  -17.4285  -40.3179 O.2       8 UNK        -0.5000 
     32 CA          0.3589  -16.7066  -39.7769 C.3       8 UNK         0.1400 
     33 CB          1.2661  -17.9146  -39.4916 C.3       8 UNK        -0.1800 
     34 N           1.1632  -15.5944  -40.2846 N.am      8 UNK        -0.5000 
     35 C           0.8274  -14.3016  -40.1676 C.2       7 UNK         0.5000 
     36 O          -0.1751  -13.9098  -39.5690 O.2       7 UNK        -0.5000 
     37 CA          1.7690  -13.2647  -40.8112 C.3       7 UNK         0.1400 
     38 CB          2.7307  -12.6914  -39.7588 C.3       7 UNK        -0.1800 
     39 N           2.5538  -13.8190  -41.9141 N.am      7 UNK        -0.5000 
     40 C           2.1069  -13.9618  -43.1683 C.2       6 UNK         0.5000 
     41 O           1.0009  -13.5829  -43.5575 O.2       6 UNK        -0.5000 
     42 CA          3.0557  -14.6590  -44.1599 C.3       6 UNK         0.1400 
     43 CB          3.9166  -13.6202  -44.8942 C.3       6 UNK        -0.1800 
     44 N           3.9356  -15.6734  -43.5702 N.am      6 UNK        -0.5000 
     45 C           3.5147  -16.7753  -42.9383 C.2       5 UNK         0.5000 
     46 O           2.3431  -16.9795  -42.6187 O.2       5 UNK        -0.5000 
     47 CA          4.5861  -17.8253  -42.6001 C.3       5 UNK         0.1400 
     48 CB          5.0343  -17.6719  -41.1392 C.3       5 UNK        -0.1800 
     49 N           4.0707  -19.1817  -42.8008 N.am      5 UNK        -0.5000 
     50 C           3.7918  -19.7920  -43.9635 C.2       4 UNK         0.5000 
     51 O           3.2756  -20.9090  -43.9860 O.2       4 UNK        -0.5000 
     52 CA          4.1883  -19.1353  -45.3085 C.3       4 UNK         0.1400 
     53 CB          5.5540  -19.6619  -45.7754 C.3       4 UNK        -0.1800 
     54 N           3.2029  -19.3848  -46.3595 N.am      4 UNK        -0.5000 
     55 C           1.9602  -18.8877  -46.3721 C.2       3 UNK         0.5000 
     56 O           1.4968  -18.1597  -45.4924 O.2       3 UNK        -0.5000 
     57 CA          1.1055  -19.2166  -47.6068 C.3       3 UNK         0.1400 
     58 CB         -0.2726  -19.7686  -47.2029 C.3       3 UNK        -0.1800 
     59 N           0.9411  -18.0046  -48.4072 N.am      3 UNK        -0.5000 
     60 C           1.8803  -17.4996  -49.2216 C.2       2 UNK         0.5000 
     61 O           2.9322  -18.0833  -49.4853 O.2       2 UNK        -0.5000 
     62 CA          1.6189  -16.1095  -49.8405 C.3       2 UNK         0.1400 
     63 CB          1.0853  -16.2376  -51.2757 C.3       2 UNK        -0.1800 
     64 N           0.6931  -15.2904  -49.0547 N.am      2 UNK        -0.5000 
     65 C           1.0076  -14.6996  -47.8936 C.2       1 UNK         0.5000 
     66 O           2.1415  -14.7197  -47.4115 O.2       1 UNK        -0.5000 
     67 C          -3.4288  -23.4732  -46.0058 C.2       11 UNK         0.5000 
     68 O          -3.1457  -24.0606  -47.0508 O.2       11 UNK        -0.5000 
     69 N          -3.7758  -24.0997  -44.8720 N.am      12 UNK        -0.5000 
     70 CA         -3.8655  -25.5528  -44.7221 C.3       12 UNK         0.1400 
     71 CB         -4.5463  -25.8847  -43.3859 C.3       12 UNK        -0.1800 
     72 C          -2.4997  -26.2576  -44.8253 C.2       12 UNK         0.5000 
     73 O          -2.4113  -27.3123  -45.4538 O.2       12 UNK        -0.5000 
     74 N          -1.4540  -25.6526  -44.2420 N.am      13 UNK        -0.5000 
     75 CA         -0.0764  -26.1550  -44.2903 C.3       13 UNK         0.1400 
     76 CB          0.7803  -25.4254  -43.2455 C.3       13 UNK        -0.1800 
     77 C           0.5429  -26.0149  -45.6922 C.2       13 UNK         0.5000 
     78 O           1.3085  -26.8824  -46.1128 O.2       13 UNK        -0.5000 
     79 N           0.1554  -24.9500  -46.4059 N.am      14 UNK        -0.5000 
     80 CA          0.4864  -24.7040  -47.8095 C.3       14 UNK         0.1400 
     81 CB          0.3162  -23.2034  -48.0961 C.3       14 UNK        -0.1800 
     82 C          -0.3459  -25.5490  -48.7982 C.2       14 UNK         0.5000 
     83 O          -0.1586  -25.4028  -50.0057 O.2       14 UNK        -0.5000 
     84 N          -1.2684  -26.3846  -48.2929 N.am      15 UNK        -0.5000 
     85 CA         -2.1848  -27.2561  -49.0397 C.3       15 UNK         0.1400 
     86 CB         -1.4049  -28.3964  -49.7260 C.3       15 UNK        -0.1800 
     87 C          -3.0961  -26.4794  -50.0149 C.2       15 UNK         0.5000 
     88 O          -3.4262  -26.9799  -51.0912 O.2       15 UNK        -0.5000 
     89 N          -3.4593  -25.2522  -49.6166 N.am      16 UNK        -0.5000 
     90 CA         -4.2454  -24.2589  -50.3475 C.3       16 UNK         0.1400 
     91 CB         -5.6887  -24.7515  -50.5755 C.3       16 UNK        -0.1800 
     92 C          -3.5868  -23.7304  -51.6403 C.2       16 UNK         0.5000 
     93 O          -4.2751  -23.0980  -52.4407 O.2       16 UNK        -0.5000 
     94 N          -2.2734  -23.9455  -51.8253 N.am      17 UNK        -0.5000 
     95 CA         -1.5306  -23.5702  -53.0365 C.3       17 UNK         0.1400 
     96 CB         -0.0892  -24.0888  -52.9371 C.3       17 UNK        -0.1800 
     97 C          -1.5351  -22.0599  -53.3437 C.2       17 UNK         0.5000 
     98 O          -1.5151  -21.6777  -54.5140 O.2       17 UNK        -0.5000 
     99 N          -1.6072  -21.2293  -52.2940 N.am      18 UNK        -0.5000 
    100 CA        -1.7082  -19.7714  -52.3882 C.3       18 UNK         0.1400 
    101 CB        -1.4979  -19.1564  -50.9972 C.3       18 UNK        -0.1800 
    102 C         -3.0206  -19.2698  -53.0251 C.2       18 UNK         0.5000 
    103 O         -3.0406  -18.1517  -53.5388 O.2       18 UNK        -0.5000 
    104 N         -4.0756  -20.1019  -53.0470 N.am      19 UNK        -0.5000 
    105 CA        -5.3601  -19.7816  -53.6790 C.3       19 UNK         0.1400 
    106 CB        -6.3931  -20.8656  -53.3407 C.3       19 UNK        -0.1800 
    107 C         -5.2628  -19.5834  -55.2053 C.2       19 UNK         0.5000 
    108 O         -6.0986  -18.8820  -55.7766 O.2       19 UNK        -0.5000 
    109 N         -4.2231  -20.1537  -55.8325 N.am      20 UNK        -0.5000 
    110 CA        -3.8871  -19.9488  -57.2418 C.3       20 UNK         0.1400 
    111 CB        -2.7924  -20.9458  -57.6494 C.3       20 UNK        -0.1800 
    112 C         -3.4479  -18.5043  -57.5575 C.2       20 UNK         0.5000 
    113 O         -3.6441  -18.0535  -58.6866 O.2       20 UNK        -0.5000 
    114 N         -2.8823  -17.8000  -56.5650 N.am      21 UNK        -0.5000 
    115 CA        -2.5511  -16.3779  -56.6596 C.3       21 UNK         0.1400 
    116 CB        -1.4195  -16.0424  -55.6750 C.3       21 UNK        -0.1800 
    117 C         -3.7849  -15.4948  -56.3988 C.2       21 UNK         0.5000 
    118 O         -3.9126  -14.4382  -57.0190 O.2       21 UNK        -0.5000 
    119 N         -4.6686  -15.9433  -55.4967 N.am      22 UNK        -0.5000 
    120 CA        -5.9421  -15.2821  -55.1674 C.3       22 UNK         0.1400 
    121 C         -6.9726  -15.3324  -56.3288 C.2       22 UNK         0.5000 
    122 N         -7.1279  -16.4666  -57.0009 N.am      22 UNK        -0.7600 
    123 O         -7.6331  -14.3391  -56.6200 O.2       22 UNK        -0.5000 
    124 C124       -6.5833  -15.8387  -53.8706 C.3       23 UNK        -0.0398 
    125 S125       -5.4415  -15.8377  -52.4514 S.3       23 UNK        -0.2404 
    126 C126       -6.4818  -16.6091  -51.1743 C.3       23 UNK        -0.0205 
    127 H127        2.3672  -10.4480  -46.1671 H         1 UNK         0.0600 
    128 H128        1.3073  -11.0314  -44.8808 H         1 UNK         0.0600 
    129 H129        0.7566   -9.7500  -45.9633 H         1 UNK         0.0600 
    130 H130        0.4715  -13.0309  -45.3664 H         1 UNK         0.3000 
    131 H131       -0.8528  -13.6147  -47.8769 H         1 UNK         0.0600 
    132 H132       -0.2515  -15.3431  -45.4295 H         1 UNK         0.0800 
    133 H133       -1.7129  -14.4290  -45.6833 H         1 UNK         0.0800 
    134 H134       -3.4767  -14.9299  -47.5642 H         1 UNK         0.0800 
    135 H135       -3.8943  -15.9965  -46.2408 H         1 UNK         0.0800 
    136 H136       -5.0976  -15.2938  -49.2418 H         1 UNK         0.1150 
    137 H137       -5.9447  -19.2361  -50.6829 H         1 UNK         0.1150 
    138 H138       -3.3301  -18.7040  -47.3340 H         1 UNK         0.1150 
    139 H139       -3.3406  -20.8415  -48.7159 H         1 UNK         0.0800 
    140 H140       -4.5424  -21.0427  -49.9530 H         1 UNK         0.0800 
    141 H141       -5.3949  -21.5325  -45.4068 H         1 UNK         0.0800 
    142 H142       -4.5755  -20.1495  -46.0480 H         1 UNK         0.0800 
    143 H143       -2.6397  -21.6372  -46.7415 H         1 UNK         0.0600 
    144 H144       -3.1940  -20.7095  -44.2128 H         1 UNK         0.3000 
    145 H145       -1.9437  -21.2622  -42.1777 H         1 UNK         0.0600 
    146 H146        0.3974  -21.2489  -41.3047 H         1 UNK         0.0600 
    147 H147       -0.0504  -22.8038  -41.9809 H         1 UNK         0.0600 
    148 H148        0.9929  -21.7199  -42.8956 H         1 UNK         0.0600 
    149 H149        0.0806  -19.3910  -43.0099 H         1 UNK         0.3000 
    150 H150       -0.7284  -17.1964  -44.1010 H         1 UNK         0.0600 
    151 H151       -3.1424  -16.3343  -42.4098 H         1 UNK         0.0600 
    152 H152       -3.0930  -16.4347  -44.1590 H         1 UNK         0.0600 
    153 H153       -2.0924  -15.2543  -43.3244 H         1 UNK         0.0600 
    154 H154        0.5106  -16.8046  -42.3100 H         1 UNK         0.3000 
    155 H155       -0.1070  -16.4091  -38.8349 H         1 UNK         0.0600 
    156 H156        1.7280  -18.3023  -40.3996 H         1 UNK         0.0600 
    157 H157        0.6951  -18.7299  -39.0457 H         1 UNK         0.0600 
    158 H158        2.0616  -17.6550  -38.7931 H         1 UNK         0.0600 
    159 H159        1.9545  -15.8421  -40.8629 H         1 UNK         0.3000 
    160 H160        1.1522  -12.4462  -41.1889 H         1 UNK         0.0600 
    161 H161        3.3798  -13.4629  -39.3426 H         1 UNK         0.0600 
    162 H162        2.1808  -12.2429  -38.9303 H         1 UNK         0.0600 
    163 H163        3.3637  -11.9133  -40.1858 H         1 UNK         0.0600 
    164 H164        3.4837  -14.1451  -41.6952 H         1 UNK         0.3000 
    165 H165        2.4271  -15.1716  -44.8897 H         1 UNK         0.0600 
    166 H166        4.5118  -14.0870  -45.6793 H         1 UNK         0.0600 
    167 H167        4.5962  -13.1048  -44.2146 H         1 UNK         0.0600 
    168 H168        3.2945  -12.8645  -45.3738 H         1 UNK         0.0600 
    169 H169        4.9214  -15.5637  -43.7607 H         1 UNK         0.3000 
    170 H170        5.4585  -17.6792  -43.2398 H         1 UNK         0.0600 
    171 H171        5.4451  -16.6779  -40.9574 H         1 UNK         0.0600 
    172 H172        4.2074  -17.8168  -40.4433 H         1 UNK         0.0600 
    173 H173        5.8121  -18.3934  -40.8881 H         1 UNK         0.0600 
    174 H174        3.7990  -19.6577  -41.9545 H         1 UNK         0.3000 
    175 H175        4.2640  -18.0542  -45.2138 H         1 UNK         0.0600 
    176 H176        5.5346  -20.7401  -45.9400 H         1 UNK         0.0600 
    177 H177        5.8653  -19.1854  -46.7053 H         1 UNK         0.0600 
    178 H178        6.3262  -19.4579  -45.0326 H         1 UNK         0.0600 
    179 H179        3.5042  -19.9691  -47.1253 H         1 UNK         0.3000 
    180 H180        1.6070  -19.9783  -48.2078 H         1 UNK         0.0600 
    181 H181       -0.8214  -19.0825  -46.5595 H         1 UNK         0.0600 
    182 H182       -0.1620  -20.6971  -46.6451 H         1 UNK         0.0600 
    183 H183       -0.8890  -19.9812  -48.0756 H         1 UNK         0.0600 
    184 H184        0.1293  -17.4404  -48.1961 H         1 UNK         0.3000 
    185 H185        2.5800  -15.5929  -49.8877 H         1 UNK         0.0600 
    186 H186        1.0266  -15.2632  -51.7608 H         1 UNK         0.0600 
    187 H187        1.7398  -16.8630  -51.8843 H         1 UNK         0.0600 
    188 H188        0.0913  -16.6811  -51.3000 H         1 UNK         0.0600 
    189 H189       -0.2583  -15.2400  -49.3896 H         1 UNK         0.3000 
    190 H190       -3.9775  -23.5437  -44.0541 H         1 UNK         0.3000 
    191 H191       -4.4957  -25.9351  -45.5283 H         1 UNK         0.0600 
    192 H192       -4.6447  -26.9633  -43.2555 H         1 UNK         0.0600 
    193 H193       -5.5495  -25.4606  -43.3386 H         1 UNK         0.0600 
    194 H194       -3.9789  -25.5018  -42.5368 H         1 UNK         0.0600 
    195 H195       -1.5929  -24.7551  -43.8015 H         1 UNK         0.3000 
    196 H196       -0.0929  -27.2165  -44.0342 H         1 UNK         0.0600 
    197 H197        0.9099  -24.3727  -43.4961 H         1 UNK         0.0600 
    198 H198        0.3364  -25.4870  -42.2519 H         1 UNK         0.0600 
    199 H199        1.7755  -25.8676  -43.1855 H         1 UNK         0.0600 
    200 H200       -0.4269  -24.2553  -45.9492 H         1 UNK         0.3000 
    201 H201        1.5346  -24.9628  -47.9714 H         1 UNK         0.0600 
    202 H202       -0.7127  -22.8787  -47.9381 H         1 UNK         0.0600 
    203 H203        0.5842  -22.9612  -49.1253 H         1 UNK         0.0600 
    204 H204        0.9620  -22.6117  -47.4476 H         1 UNK         0.0600 
    205 H205       -1.3744  -26.4135  -47.2874 H         1 UNK         0.3000 
    206 H206       -2.8477  -27.7067  -48.2999 H         1 UNK         0.0600 
    207 H207       -0.7786  -28.9303  -49.0113 H         1 UNK         0.0600 
    208 H208       -2.0847  -29.1257  -50.1679 H         1 UNK         0.0600 
    209 H209       -0.7613  -28.0238  -50.5236 H         1 UNK         0.0600 
    210 H210       -3.1510  -24.9443  -48.6959 H         1 UNK         0.3000 
    211 H211       -4.2994  -23.4028  -49.6794 H         1 UNK         0.0600 
    212 H212       -6.3186  -23.9516  -50.9665 H         1 UNK         0.0600 
    213 H213       -6.1407  -25.0891  -49.6429 H         1 UNK         0.0600 
    214 H214       -5.7282  -25.5758  -51.2879 H         1 UNK         0.0600 
    215 H215       -1.7591  -24.4745  -51.1299 H         1 UNK         0.3000 
    216 H216       -2.0117  -24.0707  -53.8792 H         1 UNK         0.0600 
    217 H217        0.4396  -23.6456  -52.0923 H         1 UNK         0.0600 
    218 H218        0.4760  -23.8525  -53.8396 H         1 UNK         0.0600 
    219 H219       -0.0675  -25.1720  -52.8156 H         1 UNK         0.0600 
    220 H220       -1.6181  -21.6319  -51.3694 H         1 UNK         0.3000 
    221 H221       -0.8986  -19.4211  -53.0319 H         1 UNK         0.0600 
    222 H222       -0.4693  -19.2883  -50.6620 H         1 UNK         0.0600 
    223 H223       -2.1492  -19.6101  -50.2561 H         1 UNK         0.0600 
    224 H224       -1.7109  -18.0870  -50.9969 H         1 UNK         0.0600 
    225 H225       -3.9802  -21.0399  -52.6742 H         1 UNK         0.3000 
    226 H226       -5.7069  -18.8409  -53.2496 H         1 UNK         0.0600 
    227 H227       -6.1458  -21.8167  -53.8131 H         1 UNK         0.0600 
    228 H228       -6.4616  -21.0327  -52.2658 H         1 UNK         0.0600 
    229 H229       -7.3854  -20.5777  -53.6899 H         1 UNK         0.0600 
    230 H230       -3.5715  -20.7044  -55.2885 H         1 UNK         0.3000 
    231 H231       -4.7799  -20.1600  -57.8341 H         1 UNK         0.0600 
    232 H232       -1.8671  -20.7738  -57.0982 H         1 UNK         0.0600 
    233 H233       -2.5618  -20.8591  -58.7119 H         1 UNK         0.0600 
    234 H234       -3.1053  -21.9741  -57.4672 H         1 UNK         0.0600 
    235 H235       -2.7868  -18.2229  -55.6497 H         1 UNK         0.3000 
    236 H236       -2.1894  -16.1624  -57.6674 H         1 UNK         0.0600 
    237 H237       -0.5461  -16.6716  -55.8466 H         1 UNK         0.0600 
    238 H238       -1.1016  -15.0056  -55.7908 H         1 UNK         0.0600 
    239 H239       -1.7287  -16.1720  -54.6378 H         1 UNK         0.0600 
    240 H240       -4.4642  -16.7978  -54.9986 H         1 UNK         0.3000 
    241 H241       -5.7163  -14.2289  -54.9888 H         1 UNK         0.0600 
    242 H242       -7.7903  -16.5104  -57.7587 H         1 UNK         0.3800 
    243 H243       -6.6446  -17.3105  -56.7043 H         1 UNK         0.3800 
    244 H244       -6.9358  -16.8590  -54.0290 H         1 UNK         0.0800 
    245 H245       -7.4612  -15.2489  -53.6006 H         1 UNK         0.0800 
    246 H246       -7.1069  -17.3832  -51.6218 H         1 UNK         0.0800 
    247 H247       -7.1608  -15.8632  -50.7587 H         1 UNK         0.0800 
@<TRIPOS>BOND
     1    1    2 1    
     2    1  127 1    
     3    1  128 1    
     4    1  129 1    
     5    2    3 2    
     6    2    4 am   BACKBONE|DICT|INTERRES
     7    4    5 1    
     8    4  130 1    
     9    5    6 1    
    10    5   65 1    
    11    5  131 1    
    12    6    7 1    
    13    6  132 1    
    14    6  133 1    
    15    7    8 1    
    16    8    9 1    
    17    8  134 1    
    18    8  135 1    
    19    9   10 ar   
    20    9   14 ar   
    21   10   11 ar   
    22   10  136 1    
    23   11   12 ar   
    24   11  126 1    
    25   12   13 ar   
    26   12  137 1    
    27   13   14 ar   
    28   13   15 1    
    29   14  138 1    
    30   15   16 1    
    31   15  139 1    
    32   15  140 1    
    33   16   17 1    
    34   17   18 1    
    35   17  141 1    
    36   17  142 1    
    37   18   19 1    
    38   18   67 1    
    39   18  143 1    
    40   19   20 am   BACKBONE|DICT|INTERRES
    41   19  144 1    
    42   20   21 2    
    43   20   22 1    
    44   22   23 1    
    45   22   24 1    
    46   22  145 1    
    47   23  146 1    
    48   23  147 1    
    49   23  148 1    
    50   24   25 am   BACKBONE|DICT|INTERRES
    51   24  149 1    
    52   25   26 2    
    53   25   27 1    
    54   27   28 1    
    55   27   29 1    
    56   27  150 1    
    57   28  151 1    
    58   28  152 1    
    59   28  153 1    
    60   29   30 am   BACKBONE|DICT|INTERRES
    61   29  154 1    
    62   30   31 2    
    63   30   32 1    
    64   32   33 1    
    65   32   34 1    
    66   32  155 1    
    67   33  156 1    
    68   33  157 1    
    69   33  158 1    
    70   34   35 am   BACKBONE|DICT|INTERRES
    71   34  159 1    
    72   35   36 2    
    73   35   37 1    
    74   37   38 1    
    75   37   39 1    
    76   37  160 1    
    77   38  161 1    
    78   38  162 1    
    79   38  163 1    
    80   39   40 am   BACKBONE|DICT|INTERRES
    81   39  164 1    
    82   40   41 2    
    83   40   42 1    
    84   42   43 1    
    85   42   44 1    
    86   42  165 1    
    87   43  166 1    
    88   43  167 1    
    89   43  168 1    
    90   44   45 am   BACKBONE|DICT|INTERRES
    91   44  169 1    
    92   45   46 2    
    93   45   47 1    
    94   47   48 1    
    95   47   49 1    
    96   47  170 1    
    97   48  171 1    
    98   48  172 1    
    99   48  173 1    
   100   49   50 am   BACKBONE|DICT|INTERRES
   101   49  174 1    
   102   50   51 2    
   103   50   52 1    
   104   52   53 1    
   105   52   54 1    
   106   52  175 1    
   107   53  176 1    
   108   53  177 1    
   109   53  178 1    
   110   54   55 am   BACKBONE|DICT|INTERRES
   111   54  179 1    
   112   55   56 2    
   113   55   57 1    
   114   57   58 1    
   115   57   59 1    
   116   57  180 1    
   117   58  181 1    
   118   58  182 1    
   119   58  183 1    
   120   59   60 am   BACKBONE|DICT|INTERRES
   121   59  184 1    
   122   60   61 2    
   123   60   62 1    
   124   62   63 1    
   125   62   64 1    
   126   62  185 1    
   127   63  186 1    
   128   63  187 1    
   129   63  188 1    
   130   64   65 am   BACKBONE|DICT|INTERRES
   131   64  189 1    
   132   65   66 2    
   133   67   68 2    
   134   67   69 am   BACKBONE|DICT|INTERRES
   135   69   70 1    
   136   69  190 1    
   137   70   71 1    
   138   70   72 1    
   139   70  191 1    
   140   71  192 1    
   141   71  193 1    
   142   71  194 1    
   143   72   73 2    
   144   72   74 am   BACKBONE|DICT|INTERRES
   145   74   75 1    
   146   74  195 1    
   147   75   76 1    
   148   75   77 1    
   149   75  196 1    
   150   76  197 1    
   151   76  198 1    
   152   76  199 1    
   153   77   78 2    
   154   77   79 am   BACKBONE|DICT|INTERRES
   155   79   80 1    
   156   79  200 1    
   157   80   81 1    
   158   80   82 1    
   159   80  201 1    
   160   81  202 1    
   161   81  203 1    
   162   81  204 1    
   163   82   83 2    
   164   82   84 am   BACKBONE|DICT|INTERRES
   165   84   85 1    
   166   84  205 1    
   167   85   86 1    
   168   85   87 1    
   169   85  206 1    
   170   86  207 1    
   171   86  208 1    
   172   86  209 1    
   173   87   88 2    
   174   87   89 am   BACKBONE|DICT|INTERRES
   175   89   90 1    
   176   89  210 1    
   177   90   91 1    
   178   90   92 1    
   179   90  211 1    
   180   91  212 1    
   181   91  213 1    
   182   91  214 1    
   183   92   93 2    
   184   92   94 am   BACKBONE|DICT|INTERRES
   185   94   95 1    
   186   94  215 1    
   187   95   96 1    
   188   95   97 1    
   189   95  216 1    
   190   96  217 1    
   191   96  218 1    
   192   96  219 1    
   193   97   98 2    
   194   97   99 am   BACKBONE|DICT|INTERRES
   195   99  100 1    
   196   99  220 1    
   197  100  101 1    
   198  100  102 1    
   199  100  221 1    
   200  101  222 1    
   201  101  223 1    
   202  101  224 1    
   203  102  103 2    
   204  102  104 am   BACKBONE|DICT|INTERRES
   205  104  105 1    
   206  104  225 1    
   207  105  106 1    
   208  105  107 1    
   209  105  226 1    
   210  106  227 1    
   211  106  228 1    
   212  106  229 1    
   213  107  108 2    
   214  107  109 am   BACKBONE|DICT|INTERRES
   215  109  110 1    
   216  109  230 1    
   217  110  111 1    
   218  110  112 1    
   219  110  231 1    
   220  111  232 1    
   221  111  233 1    
   222  111  234 1    
   223  112  113 2    
   224  112  114 am   BACKBONE|DICT|INTERRES
   225  114  115 1    
   226  114  235 1    
   227  115  116 1    
   228  115  117 1    
   229  115  236 1    
   230  116  237 1    
   231  116  238 1    
   232  116  239 1    
   233  117  118 2    
   234  117  119 am   BACKBONE|DICT|INTERRES
   235  119  120 1    
   236  119  240 1    
   237  120  121 1    
   238  120  124 1    
   239  120  241 1    
   240  121  122 am   BACKBONE|DICT|INTERRES
   241  121  123 2    
   242  122  242 1    
   243  122  243 1    
   244  124  125 1    
   245  124  244 1    
   246  124  245 1    
   247  125  126 1    
   248  126  246 1    
   249  126  247 1    
@<TRIPOS>SUBSTRUCTURE
     1 UNK         1 GROUP             0       ****    0 ROOT    
