@<TRIPOS>MOLECULE
3R540
247   249    1
SMALL
USER_CHARGES


@<TRIPOS>ATOM
      1 CA         -5.8677   -7.5944  -47.0934 C.3       0 UNK        -0.1800 
      2 C          -5.3399   -8.5148  -48.1846 C.2       0 UNK         0.5000 
      3 O          -4.9718   -8.0430  -49.2603 O.2       0 UNK        -0.5000 
      4 N          -5.2981   -9.8249  -47.9115 N.am      1 UNK        -0.5000 
      5 CA         -4.8158  -10.8644  -48.8311 C.3       1 UNK         0.1400 
      6 C6         -5.4281  -12.2518  -48.5037 C.3       23 UNK        -0.0398 
      7 S7         -5.1283  -12.8335  -46.7948 S.3       23 UNK        -0.2404 
      8 C8         -3.6925  -13.9320  -47.0124 C.3       23 UNK        -0.0205 
      9 C9         -4.0819  -15.3335  -47.4553 C.ar      23 UNK        -0.0193 
     10 C10        -4.1313  -15.6614  -48.8130 C.ar      23 UNK        -0.1150 
     11 C11        -4.4074  -16.9722  -49.2269 C.ar      23 UNK        -0.0193 
     12 C12        -4.6415  -17.9503  -48.2548 C.ar      23 UNK        -0.1150 
     13 C13        -4.5964  -17.6354  -46.8944 C.ar      23 UNK        -0.0193 
     14 C14        -4.3289  -16.3220  -46.5012 C.ar      23 UNK        -0.1150 
     15 C15        -4.7612  -18.7225  -45.8457 C.3       23 UNK        -0.0205 
     16 S16        -3.1251  -19.1705  -45.2059 S.3       23 UNK        -0.2404 
     17 C17        -3.4651  -20.5344  -44.0497 C.3       23 UNK        -0.0398 
     18 CA         -2.9971  -21.8802  -44.6467 C.3       11 UNK         0.1400 
     19 N          -1.5582  -21.9122  -44.9684 N.am      11 UNK        -0.5000 
     20 C          -1.0189  -22.7461  -45.8692 C.2       10 UNK         0.5000 
     21 O          -1.6716  -23.6205  -46.4391 O.2       10 UNK        -0.5000 
     22 CA          0.4747  -22.6172  -46.2025 C.3       10 UNK         0.1400 
     23 CB          0.6508  -21.7764  -47.4701 C.3       10 UNK        -0.1800 
     24 N           1.3090  -22.0587  -45.1403 N.am      10 UNK        -0.5000 
     25 C           1.6309  -22.7021  -44.0100 C.2       9 UNK         0.5000 
     26 O           1.1019  -23.7555  -43.6527 O.2       9 UNK        -0.5000 
     27 CA          2.7516  -22.0839  -43.1554 C.3       9 UNK         0.1400 
     28 CB          4.1181  -22.2873  -43.8295 C.3       9 UNK        -0.1800 
     29 N           2.5327  -20.6553  -42.9484 N.am      9 UNK        -0.5000 
     30 C           2.0622  -20.1138  -41.8168 C.2       8 UNK         0.5000 
     31 O           1.8707  -20.7509  -40.7800 O.2       8 UNK        -0.5000 
     32 CA          1.7202  -18.6077  -41.8430 C.3       8 UNK         0.1400 
     33 CB          2.8845  -17.7829  -41.2741 C.3       8 UNK        -0.1800 
     34 N           1.3660  -18.0832  -43.1650 N.am      8 UNK        -0.5000 
     35 C           0.3976  -18.5630  -43.9575 C.2       7 UNK         0.5000 
     36 O          -0.3145  -19.5227  -43.6623 O.2       7 UNK        -0.5000 
     37 CA          0.2542  -17.9102  -45.3436 C.3       7 UNK         0.1400 
     38 CB         -0.6409  -16.6617  -45.2803 C.3       7 UNK        -0.1800 
     39 N           1.5365  -17.5630  -45.9590 N.am      7 UNK        -0.5000 
     40 C           2.5197  -18.4276  -46.2479 C.2       6 UNK         0.5000 
     41 O           2.4754  -19.6319  -45.9971 O.2       6 UNK        -0.5000 
     42 CA          3.7950  -17.8216  -46.8542 C.3       6 UNK         0.1400 
     43 CB          3.5542  -17.3483  -48.2965 C.3       6 UNK        -0.1800 
     44 N           4.2845  -16.7148  -46.0314 N.am      6 UNK        -0.5000 
     45 C           4.8361  -16.8848  -44.8194 C.2       5 UNK         0.5000 
     46 O           5.0837  -17.9891  -44.3342 O.2       5 UNK        -0.5000 
     47 CA          5.1485  -15.6234  -43.9913 C.3       5 UNK         0.1400 
     48 CB          6.6196  -15.2173  -44.1656 C.3       5 UNK        -0.1800 
     49 N           4.2985  -14.4733  -44.3009 N.am      5 UNK        -0.5000 
     50 C           2.9683  -14.4183  -44.1488 C.2       4 UNK         0.5000 
     51 O           2.2896  -15.3599  -43.7371 O.2       4 UNK        -0.5000 
     52 CA          2.2734  -13.0972  -44.5410 C.3       4 UNK         0.1400 
     53 CB          3.2284  -11.8843  -44.5876 C.3       4 UNK        -0.1800 
     54 N           1.5365  -13.1872  -45.8047 N.am      4 UNK        -0.5000 
     55 C           1.9707  -13.6321  -46.9913 C.2       3 UNK         0.5000 
     56 O           3.0759  -14.1467  -47.1683 O.2       3 UNK        -0.5000 
     57 CA          1.0275  -13.4542  -48.1996 C.3       3 UNK         0.1400 
     58 CB         -0.0025  -14.5940  -48.2798 C.3       3 UNK        -0.1800 
     59 N           0.3743  -12.1385  -48.2987 N.am      3 UNK        -0.5000 
     60 C          -0.5534  -11.5906  -47.4994 C.2       2 UNK         0.5000 
     61 O          -0.9746  -12.1259  -46.4724 O.2       2 UNK        -0.5000 
     62 CA         -1.1026  -10.2006  -47.8836 C.3       2 UNK         0.1400 
     63 CB         -0.4260   -9.5545  -49.1146 C.3       2 UNK        -0.1800 
     64 N          -2.5605  -10.2325  -48.0362 N.am      2 UNK        -0.5000 
     65 C          -3.2728  -10.9252  -48.9402 C.2       1 UNK         0.5000 
     66 O          -2.7671  -11.6048  -49.8344 O.2       1 UNK        -0.5000 
     67 C          -3.4831  -23.0902  -43.8178 C.2       11 UNK         0.5000 
     68 O          -4.6857  -23.2151  -43.5856 O.2       11 UNK        -0.5000 
     69 N          -2.5694  -23.9991  -43.4471 N.am      12 UNK        -0.5000 
     70 CA         -2.8948  -25.3557  -43.0033 C.3       12 UNK         0.1400 
     71 CB         -1.6274  -26.0135  -42.4374 C.3       12 UNK        -0.1800 
     72 C          -3.4917  -26.2154  -44.1407 C.2       12 UNK         0.5000 
     73 O          -4.3070  -27.0970  -43.8678 O.2       12 UNK        -0.5000 
     74 N          -3.0873  -25.9307  -45.3869 N.am      13 UNK        -0.5000 
     75 CA         -3.6038  -26.5376  -46.6126 C.3       13 UNK         0.1400 
     76 CB         -2.4154  -26.9241  -47.5059 C.3       13 UNK        -0.1800 
     77 C          -4.5592  -25.5779  -47.3465 C.2       13 UNK         0.5000 
     78 O          -5.5709  -26.0317  -47.8821 O.2       13 UNK        -0.5000 
     79 N          -4.2340  -24.2745  -47.3430 N.am      14 UNK        -0.5000 
     80 CA         -5.0095  -23.1450  -47.8697 C.3       14 UNK         0.1400 
     81 CB         -6.2294  -22.8609  -46.9670 C.3       14 UNK        -0.1800 
     82 C          -5.3731  -23.3261  -49.3545 C.2       14 UNK         0.5000 
     83 O          -4.5131  -23.1273  -50.2122 O.2       14 UNK        -0.5000 
     84 N          -6.6137  -23.7436  -49.6373 N.am      15 UNK        -0.5000 
     85 CA         -7.1143  -24.0547  -50.9777 C.3       15 UNK         0.1400 
     86 CB         -8.6181  -24.3551  -50.8921 C.3       15 UNK        -0.1800 
     87 C          -6.3691  -25.2164  -51.6661 C.2       15 UNK         0.5000 
     88 O          -6.3185  -25.2491  -52.8953 O.2       15 UNK        -0.5000 
     89 N          -5.7878  -26.1311  -50.8758 N.am      16 UNK        -0.5000 
     90 CA         -4.9342  -27.2120  -51.3711 C.3       16 UNK         0.1400 
     91 CB         -4.9758  -28.3882  -50.3833 C.3       16 UNK        -0.1800 
     92 C          -3.4856  -26.7542  -51.6420 C.2       16 UNK         0.5000 
     93 O          -2.7893  -27.4137  -52.4145 O.2       16 UNK        -0.5000 
     94 N          -3.0556  -25.6418  -51.0262 N.am      17 UNK        -0.5000 
     95 CA         -1.7725  -24.9917  -51.3039 C.3       17 UNK         0.1400 
     96 CB         -1.2732  -24.2379  -50.0592 C.3       17 UNK        -0.1800 
     97 C          -1.8764  -24.0599  -52.5229 C.2       17 UNK         0.5000 
     98 O          -0.9861  -24.0821  -53.3735 O.2       17 UNK        -0.5000 
     99 N          -2.9706  -23.2850  -52.5931 N.am      18 UNK        -0.5000 
    100 CA        -3.3913  -22.4140  -53.6955 C.3       18 UNK         0.1400 
    101 CB        -3.9009  -23.2646  -54.8789 C.3       18 UNK        -0.1800 
    102 C         -2.3020  -21.4018  -54.0997 C.2       18 UNK         0.5000 
    103 O         -2.1503  -20.3743  -53.4348 O.2       18 UNK        -0.5000 
    104 N         -1.5378  -21.7208  -55.1531 N.am      19 UNK        -0.5000 
    105 CA        -0.3861  -20.9610  -55.6444 C.3       19 UNK         0.1400 
    106 CB         0.1455  -21.6315  -56.9200 C.3       19 UNK        -0.1800 
    107 C          0.7433  -20.8097  -54.6063 C.2       19 UNK         0.5000 
    108 O          1.4433  -19.7972  -54.6196 O.2       19 UNK        -0.5000 
    109 N          0.8870  -21.8015  -53.7155 N.am      20 UNK        -0.5000 
    110 CA         1.8398  -21.7728  -52.6058 C.3       20 UNK         0.1400 
    111 CB         2.1499  -23.2123  -52.1664 C.3       20 UNK        -0.1800 
    112 C          1.3479  -20.9279  -51.4139 C.2       20 UNK         0.5000 
    113 O          2.1756  -20.5015  -50.6085 O.2       20 UNK        -0.5000 
    114 N          0.0292  -20.7016  -51.3143 N.am      21 UNK        -0.5000 
    115 CA        -0.5797  -19.8599  -50.2869 C.3       21 UNK         0.1400 
    116 CB        -1.9817  -20.3819  -49.9283 C.3       21 UNK        -0.1800 
    117 C         -0.6085  -18.3906  -50.7256 C.2       21 UNK         0.5000 
    118 O         -0.0669  -17.5425  -50.0176 O.2       21 UNK        -0.5000 
    119 N         -1.2108  -18.1177  -51.8893 N.am      22 UNK        -0.5000 
    120 CA        -1.3031  -16.7681  -52.4693 C.3       22 UNK         0.1400 
    121 C         -1.5424  -16.7286  -54.0051 C.2       22 UNK         0.5000 
    122 N         -1.8814  -17.8279  -54.6665 N.am      22 UNK        -0.7600 
    123 O         -1.3995  -15.6740  -54.6179 O.2       22 UNK        -0.5000 
    124 C124       -2.2671  -15.8343  -51.6815 C.3       23 UNK        -0.0398 
    125 S125       -4.0550  -16.1309  -51.9473 S.3       23 UNK        -0.2404 
    126 C126       -4.4530  -17.4013  -50.6960 C.3       23 UNK        -0.0205 
    127 H127       -6.1543   -8.1483  -46.1990 H         1 UNK         0.0600 
    128 H128       -6.7423   -7.0512  -47.4514 H         1 UNK         0.0600 
    129 H129       -5.1048   -6.8679  -46.8135 H         1 UNK         0.0600 
    130 H130       -5.6121  -10.1593  -47.0106 H         1 UNK         0.3000 
    131 H131       -5.1673  -10.6010  -49.8311 H         1 UNK         0.0600 
    132 H132       -6.5091  -12.1995  -48.6385 H         1 UNK         0.0800 
    133 H133       -5.0928  -12.9986  -49.2224 H         1 UNK         0.0800 
    134 H134       -2.9927  -13.5010  -47.7274 H         1 UNK         0.0800 
    135 H135       -3.1504  -13.9856  -46.0669 H         1 UNK         0.0800 
    136 H136       -3.9280  -14.8898  -49.5388 H         1 UNK         0.1150 
    137 H137       -4.8374  -18.9690  -48.5592 H         1 UNK         0.1150 
    138 H138       -4.2700  -16.0804  -45.4492 H         1 UNK         0.1150 
    139 H139       -5.3943  -18.3665  -45.0317 H         1 UNK         0.0800 
    140 H140       -5.2468  -19.6033  -46.2689 H         1 UNK         0.0800 
    141 H141       -4.5329  -20.5479  -43.8238 H         1 UNK         0.0800 
    142 H142       -2.9505  -20.3330  -43.1091 H         1 UNK         0.0800 
    143 H143       -3.5250  -21.9763  -45.5960 H         1 UNK         0.0600 
    144 H144       -0.9822  -21.1981  -44.5306 H         1 UNK         0.3000 
    145 H145        0.8414  -23.6232  -46.4171 H         1 UNK         0.0600 
    146 H146        1.6943  -21.7385  -47.7837 H         1 UNK         0.0600 
    147 H147        0.3107  -20.7537  -47.3074 H         1 UNK         0.0600 
    148 H148        0.0791  -22.1916  -48.2998 H         1 UNK         0.0600 
    149 H149        1.7790  -21.1849  -45.3671 H         1 UNK         0.3000 
    150 H150        2.7703  -22.6128  -42.2002 H         1 UNK         0.0600 
    151 H151        4.3090  -23.3449  -44.0161 H         1 UNK         0.0600 
    152 H152        4.9253  -21.9176  -43.1970 H         1 UNK         0.0600 
    153 H153        4.1806  -21.7666  -44.7862 H         1 UNK         0.0600 
    154 H154        2.6387  -20.0580  -43.7584 H         1 UNK         0.3000 
    155 H155        0.8515  -18.4627  -41.1980 H         1 UNK         0.0600 
    156 H156        3.1363  -18.1068  -40.2635 H         1 UNK         0.0600 
    157 H157        2.6323  -16.7235  -41.2224 H         1 UNK         0.0600 
    158 H158        3.7820  -17.8857  -41.8842 H         1 UNK         0.0600 
    159 H159        1.8641  -17.2527  -43.4728 H         1 UNK         0.3000 
    160 H160       -0.2326  -18.6430  -45.9901 H         1 UNK         0.0600 
    161 H161       -0.0989  -15.7818  -44.9340 H         1 UNK         0.0600 
    162 H162       -1.4847  -16.8057  -44.6049 H         1 UNK         0.0600 
    163 H163       -1.0600  -16.4434  -46.2611 H         1 UNK         0.0600 
    164 H164        1.6985  -16.5832  -46.1336 H         1 UNK         0.3000 
    165 H165        4.5597  -18.6010  -46.8805 H         1 UNK         0.0600 
    166 H166        4.4682  -16.9519  -48.7388 H         1 UNK         0.0600 
    167 H167        3.2195  -18.1752  -48.9249 H         1 UNK         0.0600 
    168 H168        2.7919  -16.5713  -48.3521 H         1 UNK         0.0600 
    169 H169        4.0889  -15.7740  -46.3581 H         1 UNK         0.3000 
    170 H170        4.9869  -15.8766  -42.9416 H         1 UNK         0.0600 
    171 H171        6.8355  -14.9219  -45.1932 H         1 UNK         0.0600 
    172 H172        6.8795  -14.3833  -43.5135 H         1 UNK         0.0600 
    173 H173        7.2859  -16.0438  -43.9145 H         1 UNK         0.0600 
    174 H174        4.7641  -13.6624  -44.6811 H         1 UNK         0.3000 
    175 H175        1.5325  -12.9036  -43.7641 H         1 UNK         0.0600 
    176 H176        3.9521  -11.9591  -45.4000 H         1 UNK         0.0600 
    177 H177        2.6702  -10.9593  -44.7332 H         1 UNK         0.0600 
    178 H178        3.7810  -11.7791  -43.6529 H         1 UNK         0.0600 
    179 H179        0.5881  -12.8181  -45.7891 H         1 UNK         0.3000 
    180 H180        1.6578  -13.5326  -49.0868 H         1 UNK         0.0600 
    181 H181       -0.5583  -14.5536  -49.2160 H         1 UNK         0.0600 
    182 H182       -0.7233  -14.5481  -47.4656 H         1 UNK         0.0600 
    183 H183        0.4836  -15.5687  -48.2321 H         1 UNK         0.0600 
    184 H184        0.6595  -11.5908  -49.0983 H         1 UNK         0.3000 
    185 H185       -0.9015   -9.5542  -47.0282 H         1 UNK         0.0600 
    186 H186       -0.8401   -8.5648  -49.3078 H         1 UNK         0.0600 
    187 H187        0.6446   -9.4241  -48.9516 H         1 UNK         0.0600 
    188 H188       -0.5559  -10.1458  -50.0214 H         1 UNK         0.0600 
    189 H189       -3.0811   -9.7379  -47.3263 H         1 UNK         0.3000 
    190 H190       -1.5971  -23.8091  -43.6487 H         1 UNK         0.3000 
    191 H191       -3.6367  -25.2913  -42.2046 H         1 UNK         0.0600 
    192 H192       -1.2302  -25.4451  -41.5962 H         1 UNK         0.0600 
    193 H193       -0.8419  -26.0881  -43.1908 H         1 UNK         0.0600 
    194 H194       -1.8371  -27.0220  -42.0789 H         1 UNK         0.0600 
    195 H195       -2.4300  -25.1701  -45.5206 H         1 UNK         0.3000 
    196 H196       -4.1642  -27.4463  -46.3831 H         1 UNK         0.0600 
    197 H197       -1.8385  -27.7321  -47.0561 H         1 UNK         0.0600 
    198 H198       -1.7400  -26.0835  -47.6550 H         1 UNK         0.0600 
    199 H199       -2.7381  -27.2641  -48.4888 H         1 UNK         0.0600 
    200 H200       -3.3203  -24.0269  -46.9688 H         1 UNK         0.3000 
    201 H201       -4.3568  -22.2717  -47.8282 H         1 UNK         0.0600 
    202 H202       -5.9147  -22.5848  -45.9615 H         1 UNK         0.0600 
    203 H203       -6.8875  -23.7255  -46.8748 H         1 UNK         0.0600 
    204 H204       -6.8209  -22.0299  -47.3536 H         1 UNK         0.0600 
    205 H205       -7.2412  -23.9279  -48.8681 H         1 UNK         0.3000 
    206 H206       -6.9760  -23.1666  -51.5979 H         1 UNK         0.0600 
    207 H207       -8.8192  -25.2214  -50.2605 H         1 UNK         0.0600 
    208 H208       -9.1680  -23.5064  -50.4850 H         1 UNK         0.0600 
    209 H209       -9.0317  -24.5652  -51.8795 H         1 UNK         0.0600 
    210 H210       -5.8808  -26.0455  -49.8677 H         1 UNK         0.3000 
    211 H211       -5.3358  -27.5723  -52.3207 H         1 UNK         0.0600 
    212 H212       -4.6591  -28.0955  -49.3841 H         1 UNK         0.0600 
    213 H213       -4.3253  -29.2002  -50.7110 H         1 UNK         0.0600 
    214 H214       -5.9844  -28.7939  -50.3034 H         1 UNK         0.0600 
    215 H215       -3.7107  -25.1162  -50.4637 H         1 UNK         0.3000 
    216 H216       -1.0244  -25.7499  -51.5453 H         1 UNK         0.0600 
    217 H217       -0.5154  -23.4976  -50.3145 H         1 UNK         0.0600 
    218 H218       -0.8132  -24.9244  -49.3509 H         1 UNK         0.0600 
    219 H219       -2.0752  -23.7165  -49.5395 H         1 UNK         0.0600 
    220 H220       -3.5915  -23.2827  -51.7863 H         1 UNK         0.3000 
    221 H221       -4.2321  -21.8269  -53.3233 H         1 UNK         0.0600 
    222 H222       -3.1490  -23.9661  -55.2415 H         1 UNK         0.0600 
    223 H223       -4.7742  -23.8470  -54.5879 H         1 UNK         0.0600 
    224 H224       -4.2027  -22.6346  -55.7167 H         1 UNK         0.0600 
    225 H225       -1.7117  -22.6065  -55.6057 H         1 UNK         0.3000 
    226 H226       -0.7304  -19.9608  -55.9087 H         1 UNK         0.0600 
    227 H227       -0.6206  -21.6699  -57.6946 H         1 UNK         0.0600 
    228 H228        0.9918  -21.0779  -57.3290 H         1 UNK         0.0600 
    229 H229        0.4817  -22.6512  -56.7278 H         1 UNK         0.0600 
    230 H230        0.2661  -22.6047  -53.7661 H         1 UNK         0.3000 
    231 H231        2.7729  -21.3260  -52.9558 H         1 UNK         0.0600 
    232 H232        2.8714  -23.2250  -51.3485 H         1 UNK         0.0600 
    233 H233        2.5788  -23.7887  -52.9861 H         1 UNK         0.0600 
    234 H234        1.2580  -23.7350  -51.8241 H         1 UNK         0.0600 
    235 H235       -0.5777  -21.0192  -52.0576 H         1 UNK         0.3000 
    236 H236        0.0252  -19.9000  -49.3819 H         1 UNK         0.0600 
    237 H237       -2.6386  -20.4360  -50.7961 H         1 UNK         0.0600 
    238 H238       -1.9308  -21.3772  -49.4907 H         1 UNK         0.0600 
    239 H239       -2.4575  -19.7354  -49.1905 H         1 UNK         0.0600 
    240 H240       -1.6123  -18.8769  -52.4294 H         1 UNK         0.3000 
    241 H241       -0.3047  -16.3393  -52.3614 H         1 UNK         0.0600 
    242 H242       -2.0278  -18.7161  -54.1994 H         1 UNK         0.3800 
    243 H243       -2.0343  -17.7592  -55.6595 H         1 UNK         0.3800 
    244 H244       -2.0712  -14.7989  -51.9642 H         1 UNK         0.0800 
    245 H245       -2.0467  -15.8791  -50.6162 H         1 UNK         0.0800 
    246 H246       -5.4587  -17.7661  -50.9082 H         1 UNK         0.0800 
    247 H247       -3.7880  -18.2510  -50.8431 H         1 UNK         0.0800 
@<TRIPOS>BOND
     1    1    2 1    
     2    1  127 1    
     3    1  128 1    
     4    1  129 1    
     5    2    3 2    
     6    2    4 am   BACKBONE|DICT|INTERRES
     7    4    5 1    
     8    4  130 1    
     9    5    6 1    
    10    5   65 1    
    11    5  131 1    
    12    6    7 1    
    13    6  132 1    
    14    6  133 1    
    15    7    8 1    
    16    8    9 1    
    17    8  134 1    
    18    8  135 1    
    19    9   10 ar   
    20    9   14 ar   
    21   10   11 ar   
    22   10  136 1    
    23   11   12 ar   
    24   11  126 1    
    25   12   13 ar   
    26   12  137 1    
    27   13   14 ar   
    28   13   15 1    
    29   14  138 1    
    30   15   16 1    
    31   15  139 1    
    32   15  140 1    
    33   16   17 1    
    34   17   18 1    
    35   17  141 1    
    36   17  142 1    
    37   18   19 1    
    38   18   67 1    
    39   18  143 1    
    40   19   20 am   BACKBONE|DICT|INTERRES
    41   19  144 1    
    42   20   21 2    
    43   20   22 1    
    44   22   23 1    
    45   22   24 1    
    46   22  145 1    
    47   23  146 1    
    48   23  147 1    
    49   23  148 1    
    50   24   25 am   BACKBONE|DICT|INTERRES
    51   24  149 1    
    52   25   26 2    
    53   25   27 1    
    54   27   28 1    
    55   27   29 1    
    56   27  150 1    
    57   28  151 1    
    58   28  152 1    
    59   28  153 1    
    60   29   30 am   BACKBONE|DICT|INTERRES
    61   29  154 1    
    62   30   31 2    
    63   30   32 1    
    64   32   33 1    
    65   32   34 1    
    66   32  155 1    
    67   33  156 1    
    68   33  157 1    
    69   33  158 1    
    70   34   35 am   BACKBONE|DICT|INTERRES
    71   34  159 1    
    72   35   36 2    
    73   35   37 1    
    74   37   38 1    
    75   37   39 1    
    76   37  160 1    
    77   38  161 1    
    78   38  162 1    
    79   38  163 1    
    80   39   40 am   BACKBONE|DICT|INTERRES
    81   39  164 1    
    82   40   41 2    
    83   40   42 1    
    84   42   43 1    
    85   42   44 1    
    86   42  165 1    
    87   43  166 1    
    88   43  167 1    
    89   43  168 1    
    90   44   45 am   BACKBONE|DICT|INTERRES
    91   44  169 1    
    92   45   46 2    
    93   45   47 1    
    94   47   48 1    
    95   47   49 1    
    96   47  170 1    
    97   48  171 1    
    98   48  172 1    
    99   48  173 1    
   100   49   50 am   BACKBONE|DICT|INTERRES
   101   49  174 1    
   102   50   51 2    
   103   50   52 1    
   104   52   53 1    
   105   52   54 1    
   106   52  175 1    
   107   53  176 1    
   108   53  177 1    
   109   53  178 1    
   110   54   55 am   BACKBONE|DICT|INTERRES
   111   54  179 1    
   112   55   56 2    
   113   55   57 1    
   114   57   58 1    
   115   57   59 1    
   116   57  180 1    
   117   58  181 1    
   118   58  182 1    
   119   58  183 1    
   120   59   60 am   BACKBONE|DICT|INTERRES
   121   59  184 1    
   122   60   61 2    
   123   60   62 1    
   124   62   63 1    
   125   62   64 1    
   126   62  185 1    
   127   63  186 1    
   128   63  187 1    
   129   63  188 1    
   130   64   65 am   BACKBONE|DICT|INTERRES
   131   64  189 1    
   132   65   66 2    
   133   67   68 2    
   134   67   69 am   BACKBONE|DICT|INTERRES
   135   69   70 1    
   136   69  190 1    
   137   70   71 1    
   138   70   72 1    
   139   70  191 1    
   140   71  192 1    
   141   71  193 1    
   142   71  194 1    
   143   72   73 2    
   144   72   74 am   BACKBONE|DICT|INTERRES
   145   74   75 1    
   146   74  195 1    
   147   75   76 1    
   148   75   77 1    
   149   75  196 1    
   150   76  197 1    
   151   76  198 1    
   152   76  199 1    
   153   77   78 2    
   154   77   79 am   BACKBONE|DICT|INTERRES
   155   79   80 1    
   156   79  200 1    
   157   80   81 1    
   158   80   82 1    
   159   80  201 1    
   160   81  202 1    
   161   81  203 1    
   162   81  204 1    
   163   82   83 2    
   164   82   84 am   BACKBONE|DICT|INTERRES
   165   84   85 1    
   166   84  205 1    
   167   85   86 1    
   168   85   87 1    
   169   85  206 1    
   170   86  207 1    
   171   86  208 1    
   172   86  209 1    
   173   87   88 2    
   174   87   89 am   BACKBONE|DICT|INTERRES
   175   89   90 1    
   176   89  210 1    
   177   90   91 1    
   178   90   92 1    
   179   90  211 1    
   180   91  212 1    
   181   91  213 1    
   182   91  214 1    
   183   92   93 2    
   184   92   94 am   BACKBONE|DICT|INTERRES
   185   94   95 1    
   186   94  215 1    
   187   95   96 1    
   188   95   97 1    
   189   95  216 1    
   190   96  217 1    
   191   96  218 1    
   192   96  219 1    
   193   97   98 2    
   194   97   99 am   BACKBONE|DICT|INTERRES
   195   99  100 1    
   196   99  220 1    
   197  100  101 1    
   198  100  102 1    
   199  100  221 1    
   200  101  222 1    
   201  101  223 1    
   202  101  224 1    
   203  102  103 2    
   204  102  104 am   BACKBONE|DICT|INTERRES
   205  104  105 1    
   206  104  225 1    
   207  105  106 1    
   208  105  107 1    
   209  105  226 1    
   210  106  227 1    
   211  106  228 1    
   212  106  229 1    
   213  107  108 2    
   214  107  109 am   BACKBONE|DICT|INTERRES
   215  109  110 1    
   216  109  230 1    
   217  110  111 1    
   218  110  112 1    
   219  110  231 1    
   220  111  232 1    
   221  111  233 1    
   222  111  234 1    
   223  112  113 2    
   224  112  114 am   BACKBONE|DICT|INTERRES
   225  114  115 1    
   226  114  235 1    
   227  115  116 1    
   228  115  117 1    
   229  115  236 1    
   230  116  237 1    
   231  116  238 1    
   232  116  239 1    
   233  117  118 2    
   234  117  119 am   BACKBONE|DICT|INTERRES
   235  119  120 1    
   236  119  240 1    
   237  120  121 1    
   238  120  124 1    
   239  120  241 1    
   240  121  122 am   BACKBONE|DICT|INTERRES
   241  121  123 2    
   242  122  242 1    
   243  122  243 1    
   244  124  125 1    
   245  124  244 1    
   246  124  245 1    
   247  125  126 1    
   248  126  246 1    
   249  126  247 1    
@<TRIPOS>SUBSTRUCTURE
     1 UNK         1 GROUP             0       ****    0 ROOT    
