@<TRIPOS>MOLECULE
3R540
247   249    1
SMALL
USER_CHARGES


@<TRIPOS>ATOM
      1 CA          4.8206  -12.5633  -50.7376 C.3       0 UNK        -0.1800 
      2 C           4.5872  -13.6486  -49.6968 C.2       0 UNK         0.5000 
      3 O           5.5349  -14.0928  -49.0480 O.2       0 UNK        -0.5000 
      4 N           3.3264  -14.0676  -49.5195 N.am      1 UNK        -0.5000 
      5 CA          2.9139  -15.1137  -48.5728 C.3       1 UNK         0.1400 
      6 C6          1.5012  -15.6608  -48.8918 C.3       23 UNK        -0.0398 
      7 S7          0.1422  -14.4571  -48.6606 S.3       23 UNK        -0.2404 
      8 C8         -0.5825  -14.3396  -50.3288 C.3       23 UNK        -0.0205 
      9 C9         -1.1849  -15.6536  -50.8123 C.ar      23 UNK        -0.0193 
     10 C10        -0.6954  -16.2599  -51.9729 C.ar      23 UNK        -0.1150 
     11 C11        -1.2521  -17.4535  -52.4372 C.ar      23 UNK        -0.0193 
     12 C12        -2.3067  -18.0390  -51.7347 C.ar      23 UNK        -0.1150 
     13 C13        -2.8009  -17.4576  -50.5604 C.ar      23 UNK        -0.0193 
     14 C14        -2.2396  -16.2551  -50.1152 C.ar      23 UNK        -0.1150 
     15 C15        -3.9262  -18.1082  -49.7545 C.3       23 UNK        -0.0205 
     16 S16        -3.8901  -19.9339  -49.7979 S.3       23 UNK        -0.2404 
     17 C17        -4.6280  -20.3797  -48.1950 C.3       23 UNK        -0.0398 
     18 CA         -3.5760  -20.4394  -47.0542 C.3       11 UNK         0.1400 
     19 N          -4.1452  -20.0799  -45.7532 N.am      11 UNK        -0.5000 
     20 C          -5.0956  -20.7259  -45.0621 C.2       10 UNK         0.5000 
     21 O          -5.6945  -21.7121  -45.4903 O.2       10 UNK        -0.5000 
     22 CA         -5.3945  -20.2107  -43.6378 C.3       10 UNK         0.1400 
     23 CB         -5.1051  -21.3086  -42.6003 C.3       10 UNK        -0.1800 
     24 N          -4.5835  -19.0370  -43.3014 N.am      10 UNK        -0.5000 
     25 C          -4.9951  -17.7635  -43.3755 C.2       9 UNK         0.5000 
     26 O          -6.1521  -17.4324  -43.6350 O.2       9 UNK        -0.5000 
     27 CA         -3.9242  -16.6716  -43.1592 C.3       9 UNK         0.1400 
     28 CB         -3.8680  -16.2641  -41.6792 C.3       9 UNK        -0.1800 
     29 N          -2.5828  -17.0700  -43.5977 N.am      9 UNK        -0.5000 
     30 C          -2.2498  -17.4156  -44.8494 C.2       8 UNK         0.5000 
     31 O          -3.0252  -17.3458  -45.8012 O.2       8 UNK        -0.5000 
     32 CA         -0.8540  -18.0256  -45.0736 C.3       8 UNK         0.1400 
     33 CB          0.1221  -16.9669  -45.5916 C.3       8 UNK        -0.1800 
     34 N          -0.2924  -18.6716  -43.8868 N.am      8 UNK        -0.5000 
     35 C          -0.8053  -19.7449  -43.2699 C.2       7 UNK         0.5000 
     36 O          -1.8187  -20.3284  -43.6560 O.2       7 UNK        -0.5000 
     37 CA         -0.0850  -20.2269  -42.0015 C.3       7 UNK         0.1400 
     38 CB          1.1136  -21.1164  -42.3571 C.3       7 UNK        -0.1800 
     39 N           0.3843  -19.0958  -41.2050 N.am      7 UNK        -0.5000 
     40 C          -0.3188  -18.5113  -40.2273 C.2       6 UNK         0.5000 
     41 O          -1.4251  -18.9003  -39.8521 O.2       6 UNK        -0.5000 
     42 CA          0.3142  -17.2735  -39.5612 C.3       6 UNK         0.1400 
     43 CB          1.1504  -17.6885  -38.3413 C.3       6 UNK        -0.1800 
     44 N           1.1494  -16.4791  -40.4660 N.am      6 UNK        -0.5000 
     45 C           0.6887  -15.8119  -41.5326 C.2       5 UNK         0.5000 
     46 O          -0.4905  -15.8155  -41.8842 O.2       5 UNK        -0.5000 
     47 CA          1.7228  -15.0292  -42.3639 C.3       5 UNK         0.1400 
     48 CB          1.9917  -13.6679  -41.7032 C.3       5 UNK        -0.1800 
     49 N           2.9994  -15.7143  -42.6159 N.am      5 UNK        -0.5000 
     50 C           3.1701  -16.9825  -43.0266 C.2       4 UNK         0.5000 
     51 O           2.2551  -17.8020  -43.1154 O.2       4 UNK        -0.5000 
     52 CA          4.6006  -17.3921  -43.4210 C.3       4 UNK         0.1400 
     53 CB          4.6488  -18.7265  -44.1890 C.3       4 UNK        -0.1800 
     54 N           5.1944  -16.3428  -44.2445 N.am      4 UNK        -0.5000 
     55 C           6.4181  -15.8198  -44.0872 C.2       3 UNK         0.5000 
     56 O           7.2283  -16.2206  -43.2508 O.2       3 UNK        -0.5000 
     57 CA          6.8035  -14.6330  -45.0001 C.3       3 UNK         0.1400 
     58 CB          7.6709  -15.1173  -46.1717 C.3       3 UNK        -0.1800 
     59 N           5.6508  -13.9070  -45.5387 N.am      3 UNK        -0.5000 
     60 C           4.7357  -13.2586  -44.8036 C.2       2 UNK         0.5000 
     61 O           4.8509  -13.0780  -43.5916 O.2       2 UNK        -0.5000 
     62 CA          3.4531  -12.7806  -45.5184 C.3       2 UNK         0.1400 
     63 CB          3.4648  -11.2535  -45.6815 C.3       2 UNK        -0.1800 
     64 N           3.2162  -13.3931  -46.8292 N.am      2 UNK        -0.5000 
     65 C           3.0688  -14.7022  -47.0882 C.2       1 UNK         0.5000 
     66 O           3.1044  -15.5718  -46.2170 O.2       1 UNK        -0.5000 
     67 C          -2.7577  -21.7560  -47.0129 C.2       11 UNK         0.5000 
     68 O          -2.4614  -22.3314  -48.0616 O.2       11 UNK        -0.5000 
     69 N          -2.3922  -22.2179  -45.8074 N.am      12 UNK        -0.5000 
     70 CA         -1.7851  -23.5237  -45.5484 C.3       12 UNK         0.1400 
     71 CB         -1.8067  -23.8087  -44.0395 C.3       12 UNK        -0.1800 
     72 C          -0.3678  -23.6524  -46.1243 C.2       12 UNK         0.5000 
     73 O          -0.0701  -24.6400  -46.7944 O.2       12 UNK        -0.5000 
     74 N           0.4652  -22.6329  -45.8861 N.am      13 UNK        -0.5000 
     75 CA          1.8176  -22.5464  -46.4421 C.3       13 UNK         0.1400 
     76 CB          2.6883  -21.6855  -45.5136 C.3       13 UNK        -0.1800 
     77 C           1.8288  -21.9610  -47.8653 C.2       13 UNK         0.5000 
     78 O           2.7832  -22.1915  -48.6082 O.2       13 UNK        -0.5000 
     79 N           0.7919  -21.1836  -48.2006 N.am      14 UNK        -0.5000 
     80 CA          0.7309  -20.3777  -49.4146 C.3       14 UNK         0.1400 
     81 CB         -0.1286  -19.1405  -49.1364 C.3       14 UNK        -0.1800 
     82 C           0.2251  -21.1620  -50.6383 C.2       14 UNK         0.5000 
     83 O           0.7823  -20.9872  -51.7228 O.2       14 UNK        -0.5000 
     84 N          -0.7910  -22.0191  -50.4590 N.am      15 UNK        -0.5000 
     85 CA         -1.3633  -22.8377  -51.5314 C.3       15 UNK         0.1400 
     86 CB         -2.3048  -22.0039  -52.4265 C.3       15 UNK        -0.1800 
     87 C          -2.0390  -24.1049  -50.9814 C.2       15 UNK         0.5000 
     88 O          -3.1001  -24.4911  -51.4709 O.2       15 UNK        -0.5000 
     89 N          -1.4204  -24.7395  -49.9739 N.am      16 UNK        -0.5000 
     90 CA         -1.8139  -26.0316  -49.3885 C.3       16 UNK         0.1400 
     91 CB         -1.5576  -27.1704  -50.3984 C.3       16 UNK        -0.1800 
     92 C          -3.2502  -26.0623  -48.8154 C.2       16 UNK         0.5000 
     93 O          -3.9018  -27.1077  -48.8422 O.2       16 UNK        -0.5000 
     94 N          -3.7141  -24.9083  -48.3160 N.am      17 UNK        -0.5000 
     95 CA         -5.0439  -24.6389  -47.7586 C.3       17 UNK         0.1400 
     96 CB         -5.3372  -25.5253  -46.5295 C.3       17 UNK        -0.1800 
     97 C          -6.1814  -24.6546  -48.8022 C.2       17 UNK         0.5000 
     98 O          -7.3508  -24.7355  -48.4208 O.2       17 UNK        -0.5000 
     99 N          -5.8409  -24.5396  -50.0941 N.am      18 UNK        -0.5000 
    100 CA        -6.7954  -24.2965  -51.1757 C.3       18 UNK         0.1400 
    101 CB        -6.1384  -24.6611  -52.5158 C.3       18 UNK        -0.1800 
    102 C         -7.2548  -22.8258  -51.1844 C.2       18 UNK         0.5000 
    103 O         -6.6319  -21.9729  -50.5474 O.2       18 UNK        -0.5000 
    104 N         -8.3192  -22.5372  -51.9418 N.am      19 UNK        -0.5000 
    105 CA        -8.8965  -21.2011  -52.1146 C.3       19 UNK         0.1400 
    106 CB       -10.3539  -21.3550  -52.5871 C.3       19 UNK        -0.1800 
    107 C         -8.0531  -20.3113  -53.0570 C.2       19 UNK         0.5000 
    108 O         -8.5471  -19.8770  -54.0990 O.2       19 UNK        -0.5000 
    109 N         -6.7909  -20.0739  -52.6701 N.am      20 UNK        -0.5000 
    110 CA        -5.7683  -19.2830  -53.3627 C.3       20 UNK         0.1400 
    111 CB        -6.1153  -17.7817  -53.3176 C.3       20 UNK        -0.1800 
    112 C         -5.4922  -19.8000  -54.7892 C.2       20 UNK         0.5000 
    113 O         -5.6424  -19.0636  -55.7672 O.2       20 UNK        -0.5000 
    114 N         -5.0961  -21.0789  -54.8763 N.am      21 UNK        -0.5000 
    115 CA        -4.8678  -21.8237  -56.1226 C.3       21 UNK         0.1400 
    116 CB        -4.5884  -23.2968  -55.7862 C.3       21 UNK        -0.1800 
    117 C         -3.7702  -21.2544  -57.0488 C.2       21 UNK         0.5000 
    118 O         -3.7142  -21.6387  -58.2179 O.2       21 UNK        -0.5000 
    119 N         -2.9412  -20.3377  -56.5335 N.am      22 UNK        -0.5000 
    120 CA        -2.0302  -19.4918  -57.3196 C.3       22 UNK         0.1400 
    121 C         -2.7382  -18.4772  -58.2710 C.2       22 UNK         0.5000 
    122 N         -4.0159  -18.1626  -58.0836 N.am      22 UNK        -0.7600 
    123 O         -2.1158  -17.9759  -59.2036 O.2       22 UNK        -0.5000 
    124 C124       -0.9869  -18.7837  -56.4163 C.3       23 UNK        -0.0398 
    125 S125       -1.7380  -17.7191  -55.1317 S.3       23 UNK        -0.2404 
    126 C126       -0.7124  -18.1240  -53.6888 C.3       23 UNK        -0.0205 
    127 H127        5.2615  -11.6833  -50.2693 H         1 UNK         0.0600 
    128 H128        3.8927  -12.2615  -51.2240 H         1 UNK         0.0600 
    129 H129        5.5062  -12.9220  -51.5053 H         1 UNK         0.0600 
    130 H130        2.5830  -13.6545  -50.0644 H         1 UNK         0.3000 
    131 H131        3.6050  -15.9477  -48.7143 H         1 UNK         0.0600 
    132 H132        1.2958  -16.5280  -48.2658 H         1 UNK         0.0800 
    133 H133        1.4846  -16.0389  -49.9144 H         1 UNK         0.0800 
    134 H134        0.1787  -13.9796  -51.0223 H         1 UNK         0.0800 
    135 H135       -1.3661  -13.5809  -50.3161 H         1 UNK         0.0800 
    136 H136        0.1178  -15.8028  -52.5189 H         1 UNK         0.1150 
    137 H137       -2.7246  -18.9633  -52.1011 H         1 UNK         0.1150 
    138 H138       -2.6135  -15.7889  -49.2143 H         1 UNK         0.1150 
    139 H139       -3.8616  -17.7806  -48.7154 H         1 UNK         0.0800 
    140 H140       -4.8874  -17.7608  -50.1342 H         1 UNK         0.0800 
    141 H141       -5.1540  -21.3298  -48.2974 H         1 UNK         0.0800 
    142 H142       -5.3983  -19.6409  -47.9698 H         1 UNK         0.0800 
    143 H143       -2.8399  -19.6588  -47.2446 H         1 UNK         0.0600 
    144 H144       -3.7622  -19.2384  -45.3427 H         1 UNK         0.3000 
    145 H145       -6.4575  -19.9658  -43.5925 H         1 UNK         0.0600 
    146 H146       -5.3316  -20.9652  -41.5909 H         1 UNK         0.0600 
    147 H147       -5.7137  -22.1948  -42.7846 H         1 UNK         0.0600 
    148 H148       -4.0595  -21.6185  -42.6215 H         1 UNK         0.0600 
    149 H149       -3.6086  -19.2228  -43.0983 H         1 UNK         0.3000 
    150 H150       -4.2203  -15.7995  -43.7455 H         1 UNK         0.0600 
    151 H151       -4.8532  -15.9703  -41.3147 H         1 UNK         0.0600 
    152 H152       -3.2017  -15.4144  -41.5297 H         1 UNK         0.0600 
    153 H153       -3.5136  -17.0821  -41.0504 H         1 UNK         0.0600 
    154 H154       -1.8564  -17.0669  -42.8902 H         1 UNK         0.3000 
    155 H155       -0.9553  -18.7918  -45.8442 H         1 UNK         0.0600 
    156 H156        0.2912  -16.1835  -44.8556 H         1 UNK         0.0600 
    157 H157       -0.2694  -16.4903  -46.4898 H         1 UNK         0.0600 
    158 H158        1.0869  -17.4079  -45.8429 H         1 UNK         0.0600 
    159 H159        0.5768  -18.2773  -43.5316 H         1 UNK         0.3000 
    160 H160       -0.7911  -20.8267  -41.4233 H         1 UNK         0.0600 
    161 H161        1.8776  -20.5606  -42.9009 H         1 UNK         0.0600 
    162 H162        0.8115  -21.9621  -42.9744 H         1 UNK         0.0600 
    163 H163        1.5779  -21.5227  -41.4586 H         1 UNK         0.0600 
    164 H164        1.2538  -18.6674  -41.5004 H         1 UNK         0.3000 
    165 H165       -0.5020  -16.6363  -39.2142 H         1 UNK         0.0600 
    166 H166        1.5324  -16.8170  -37.8094 H         1 UNK         0.0600 
    167 H167        0.5508  -18.2624  -37.6335 H         1 UNK         0.0600 
    168 H168        2.0013  -18.3076  -38.6285 H         1 UNK         0.0600 
    169 H169        2.1362  -16.4341  -40.2586 H         1 UNK         0.3000 
    170 H170        1.2727  -14.8355  -43.3376 H         1 UNK         0.0600 
    171 H171        1.0586  -13.1567  -41.4612 H         1 UNK         0.0600 
    172 H172        2.5569  -13.7747  -40.7767 H         1 UNK         0.0600 
    173 H173        2.5507  -13.0064  -42.3625 H         1 UNK         0.0600 
    174 H174        3.8204  -15.1252  -42.5814 H         1 UNK         0.3000 
    175 H175        5.1575  -17.5082  -42.4894 H         1 UNK         0.0600 
    176 H176        4.0697  -18.6766  -45.1121 H         1 UNK         0.0600 
    177 H177        5.6726  -18.9941  -44.4499 H         1 UNK         0.0600 
    178 H178        4.2438  -19.5418  -43.5884 H         1 UNK         0.0600 
    179 H179        4.5776  -15.9543  -44.9537 H         1 UNK         0.3000 
    180 H180        7.3905  -13.9342  -44.4008 H         1 UNK         0.0600 
    181 H181        7.1227  -15.8025  -46.8198 H         1 UNK         0.0600 
    182 H182        8.5578  -15.6414  -45.8128 H         1 UNK         0.0600 
    183 H183        8.0126  -14.2811  -46.7821 H         1 UNK         0.0600 
    184 H184        5.4864  -13.9996  -46.5323 H         1 UNK         0.3000 
    185 H185        2.6112  -13.0511  -44.8787 H         1 UNK         0.0600 
    186 H186        3.6028  -10.7575  -44.7197 H         1 UNK         0.0600 
    187 H187        4.2714  -10.9264  -46.3388 H         1 UNK         0.0600 
    188 H188        2.5238  -10.8933  -46.0978 H         1 UNK         0.0600 
    189 H189        3.1825  -12.7612  -47.6155 H         1 UNK         0.3000 
    190 H190       -2.5802  -21.6405  -44.9945 H         1 UNK         0.3000 
    191 H191       -2.4009  -24.2820  -46.0316 H         1 UNK         0.0600 
    192 H192       -2.8289  -23.8313  -43.6612 H         1 UNK         0.0600 
    193 H193       -1.2605  -23.0546  -43.4740 H         1 UNK         0.0600 
    194 H194       -1.3572  -24.7774  -43.8174 H         1 UNK         0.0600 
    195 H195        0.1419  -21.8603  -45.3242 H         1 UNK         0.3000 
    196 H196        2.2596  -23.5441  -46.4906 H         1 UNK         0.0600 
    197 H197        3.6928  -21.5605  -45.9203 H         1 UNK         0.0600 
    198 H198        2.7979  -22.1534  -44.5358 H         1 UNK         0.0600 
    199 H199        2.2674  -20.6890  -45.3714 H         1 UNK         0.0600 
    200 H200        0.0316  -21.0897  -47.5474 H         1 UNK         0.3000 
    201 H201        1.7382  -20.0232  -49.6456 H         1 UNK         0.0600 
    202 H202        0.2116  -18.6123  -48.2469 H         1 UNK         0.0600 
    203 H203       -1.1742  -19.4011  -48.9878 H         1 UNK         0.0600 
    204 H204       -0.0720  -18.4410  -49.9691 H         1 UNK         0.0600 
    205 H205       -1.2416  -22.0984  -49.5510 H         1 UNK         0.3000 
    206 H206       -0.5450  -23.1979  -52.1581 H         1 UNK         0.0600 
    207 H207       -1.8218  -21.0996  -52.7907 H         1 UNK         0.0600 
    208 H208       -2.6080  -22.5766  -53.3017 H         1 UNK         0.0600 
    209 H209       -3.2124  -21.7171  -51.8979 H         1 UNK         0.0600 
    210 H210       -0.5740  -24.3333  -49.6004 H         1 UNK         0.3000 
    211 H211       -1.1518  -26.2024  -48.5404 H         1 UNK         0.0600 
    212 H212       -2.2299  -27.1097  -51.2549 H         1 UNK         0.0600 
    213 H213       -1.7045  -28.1471  -49.9357 H         1 UNK         0.0600 
    214 H214       -0.5342  -27.1429  -50.7725 H         1 UNK         0.0600 
    215 H215       -3.1084  -24.0937  -48.3777 H         1 UNK         0.3000 
    216 H216       -5.0054  -23.6113  -47.3993 H         1 UNK         0.0600 
    217 H217       -6.2361  -25.1869  -46.0130 H         1 UNK         0.0600 
    218 H218       -4.5213  -25.4876  -45.8083 H         1 UNK         0.0600 
    219 H219       -5.4956  -26.5675  -46.8066 H         1 UNK         0.0600 
    220 H220       -4.8599  -24.4702  -50.3420 H         1 UNK         0.3000 
    221 H221       -7.6684  -24.9357  -51.0286 H         1 UNK         0.0600 
    222 H222       -5.3276  -23.9755  -52.7638 H         1 UNK         0.0600 
    223 H223       -5.7276  -25.6707  -52.4949 H         1 UNK         0.0600 
    224 H224       -6.8608  -24.6220  -53.3315 H         1 UNK         0.0600 
    225 H225       -8.7590  -23.2794  -52.4664 H         1 UNK         0.3000 
    226 H226       -8.9194  -20.7032  -51.1428 H         1 UNK         0.0600 
    227 H227      -10.9417  -21.9299  -51.8712 H         1 UNK         0.0600 
    228 H228      -10.8364  -20.3824  -52.6923 H         1 UNK         0.0600 
    229 H229      -10.4143  -21.8591  -53.5525 H         1 UNK         0.0600 
    230 H230       -6.4926  -20.5267  -51.8091 H         1 UNK         0.3000 
    231 H231       -4.8456  -19.4217  -52.8004 H         1 UNK         0.0600 
    232 H232       -5.3101  -17.1849  -53.7481 H         1 UNK         0.0600 
    233 H233       -6.2576  -17.4414  -52.2922 H         1 UNK         0.0600 
    234 H234       -7.0252  -17.5576  -53.8752 H         1 UNK         0.0600 
    235 H235       -5.0070  -21.6081  -54.0220 H         1 UNK         0.3000 
    236 H236       -5.7994  -21.7835  -56.6908 H         1 UNK         0.0600 
    237 H237       -4.4441  -23.8853  -56.6932 H         1 UNK         0.0600 
    238 H238       -3.6914  -23.4118  -55.1785 H         1 UNK         0.0600 
    239 H239       -5.4238  -23.7428  -55.2480 H         1 UNK         0.0600 
    240 H240       -3.0687  -20.0658  -55.5709 H         1 UNK         0.3000 
    241 H241       -1.4727  -20.1627  -57.9759 H         1 UNK         0.0600 
    242 H242       -4.5379  -18.5384  -57.2970 H         1 UNK         0.3800 
    243 H243       -4.4613  -17.5096  -58.7080 H         1 UNK         0.3800 
    244 H244       -0.3625  -19.5392  -55.9378 H         1 UNK         0.0800 
    245 H245       -0.3041  -18.1783  -57.0151 H         1 UNK         0.0800 
    246 H246       -0.6837  -19.2041  -53.5429 H         1 UNK         0.0800 
    247 H247        0.3161  -17.8119  -53.8761 H         1 UNK         0.0800 
@<TRIPOS>BOND
     1    1    2 1    
     2    1  127 1    
     3    1  128 1    
     4    1  129 1    
     5    2    3 2    
     6    2    4 am   BACKBONE|DICT|INTERRES
     7    4    5 1    
     8    4  130 1    
     9    5    6 1    
    10    5   65 1    
    11    5  131 1    
    12    6    7 1    
    13    6  132 1    
    14    6  133 1    
    15    7    8 1    
    16    8    9 1    
    17    8  134 1    
    18    8  135 1    
    19    9   10 ar   
    20    9   14 ar   
    21   10   11 ar   
    22   10  136 1    
    23   11   12 ar   
    24   11  126 1    
    25   12   13 ar   
    26   12  137 1    
    27   13   14 ar   
    28   13   15 1    
    29   14  138 1    
    30   15   16 1    
    31   15  139 1    
    32   15  140 1    
    33   16   17 1    
    34   17   18 1    
    35   17  141 1    
    36   17  142 1    
    37   18   19 1    
    38   18   67 1    
    39   18  143 1    
    40   19   20 am   BACKBONE|DICT|INTERRES
    41   19  144 1    
    42   20   21 2    
    43   20   22 1    
    44   22   23 1    
    45   22   24 1    
    46   22  145 1    
    47   23  146 1    
    48   23  147 1    
    49   23  148 1    
    50   24   25 am   BACKBONE|DICT|INTERRES
    51   24  149 1    
    52   25   26 2    
    53   25   27 1    
    54   27   28 1    
    55   27   29 1    
    56   27  150 1    
    57   28  151 1    
    58   28  152 1    
    59   28  153 1    
    60   29   30 am   BACKBONE|DICT|INTERRES
    61   29  154 1    
    62   30   31 2    
    63   30   32 1    
    64   32   33 1    
    65   32   34 1    
    66   32  155 1    
    67   33  156 1    
    68   33  157 1    
    69   33  158 1    
    70   34   35 am   BACKBONE|DICT|INTERRES
    71   34  159 1    
    72   35   36 2    
    73   35   37 1    
    74   37   38 1    
    75   37   39 1    
    76   37  160 1    
    77   38  161 1    
    78   38  162 1    
    79   38  163 1    
    80   39   40 am   BACKBONE|DICT|INTERRES
    81   39  164 1    
    82   40   41 2    
    83   40   42 1    
    84   42   43 1    
    85   42   44 1    
    86   42  165 1    
    87   43  166 1    
    88   43  167 1    
    89   43  168 1    
    90   44   45 am   BACKBONE|DICT|INTERRES
    91   44  169 1    
    92   45   46 2    
    93   45   47 1    
    94   47   48 1    
    95   47   49 1    
    96   47  170 1    
    97   48  171 1    
    98   48  172 1    
    99   48  173 1    
   100   49   50 am   BACKBONE|DICT|INTERRES
   101   49  174 1    
   102   50   51 2    
   103   50   52 1    
   104   52   53 1    
   105   52   54 1    
   106   52  175 1    
   107   53  176 1    
   108   53  177 1    
   109   53  178 1    
   110   54   55 am   BACKBONE|DICT|INTERRES
   111   54  179 1    
   112   55   56 2    
   113   55   57 1    
   114   57   58 1    
   115   57   59 1    
   116   57  180 1    
   117   58  181 1    
   118   58  182 1    
   119   58  183 1    
   120   59   60 am   BACKBONE|DICT|INTERRES
   121   59  184 1    
   122   60   61 2    
   123   60   62 1    
   124   62   63 1    
   125   62   64 1    
   126   62  185 1    
   127   63  186 1    
   128   63  187 1    
   129   63  188 1    
   130   64   65 am   BACKBONE|DICT|INTERRES
   131   64  189 1    
   132   65   66 2    
   133   67   68 2    
   134   67   69 am   BACKBONE|DICT|INTERRES
   135   69   70 1    
   136   69  190 1    
   137   70   71 1    
   138   70   72 1    
   139   70  191 1    
   140   71  192 1    
   141   71  193 1    
   142   71  194 1    
   143   72   73 2    
   144   72   74 am   BACKBONE|DICT|INTERRES
   145   74   75 1    
   146   74  195 1    
   147   75   76 1    
   148   75   77 1    
   149   75  196 1    
   150   76  197 1    
   151   76  198 1    
   152   76  199 1    
   153   77   78 2    
   154   77   79 am   BACKBONE|DICT|INTERRES
   155   79   80 1    
   156   79  200 1    
   157   80   81 1    
   158   80   82 1    
   159   80  201 1    
   160   81  202 1    
   161   81  203 1    
   162   81  204 1    
   163   82   83 2    
   164   82   84 am   BACKBONE|DICT|INTERRES
   165   84   85 1    
   166   84  205 1    
   167   85   86 1    
   168   85   87 1    
   169   85  206 1    
   170   86  207 1    
   171   86  208 1    
   172   86  209 1    
   173   87   88 2    
   174   87   89 am   BACKBONE|DICT|INTERRES
   175   89   90 1    
   176   89  210 1    
   177   90   91 1    
   178   90   92 1    
   179   90  211 1    
   180   91  212 1    
   181   91  213 1    
   182   91  214 1    
   183   92   93 2    
   184   92   94 am   BACKBONE|DICT|INTERRES
   185   94   95 1    
   186   94  215 1    
   187   95   96 1    
   188   95   97 1    
   189   95  216 1    
   190   96  217 1    
   191   96  218 1    
   192   96  219 1    
   193   97   98 2    
   194   97   99 am   BACKBONE|DICT|INTERRES
   195   99  100 1    
   196   99  220 1    
   197  100  101 1    
   198  100  102 1    
   199  100  221 1    
   200  101  222 1    
   201  101  223 1    
   202  101  224 1    
   203  102  103 2    
   204  102  104 am   BACKBONE|DICT|INTERRES
   205  104  105 1    
   206  104  225 1    
   207  105  106 1    
   208  105  107 1    
   209  105  226 1    
   210  106  227 1    
   211  106  228 1    
   212  106  229 1    
   213  107  108 2    
   214  107  109 am   BACKBONE|DICT|INTERRES
   215  109  110 1    
   216  109  230 1    
   217  110  111 1    
   218  110  112 1    
   219  110  231 1    
   220  111  232 1    
   221  111  233 1    
   222  111  234 1    
   223  112  113 2    
   224  112  114 am   BACKBONE|DICT|INTERRES
   225  114  115 1    
   226  114  235 1    
   227  115  116 1    
   228  115  117 1    
   229  115  236 1    
   230  116  237 1    
   231  116  238 1    
   232  116  239 1    
   233  117  118 2    
   234  117  119 am   BACKBONE|DICT|INTERRES
   235  119  120 1    
   236  119  240 1    
   237  120  121 1    
   238  120  124 1    
   239  120  241 1    
   240  121  122 am   BACKBONE|DICT|INTERRES
   241  121  123 2    
   242  122  242 1    
   243  122  243 1    
   244  124  125 1    
   245  124  244 1    
   246  124  245 1    
   247  125  126 1    
   248  126  246 1    
   249  126  247 1    
@<TRIPOS>SUBSTRUCTURE
     1 UNK         1 GROUP             0       ****    0 ROOT    
