@<TRIPOS>MOLECULE
3R540
247   249    1
SMALL
USER_CHARGES


@<TRIPOS>ATOM
      1 CA         -0.5932   -9.5498  -46.8144 C.3       0 UNK        -0.1800 
      2 C           0.4305   -9.9278  -47.8754 C.2       0 UNK         0.5000 
      3 O           1.3171   -9.1309  -48.1825 O.2       0 UNK        -0.5000 
      4 N           0.3061  -11.1361  -48.4394 N.am      1 UNK        -0.5000 
      5 CA          1.1737  -11.6672  -49.5021 C.3       1 UNK         0.1400 
      6 C6          0.5636  -12.9260  -50.1695 C.3       23 UNK        -0.0398 
      7 S7         -1.1172  -12.6481  -50.8325 S.3       23 UNK        -0.2404 
      8 C8         -2.1386  -13.7643  -49.7982 C.3       23 UNK        -0.0205 
      9 C9         -1.8826  -15.2629  -49.9828 C.ar      23 UNK        -0.0193 
     10 C10        -1.3040  -15.7834  -51.1475 C.ar      23 UNK        -0.1150 
     11 C11        -1.0701  -17.1539  -51.2819 C.ar      23 UNK        -0.0193 
     12 C12        -1.4056  -18.0109  -50.2302 C.ar      23 UNK        -0.1150 
     13 C13        -2.0020  -17.5181  -49.0651 C.ar      23 UNK        -0.0193 
     14 C14        -2.2488  -16.1447  -48.9573 C.ar      23 UNK        -0.1150 
     15 C15        -2.3359  -18.4611  -47.9110 C.3       23 UNK        -0.0205 
     16 S16        -3.3536  -19.8763  -48.4451 S.3       23 UNK        -0.2404 
     17 C17        -3.4440  -20.9123  -46.9458 C.3       23 UNK        -0.0398 
     18 CA         -2.2781  -21.9320  -46.8742 C.3       11 UNK         0.1400 
     19 N          -1.0657  -21.3495  -46.2941 N.am      11 UNK        -0.5000 
     20 C           0.1560  -21.8954  -46.3705 C.2       10 UNK         0.5000 
     21 O           0.4045  -22.9371  -46.9754 O.2       10 UNK        -0.5000 
     22 CA          1.2765  -21.1753  -45.5974 C.3       10 UNK         0.1400 
     23 CB          1.8566  -20.0238  -46.4317 C.3       10 UNK        -0.1800 
     24 N           0.8178  -20.6640  -44.3037 N.am      10 UNK        -0.5000 
     25 C           0.4337  -21.4433  -43.2820 C.2       9 UNK         0.5000 
     26 O           0.4646  -22.6723  -43.3090 O.2       9 UNK        -0.5000 
     27 CA         -0.1370  -20.7307  -42.0463 C.3       9 UNK         0.1400 
     28 CB          0.9922  -20.2554  -41.1197 C.3       9 UNK        -0.1800 
     29 N          -0.9752  -19.5911  -42.4084 N.am      9 UNK        -0.5000 
     30 C          -2.1448  -19.6543  -43.0568 C.2       8 UNK         0.5000 
     31 O          -2.6512  -20.7122  -43.4300 O.2       8 UNK        -0.5000 
     32 CA         -2.8363  -18.3198  -43.4038 C.3       8 UNK         0.1400 
     33 CB         -4.3580  -18.3679  -43.1636 C.3       8 UNK        -0.1800 
     34 N          -2.2265  -17.1464  -42.7668 N.am      8 UNK        -0.5000 
     35 C          -2.1906  -16.8263  -41.4632 C.2       7 UNK         0.5000 
     36 O          -2.7402  -17.4843  -40.5798 O.2       7 UNK        -0.5000 
     37 CA         -1.3620  -15.5854  -41.0659 C.3       7 UNK         0.1400 
     38 CB         -0.0951  -16.0173  -40.3100 C.3       7 UNK        -0.1800 
     39 N          -0.9635  -14.7601  -42.2081 N.am      7 UNK        -0.5000 
     40 C          -1.7884  -13.9661  -42.9051 C.2       6 UNK         0.5000 
     41 O          -2.9654  -13.7669  -42.6039 O.2       6 UNK        -0.5000 
     42 CA         -1.2083  -13.3270  -44.1795 C.3       6 UNK         0.1400 
     43 CB         -0.4989  -12.0079  -43.8405 C.3       6 UNK        -0.1800 
     44 N          -0.2722  -14.2110  -44.8780 N.am      6 UNK        -0.5000 
     45 C          -0.5895  -15.3773  -45.4572 C.2       5 UNK         0.5000 
     46 O          -1.7305  -15.8341  -45.4912 O.2       5 UNK        -0.5000 
     47 CA          0.5709  -16.2063  -46.0315 C.3       5 UNK         0.1400 
     48 CB          1.0345  -15.6796  -47.3937 C.3       5 UNK        -0.1800 
     49 N           1.7113  -16.2341  -45.1215 N.am      5 UNK        -0.5000 
     50 C           1.7809  -16.9902  -44.0205 C.2       4 UNK         0.5000 
     51 O           0.8991  -17.7785  -43.6811 O.2       4 UNK        -0.5000 
     52 CA          3.0485  -16.8519  -43.1590 C.3       4 UNK         0.1400 
     53 CB          4.0524  -17.9575  -43.5164 C.3       4 UNK        -0.1800 
     54 N           3.6960  -15.5440  -43.2962 N.am      4 UNK        -0.5000 
     55 C           3.2008  -14.4047  -42.7927 C.2       3 UNK         0.5000 
     56 O           2.1438  -14.3384  -42.1641 O.2       3 UNK        -0.5000 
     57 CA          3.9932  -13.1181  -43.1007 C.3       3 UNK         0.1400 
     58 CB          5.2800  -13.0517  -42.2637 C.3       3 UNK        -0.1800 
     59 N           4.3213  -12.9564  -44.5239 N.am      3 UNK        -0.5000 
     60 C           3.4062  -12.8907  -45.4990 C.2       2 UNK         0.5000 
     61 O           2.1968  -13.0230  -45.2954 O.2       2 UNK        -0.5000 
     62 CA          3.8976  -12.6690  -46.9386 C.3       2 UNK         0.1400 
     63 CB          4.5700  -13.9439  -47.4851 C.3       2 UNK        -0.1800 
     64 N           2.7127  -12.3232  -47.7177 N.am      2 UNK        -0.5000 
     65 C           2.6068  -11.9667  -49.0009 C.2       1 UNK         0.5000 
     66 O           3.5622  -11.8630  -49.7709 O.2       1 UNK        -0.5000 
     67 C          -2.6793  -23.2255  -46.1374 C.2       11 UNK         0.5000 
     68 O          -3.0108  -24.2112  -46.7967 O.2       11 UNK        -0.5000 
     69 N          -2.5971  -23.2232  -44.7993 N.am      12 UNK        -0.5000 
     70 CA         -2.8378  -24.3913  -43.9510 C.3       12 UNK         0.1400 
     71 CB         -2.8410  -23.9691  -42.4743 C.3       12 UNK        -0.1800 
     72 C          -1.8244  -25.5236  -44.1995 C.2       12 UNK         0.5000 
     73 O          -2.2328  -26.6749  -44.3513 O.2       12 UNK        -0.5000 
     74 N          -0.5323  -25.1753  -44.2918 N.am      13 UNK        -0.5000 
     75 CA          0.5647  -26.0973  -44.6039 C.3       13 UNK         0.1400 
     76 CB          1.9071  -25.3658  -44.4556 C.3       13 UNK        -0.1800 
     77 C           0.4468  -26.7290  -46.0040 C.2       13 UNK         0.5000 
     78 O           0.7895  -27.8991  -46.1755 O.2       13 UNK        -0.5000 
     79 N          -0.0735  -25.9567  -46.9662 N.am      14 UNK        -0.5000 
     80 CA         -0.3856  -26.3996  -48.3249 C.3       14 UNK         0.1400 
     81 CB         -0.4169  -25.1695  -49.2455 C.3       14 UNK        -0.1800 
     82 C          -1.7115  -27.1817  -48.4314 C.2       14 UNK         0.5000 
     83 O          -2.0644  -27.5950  -49.5351 O.2       14 UNK        -0.5000 
     84 N          -2.4482  -27.3390  -47.3199 N.am      15 UNK        -0.5000 
     85 CA         -3.7676  -27.9759  -47.2200 C.3       15 UNK         0.1400 
     86 CB         -3.6588  -29.4954  -47.4635 C.3       15 UNK        -0.1800 
     87 C          -4.8240  -27.2908  -48.1145 C.2       15 UNK         0.5000 
     88 O          -5.6365  -27.9644  -48.7499 O.2       15 UNK        -0.5000 
     89 N          -4.7577  -25.9527  -48.1615 N.am      16 UNK        -0.5000 
     90 CA         -5.5685  -25.0254  -48.9537 C.3       16 UNK         0.1400 
     91 CB         -7.0691  -25.1557  -48.6226 C.3       16 UNK        -0.1800 
     92 C          -5.2962  -25.0610  -50.4721 C.2       16 UNK         0.5000 
     93 O          -5.9850  -24.3579  -51.2106 O.2       16 UNK        -0.5000 
     94 N          -4.2781  -25.8051  -50.9343 N.am      17 UNK        -0.5000 
     95 CA         -3.8768  -25.8365  -52.3473 C.3       17 UNK         0.1400 
     96 CB         -2.8861  -26.9852  -52.5838 C.3       17 UNK        -0.1800 
     97 C          -3.2751  -24.5000  -52.8256 C.2       17 UNK         0.5000 
     98 O          -3.4211  -24.1463  -53.9957 O.2       17 UNK        -0.5000 
     99 N          -2.6394  -23.7678  -51.9004 N.am      18 UNK        -0.5000 
    100 CA        -2.0760  -22.4376  -52.1302 C.3       18 UNK         0.1400 
    101 CB        -0.9571  -22.1815  -51.1082 C.3       18 UNK        -0.1800 
    102 C         -3.1276  -21.3121  -52.0757 C.2       18 UNK         0.5000 
    103 O         -2.7986  -20.1854  -52.4337 O.2       18 UNK        -0.5000 
    104 N         -4.3658  -21.6132  -51.6542 N.am      19 UNK        -0.5000 
    105 CA        -5.4548  -20.6402  -51.4984 C.3       19 UNK         0.1400 
    106 CB        -6.4527  -21.1634  -50.4503 C.3       19 UNK        -0.1800 
    107 C         -6.1621  -20.2730  -52.8231 C.2       19 UNK         0.5000 
    108 O         -7.1966  -19.6034  -52.7916 O.2       19 UNK        -0.5000 
    109 N         -5.6071  -20.7171  -53.9585 N.am      20 UNK        -0.5000 
    110 CA        -6.0064  -20.3520  -55.3164 C.3       20 UNK         0.1400 
    111 CB        -5.5386  -21.4707  -56.2687 C.3       20 UNK        -0.1800 
    112 C         -5.4670  -18.9551  -55.7115 C.2       20 UNK         0.5000 
    113 O         -5.2602  -18.0998  -54.8483 O.2       20 UNK        -0.5000 
    114 N         -5.2554  -18.7307  -57.0166 N.am      21 UNK        -0.5000 
    115 CA        -4.7113  -17.4832  -57.5636 C.3       21 UNK         0.1400 
    116 CB        -4.8654  -17.4899  -59.0924 C.3       21 UNK        -0.1800 
    117 C         -3.2415  -17.2354  -57.1672 C.2       21 UNK         0.5000 
    118 O         -2.8672  -16.0823  -56.9551 O.2       21 UNK        -0.5000 
    119 N         -2.4624  -18.3252  -57.0889 N.am      22 UNK        -0.5000 
    120 CA        -1.0621  -18.4873  -56.6364 C.3       22 UNK         0.1400 
    121 C          0.0459  -17.5188  -57.1606 C.2       22 UNK         0.5000 
    122 N         -0.2691  -16.4295  -57.8429 N.am      22 UNK        -0.7600 
    123 O          1.2298  -17.7928  -56.9816 O.2       22 UNK        -0.5000 
    124 C124       -0.9500  -18.7611  -55.1109 C.3       23 UNK        -0.0398 
    125 S125       -1.4696  -17.3888  -54.0244 S.3       23 UNK        -0.2404 
    126 C126       -0.4403  -17.7078  -52.5536 C.3       23 UNK        -0.0205 
    127 H127       -1.3015  -10.3573  -46.6271 H         1 UNK         0.0600 
    128 H128       -0.0915   -9.3107  -45.8768 H         1 UNK         0.0600 
    129 H129       -1.1559   -8.6725  -47.1333 H         1 UNK         0.0600 
    130 H130       -0.4617  -11.7305  -48.1654 H         1 UNK         0.3000 
    131 H131        1.2608  -10.8944  -50.2689 H         1 UNK         0.0600 
    132 H132        0.5394  -13.7590  -49.4680 H         1 UNK         0.0800 
    133 H133        1.1919  -13.2534  -50.9999 H         1 UNK         0.0800 
    134 H134       -3.1881  -13.5711  -50.0232 H         1 UNK         0.0800 
    135 H135       -1.9945  -13.4935  -48.7511 H         1 UNK         0.0800 
    136 H136       -1.0361  -15.1309  -51.9655 H         1 UNK         0.1150 
    137 H137       -1.2147  -19.0705  -50.3213 H         1 UNK         0.1150 
    138 H138       -2.7019  -15.7549  -48.0563 H         1 UNK         0.1150 
    139 H139       -1.4013  -18.8255  -47.4854 H         1 UNK         0.0800 
    140 H140       -2.8590  -17.9281  -47.1155 H         1 UNK         0.0800 
    141 H141       -4.4064  -21.4256  -46.9956 H         1 UNK         0.0800 
    142 H142       -3.4889  -20.2858  -46.0542 H         1 UNK         0.0800 
    143 H143       -2.0366  -22.2417  -47.8921 H         1 UNK         0.0600 
    144 H144       -1.1836  -20.5242  -45.7285 H         1 UNK         0.3000 
    145 H145        2.0737  -21.8981  -45.4117 H         1 UNK         0.0600 
    146 H146        2.6631  -19.5167  -45.9022 H         1 UNK         0.0600 
    147 H147        2.2680  -20.3949  -47.3712 H         1 UNK         0.0600 
    148 H148        1.0978  -19.2830  -46.6798 H         1 UNK         0.0600 
    149 H149        0.7730  -19.6563  -44.1829 H         1 UNK         0.3000 
    150 H150       -0.7550  -21.4450  -41.4990 H         1 UNK         0.0600 
    151 H151        1.6370  -19.5243  -41.6086 H         1 UNK         0.0600 
    152 H152        1.6199  -21.0919  -40.8098 H         1 UNK         0.0600 
    153 H153        0.5922  -19.7964  -40.2154 H         1 UNK         0.0600 
    154 H154       -0.5809  -18.6748  -42.2462 H         1 UNK         0.3000 
    155 H155       -2.6836  -18.1835  -44.4748 H         1 UNK         0.0600 
    156 H156       -4.5997  -18.5863  -42.1233 H         1 UNK         0.0600 
    157 H157       -4.8255  -19.1417  -43.7737 H         1 UNK         0.0600 
    158 H158       -4.8282  -17.4206  -43.4275 H         1 UNK         0.0600 
    159 H159       -1.7539  -16.5242  -43.4103 H         1 UNK         0.3000 
    160 H160       -1.9748  -14.9801  -40.3949 H         1 UNK         0.0600 
    161 H161        0.5555  -16.6303  -40.9345 H         1 UNK         0.0600 
    162 H162       -0.3451  -16.6017  -39.4236 H         1 UNK         0.0600 
    163 H163        0.4790  -15.1528  -39.9761 H         1 UNK         0.0600 
    164 H164        0.0097  -14.8098  -42.4861 H         1 UNK         0.3000 
    165 H165       -2.0371  -13.1110  -44.8568 H         1 UNK         0.0600 
    166 H166       -0.1025  -11.5330  -44.7367 H         1 UNK         0.0600 
    167 H167       -1.1850  -11.3020  -43.3710 H         1 UNK         0.0600 
    168 H168        0.3351  -12.1656  -43.1551 H         1 UNK         0.0600 
    169 H169        0.6936  -13.8894  -44.9168 H         1 UNK         0.3000 
    170 H170        0.2070  -17.2250  -46.1723 H         1 UNK         0.0600 
    171 H171        1.3578  -14.6429  -47.3347 H         1 UNK         0.0600 
    172 H172        0.2343  -15.7315  -48.1262 H         1 UNK         0.0600 
    173 H173        1.8619  -16.2714  -47.7853 H         1 UNK         0.0600 
    174 H174        2.4631  -15.5887  -45.3085 H         1 UNK         0.3000 
    175 H175        2.7533  -16.9844  -42.1161 H         1 UNK         0.0600 
    176 H176        4.3983  -17.8708  -44.5472 H         1 UNK         0.0600 
    177 H177        4.9254  -17.9227  -42.8646 H         1 UNK         0.0600 
    178 H178        3.6034  -18.9455  -43.4029 H         1 UNK         0.0600 
    179 H179        4.5649  -15.5124  -43.8094 H         1 UNK         0.3000 
    180 H180        3.3623  -12.2744  -42.8127 H         1 UNK         0.0600 
    181 H181        5.7822  -12.0924  -42.3895 H         1 UNK         0.0600 
    182 H182        5.9844  -13.8374  -42.5392 H         1 UNK         0.0600 
    183 H183        5.0609  -13.1646  -41.2010 H         1 UNK         0.0600 
    184 H184        5.2986  -12.8501  -44.7551 H         1 UNK         0.3000 
    185 H185        4.5960  -11.8307  -46.9553 H         1 UNK         0.0600 
    186 H186        4.9316  -13.8017  -48.5031 H         1 UNK         0.0600 
    187 H187        5.4327  -14.2238  -46.8797 H         1 UNK         0.0600 
    188 H188        3.8856  -14.7920  -47.4910 H         1 UNK         0.0600 
    189 H189        1.8720  -12.3416  -47.1519 H         1 UNK         0.3000 
    190 H190       -2.3819  -22.3534  -44.3192 H         1 UNK         0.3000 
    191 H191       -3.8305  -24.7764  -44.1934 H         1 UNK         0.0600 
    192 H192       -3.0602  -24.8185  -41.8263 H         1 UNK         0.0600 
    193 H193       -3.5992  -23.2094  -42.2834 H         1 UNK         0.0600 
    194 H194       -1.8772  -23.5630  -42.1680 H         1 UNK         0.0600 
    195 H195       -0.2693  -24.2109  -44.1032 H         1 UNK         0.3000 
    196 H196        0.5353  -26.9078  -43.8729 H         1 UNK         0.0600 
    197 H197        1.9777  -24.5157  -45.1351 H         1 UNK         0.0600 
    198 H198        2.0432  -24.9945  -43.4398 H         1 UNK         0.0600 
    199 H199        2.7429  -26.0319  -44.6727 H         1 UNK         0.0600 
    200 H200       -0.2744  -24.9864  -46.7536 H         1 UNK         0.3000 
    201 H201        0.4099  -27.0624  -48.6711 H         1 UNK         0.0600 
    202 H202       -1.2077  -24.4764  -48.9581 H         1 UNK         0.0600 
    203 H203       -0.5864  -25.4559  -50.2840 H         1 UNK         0.0600 
    204 H204        0.5292  -24.6290  -49.2123 H         1 UNK         0.0600 
    205 H205       -2.0959  -26.9474  -46.4545 H         1 UNK         0.3000 
    206 H206       -4.1004  -27.8298  -46.1915 H         1 UNK         0.0600 
    207 H207       -2.9143  -29.9462  -46.8073 H         1 UNK         0.0600 
    208 H208       -4.6091  -29.9919  -47.2641 H         1 UNK         0.0600 
    209 H209       -3.3808  -29.7232  -48.4929 H         1 UNK         0.0600 
    210 H210       -4.0342  -25.4972  -47.6064 H         1 UNK         0.3000 
    211 H211       -5.2576  -24.0308  -48.6307 H         1 UNK         0.0600 
    212 H212       -7.6404  -24.3449  -49.0763 H         1 UNK         0.0600 
    213 H213       -7.2417  -25.1090  -47.5474 H         1 UNK         0.0600 
    214 H214       -7.4884  -26.0918  -48.9916 H         1 UNK         0.0600 
    215 H215       -3.7468  -26.3831  -50.2937 H         1 UNK         0.3000 
    216 H216       -4.7686  -26.0323  -52.9465 H         1 UNK         0.0600 
    217 H217       -1.9397  -26.8140  -52.0703 H         1 UNK         0.0600 
    218 H218       -2.6643  -27.0936  -53.6462 H         1 UNK         0.0600 
    219 H219       -3.2907  -27.9361  -52.2366 H         1 UNK         0.0600 
    220 H220       -2.5732  -24.1357  -50.9638 H         1 UNK         0.3000 
    221 H221       -1.6295  -22.4130  -53.1266 H         1 UNK         0.0600 
    222 H222       -0.1800  -22.9427  -51.1736 H         1 UNK         0.0600 
    223 H223       -1.3374  -22.1708  -50.0877 H         1 UNK         0.0600 
    224 H224       -0.4768  -21.2189  -51.2872 H         1 UNK         0.0600 
    225 H225       -4.5969  -22.5755  -51.4480 H         1 UNK         0.3000 
    226 H226       -5.0275  -19.7141  -51.1077 H         1 UNK         0.0600 
    227 H227       -7.0266  -22.0097  -50.8270 H         1 UNK         0.0600 
    228 H228       -5.9457  -21.4759  -49.5373 H         1 UNK         0.0600 
    229 H229       -7.1664  -20.3872  -50.1725 H         1 UNK         0.0600 
    230 H230       -4.7469  -21.2371  -53.8737 H         1 UNK         0.3000 
    231 H231       -7.0962  -20.3024  -55.3590 H         1 UNK         0.0600 
    232 H232       -4.4507  -21.5110  -56.3399 H         1 UNK         0.0600 
    233 H233       -5.9370  -21.3361  -57.2747 H         1 UNK         0.0600 
    234 H234       -5.8820  -22.4466  -55.9241 H         1 UNK         0.0600 
    235 H235       -5.4611  -19.4653  -57.6780 H         1 UNK         0.3000 
    236 H236       -5.3030  -16.6548  -57.1678 H         1 UNK         0.0600 
    237 H237       -5.9123  -17.5799  -59.3830 H         1 UNK         0.0600 
    238 H238       -4.4879  -16.5630  -59.5264 H         1 UNK         0.0600 
    239 H239       -4.3169  -18.3138  -59.5505 H         1 UNK         0.0600 
    240 H240       -2.9118  -19.1949  -57.3324 H         1 UNK         0.3000 
    241 H241       -0.7802  -19.4284  -57.1104 H         1 UNK         0.0600 
    242 H242        0.4544  -15.8198  -58.1892 H         1 UNK         0.3800 
    243 H243       -1.2411  -16.1355  -57.8536 H         1 UNK         0.3800 
    244 H244        0.0718  -19.0494  -54.8587 H         1 UNK         0.0800 
    245 H245       -1.5644  -19.6252  -54.8551 H         1 UNK         0.0800 
    246 H246       -0.2852  -18.7831  -52.4521 H         1 UNK         0.0800 
    247 H247        0.5448  -17.2625  -52.6979 H         1 UNK         0.0800 
@<TRIPOS>BOND
     1    1    2 1    
     2    1  127 1    
     3    1  128 1    
     4    1  129 1    
     5    2    3 2    
     6    2    4 am   BACKBONE|DICT|INTERRES
     7    4    5 1    
     8    4  130 1    
     9    5    6 1    
    10    5   65 1    
    11    5  131 1    
    12    6    7 1    
    13    6  132 1    
    14    6  133 1    
    15    7    8 1    
    16    8    9 1    
    17    8  134 1    
    18    8  135 1    
    19    9   10 ar   
    20    9   14 ar   
    21   10   11 ar   
    22   10  136 1    
    23   11   12 ar   
    24   11  126 1    
    25   12   13 ar   
    26   12  137 1    
    27   13   14 ar   
    28   13   15 1    
    29   14  138 1    
    30   15   16 1    
    31   15  139 1    
    32   15  140 1    
    33   16   17 1    
    34   17   18 1    
    35   17  141 1    
    36   17  142 1    
    37   18   19 1    
    38   18   67 1    
    39   18  143 1    
    40   19   20 am   BACKBONE|DICT|INTERRES
    41   19  144 1    
    42   20   21 2    
    43   20   22 1    
    44   22   23 1    
    45   22   24 1    
    46   22  145 1    
    47   23  146 1    
    48   23  147 1    
    49   23  148 1    
    50   24   25 am   BACKBONE|DICT|INTERRES
    51   24  149 1    
    52   25   26 2    
    53   25   27 1    
    54   27   28 1    
    55   27   29 1    
    56   27  150 1    
    57   28  151 1    
    58   28  152 1    
    59   28  153 1    
    60   29   30 am   BACKBONE|DICT|INTERRES
    61   29  154 1    
    62   30   31 2    
    63   30   32 1    
    64   32   33 1    
    65   32   34 1    
    66   32  155 1    
    67   33  156 1    
    68   33  157 1    
    69   33  158 1    
    70   34   35 am   BACKBONE|DICT|INTERRES
    71   34  159 1    
    72   35   36 2    
    73   35   37 1    
    74   37   38 1    
    75   37   39 1    
    76   37  160 1    
    77   38  161 1    
    78   38  162 1    
    79   38  163 1    
    80   39   40 am   BACKBONE|DICT|INTERRES
    81   39  164 1    
    82   40   41 2    
    83   40   42 1    
    84   42   43 1    
    85   42   44 1    
    86   42  165 1    
    87   43  166 1    
    88   43  167 1    
    89   43  168 1    
    90   44   45 am   BACKBONE|DICT|INTERRES
    91   44  169 1    
    92   45   46 2    
    93   45   47 1    
    94   47   48 1    
    95   47   49 1    
    96   47  170 1    
    97   48  171 1    
    98   48  172 1    
    99   48  173 1    
   100   49   50 am   BACKBONE|DICT|INTERRES
   101   49  174 1    
   102   50   51 2    
   103   50   52 1    
   104   52   53 1    
   105   52   54 1    
   106   52  175 1    
   107   53  176 1    
   108   53  177 1    
   109   53  178 1    
   110   54   55 am   BACKBONE|DICT|INTERRES
   111   54  179 1    
   112   55   56 2    
   113   55   57 1    
   114   57   58 1    
   115   57   59 1    
   116   57  180 1    
   117   58  181 1    
   118   58  182 1    
   119   58  183 1    
   120   59   60 am   BACKBONE|DICT|INTERRES
   121   59  184 1    
   122   60   61 2    
   123   60   62 1    
   124   62   63 1    
   125   62   64 1    
   126   62  185 1    
   127   63  186 1    
   128   63  187 1    
   129   63  188 1    
   130   64   65 am   BACKBONE|DICT|INTERRES
   131   64  189 1    
   132   65   66 2    
   133   67   68 2    
   134   67   69 am   BACKBONE|DICT|INTERRES
   135   69   70 1    
   136   69  190 1    
   137   70   71 1    
   138   70   72 1    
   139   70  191 1    
   140   71  192 1    
   141   71  193 1    
   142   71  194 1    
   143   72   73 2    
   144   72   74 am   BACKBONE|DICT|INTERRES
   145   74   75 1    
   146   74  195 1    
   147   75   76 1    
   148   75   77 1    
   149   75  196 1    
   150   76  197 1    
   151   76  198 1    
   152   76  199 1    
   153   77   78 2    
   154   77   79 am   BACKBONE|DICT|INTERRES
   155   79   80 1    
   156   79  200 1    
   157   80   81 1    
   158   80   82 1    
   159   80  201 1    
   160   81  202 1    
   161   81  203 1    
   162   81  204 1    
   163   82   83 2    
   164   82   84 am   BACKBONE|DICT|INTERRES
   165   84   85 1    
   166   84  205 1    
   167   85   86 1    
   168   85   87 1    
   169   85  206 1    
   170   86  207 1    
   171   86  208 1    
   172   86  209 1    
   173   87   88 2    
   174   87   89 am   BACKBONE|DICT|INTERRES
   175   89   90 1    
   176   89  210 1    
   177   90   91 1    
   178   90   92 1    
   179   90  211 1    
   180   91  212 1    
   181   91  213 1    
   182   91  214 1    
   183   92   93 2    
   184   92   94 am   BACKBONE|DICT|INTERRES
   185   94   95 1    
   186   94  215 1    
   187   95   96 1    
   188   95   97 1    
   189   95  216 1    
   190   96  217 1    
   191   96  218 1    
   192   96  219 1    
   193   97   98 2    
   194   97   99 am   BACKBONE|DICT|INTERRES
   195   99  100 1    
   196   99  220 1    
   197  100  101 1    
   198  100  102 1    
   199  100  221 1    
   200  101  222 1    
   201  101  223 1    
   202  101  224 1    
   203  102  103 2    
   204  102  104 am   BACKBONE|DICT|INTERRES
   205  104  105 1    
   206  104  225 1    
   207  105  106 1    
   208  105  107 1    
   209  105  226 1    
   210  106  227 1    
   211  106  228 1    
   212  106  229 1    
   213  107  108 2    
   214  107  109 am   BACKBONE|DICT|INTERRES
   215  109  110 1    
   216  109  230 1    
   217  110  111 1    
   218  110  112 1    
   219  110  231 1    
   220  111  232 1    
   221  111  233 1    
   222  111  234 1    
   223  112  113 2    
   224  112  114 am   BACKBONE|DICT|INTERRES
   225  114  115 1    
   226  114  235 1    
   227  115  116 1    
   228  115  117 1    
   229  115  236 1    
   230  116  237 1    
   231  116  238 1    
   232  116  239 1    
   233  117  118 2    
   234  117  119 am   BACKBONE|DICT|INTERRES
   235  119  120 1    
   236  119  240 1    
   237  120  121 1    
   238  120  124 1    
   239  120  241 1    
   240  121  122 am   BACKBONE|DICT|INTERRES
   241  121  123 2    
   242  122  242 1    
   243  122  243 1    
   244  124  125 1    
   245  124  244 1    
   246  124  245 1    
   247  125  126 1    
   248  126  246 1    
   249  126  247 1    
@<TRIPOS>SUBSTRUCTURE
     1 UNK         1 GROUP             0       ****    0 ROOT    
