@<TRIPOS>MOLECULE
3R540
247   249    1
SMALL
USER_CHARGES


@<TRIPOS>ATOM
      1 CA         -0.6041  -13.0163  -55.3921 C.3       0 UNK        -0.1800 
      2 C           0.5398  -12.7851  -54.4151 C.2       0 UNK         0.5000 
      3 O           0.9665  -11.6453  -54.2324 O.2       0 UNK        -0.5000 
      4 N           1.0426  -13.8632  -53.7989 N.am      1 UNK        -0.5000 
      5 CA          2.1990  -13.8541  -52.8905 C.3       1 UNK         0.1400 
      6 C6          2.7296  -15.2839  -52.6093 C.3       23 UNK        -0.0398 
      7 S7          3.1260  -16.2000  -54.1355 S.3       23 UNK        -0.2404 
      8 C8          3.6386  -17.8163  -53.4676 C.3       23 UNK        -0.0205 
      9 C9          2.4880  -18.6162  -52.8658 C.ar      23 UNK        -0.0193 
     10 C10         1.3949  -18.9891  -53.6543 C.ar      23 UNK        -0.1150 
     11 C11         0.3609  -19.7642  -53.1203 C.ar      23 UNK        -0.0193 
     12 C12         0.4365  -20.1851  -51.7897 C.ar      23 UNK        -0.1150 
     13 C13         1.5255  -19.8247  -50.9881 C.ar      23 UNK        -0.0193 
     14 C14         2.5422  -19.0324  -51.5317 C.ar      23 UNK        -0.1150 
     15 C15         1.6257  -20.3132  -49.5471 C.3       23 UNK        -0.0205 
     16 S16         0.1467  -19.8916  -48.5796 S.3       23 UNK        -0.2404 
     17 C17         0.6825  -20.2718  -46.8820 C.3       23 UNK        -0.0398 
     18 CA          0.6332  -21.7544  -46.4255 C.3       11 UNK         0.1400 
     19 N           0.6632  -21.8489  -44.9653 N.am      11 UNK        -0.5000 
     20 C           0.7922  -22.9798  -44.2589 C.2       10 UNK         0.5000 
     21 O           0.9596  -24.0897  -44.7639 O.2       10 UNK        -0.5000 
     22 CA          0.6600  -22.8504  -42.7312 C.3       10 UNK         0.1400 
     23 CB          1.9668  -22.3317  -42.1131 C.3       10 UNK        -0.1800 
     24 N          -0.4493  -21.9790  -42.3382 N.am      10 UNK        -0.5000 
     25 C          -1.7413  -22.2325  -42.5947 C.2       9 UNK         0.5000 
     26 O          -2.1394  -23.2554  -43.1530 O.2       9 UNK        -0.5000 
     27 CA         -2.7533  -21.1375  -42.2064 C.3       9 UNK         0.1400 
     28 CB         -3.0334  -21.1535  -40.6965 C.3       9 UNK        -0.1800 
     29 N          -2.3212  -19.7994  -42.6148 N.am      9 UNK        -0.5000 
     30 C          -2.1371  -19.4219  -43.8879 C.2       8 UNK         0.5000 
     31 O          -2.3416  -20.1497  -44.8570 O.2       8 UNK        -0.5000 
     32 CA         -1.5867  -18.0078  -44.1227 C.3       8 UNK         0.1400 
     33 CB         -2.7199  -16.9734  -44.0807 C.3       8 UNK        -0.1800 
     34 N          -0.5242  -17.6612  -43.1758 N.am      8 UNK        -0.5000 
     35 C           0.6699  -18.2734  -43.1350 C.2       7 UNK         0.5000 
     36 O           1.0202  -19.1456  -43.9284 O.2       7 UNK        -0.5000 
     37 CA          1.6078  -17.8973  -41.9773 C.3       7 UNK         0.1400 
     38 CB          2.4065  -16.6256  -42.2997 C.3       7 UNK        -0.1800 
     39 N           0.8785  -17.7370  -40.7194 N.am      7 UNK        -0.5000 
     40 C           0.3079  -18.7561  -40.0590 C.2       6 UNK         0.5000 
     41 O           0.3781  -19.9289  -40.4264 O.2       6 UNK        -0.5000 
     42 CA         -0.5089  -18.4143  -38.7998 C.3       6 UNK         0.1400 
     43 CB          0.3795  -18.4812  -37.5490 C.3       6 UNK        -0.1800 
     44 N          -1.1585  -17.1046  -38.8595 N.am      6 UNK        -0.5000 
     45 C          -2.1018  -16.7480  -39.7418 C.2       5 UNK         0.5000 
     46 O          -2.5284  -17.5030  -40.6184 O.2       5 UNK        -0.5000 
     47 CA         -2.6597  -15.3094  -39.6350 C.3       5 UNK         0.1400 
     48 CB         -1.9688  -14.4467  -38.5541 C.3       5 UNK        -0.1800 
     49 N          -2.6565  -14.5825  -40.9100 N.am      5 UNK        -0.5000 
     50 C          -1.6198  -14.4069  -41.7405 C.2       4 UNK         0.5000 
     51 O          -0.5170  -14.9425  -41.6004 O.2       4 UNK        -0.5000 
     52 CA         -1.8550  -13.4520  -42.9197 C.3       4 UNK         0.1400 
     53 CB         -1.7461  -11.9844  -42.4690 C.3       4 UNK        -0.1800 
     54 N          -0.8710  -13.7212  -43.9648 N.am      4 UNK        -0.5000 
     55 C          -1.0585  -13.4953  -45.2687 C.2       3 UNK         0.5000 
     56 O          -2.0755  -12.9703  -45.7327 O.2       3 UNK        -0.5000 
     57 CA          0.0615  -13.9531  -46.2172 C.3       3 UNK         0.1400 
     58 CB          0.1454  -15.4926  -46.2686 C.3       3 UNK        -0.1800 
     59 N          -0.2133  -13.4055  -47.5441 N.am      3 UNK        -0.5000 
     60 C           0.6345  -13.3501  -48.5756 C.2       2 UNK         0.5000 
     61 O           1.7797  -13.8024  -48.5324 O.2       2 UNK        -0.5000 
     62 CA          0.0899  -12.6659  -49.8502 C.3       2 UNK         0.1400 
     63 CB          0.2337  -11.1343  -49.7659 C.3       2 UNK        -0.1800 
     64 N           0.6561  -13.1822  -51.1043 N.am      2 UNK        -0.5000 
     65 C           1.9166  -13.1127  -51.5638 C.2       1 UNK         0.5000 
     66 O           2.8325  -12.4981  -51.0157 O.2       1 UNK        -0.5000 
     67 C          -0.5395  -22.5670  -47.0153 C.2       11 UNK         0.5000 
     68 O          -0.3107  -23.3857  -47.9042 O.2       11 UNK        -0.5000 
     69 N          -1.7524  -22.3725  -46.4787 N.am      12 UNK        -0.5000 
     70 CA         -2.9628  -23.0833  -46.8889 C.3       12 UNK         0.1400 
     71 CB         -4.1829  -22.4937  -46.1685 C.3       12 UNK        -0.1800 
     72 C          -2.8843  -24.6039  -46.6771 C.2       12 UNK         0.5000 
     73 O          -3.3934  -25.3510  -47.5106 O.2       12 UNK        -0.5000 
     74 N          -2.2269  -25.0387  -45.5945 N.am      13 UNK        -0.5000 
     75 CA         -1.9468  -26.4475  -45.3238 C.3       13 UNK         0.1400 
     76 CB         -1.4770  -26.6067  -43.8697 C.3       13 UNK        -0.1800 
     77 C          -0.9184  -27.0439  -46.3051 C.2       13 UNK         0.5000 
     78 O          -1.1107  -28.1656  -46.7752 O.2       13 UNK        -0.5000 
     79 N           0.1501  -26.2891  -46.5936 N.am      14 UNK        -0.5000 
     80 CA          1.2563  -26.7097  -47.4526 C.3       14 UNK         0.1400 
     81 CB          2.4736  -25.8091  -47.1876 C.3       14 UNK        -0.1800 
     82 C           0.9022  -26.7137  -48.9508 C.2       14 UNK         0.5000 
     83 O           1.1610  -27.7056  -49.6335 O.2       14 UNK        -0.5000 
     84 N           0.3424  -25.6006  -49.4398 N.am      15 UNK        -0.5000 
     85 CA          0.0747  -25.3542  -50.8593 C.3       15 UNK         0.1400 
     86 CB          0.3148  -23.8629  -51.1509 C.3       15 UNK        -0.1800 
     87 C          -1.3413  -25.7737  -51.2970 C.2       15 UNK         0.5000 
     88 O          -1.6409  -25.7016  -52.4888 O.2       15 UNK        -0.5000 
     89 N          -2.1874  -26.1799  -50.3384 N.am      16 UNK        -0.5000 
     90 CA         -3.5978  -26.5753  -50.4792 C.3       16 UNK         0.1400 
     91 CB         -3.7667  -27.7411  -51.4760 C.3       16 UNK        -0.1800 
     92 C          -4.5625  -25.4044  -50.7781 C.2       16 UNK         0.5000 
     93 O          -5.7600  -25.6378  -50.9502 O.2       16 UNK        -0.5000 
     94 N          -4.0477  -24.1711  -50.8027 N.am      17 UNK        -0.5000 
     95 CA         -4.7777  -22.9215  -50.9690 C.3       17 UNK         0.1400 
     96 CB         -5.1163  -22.6906  -52.4511 C.3       17 UNK        -0.1800 
     97 C          -3.8887  -21.7996  -50.4193 C.2       17 UNK         0.5000 
     98 O          -2.6643  -21.8946  -50.5278 O.2       17 UNK        -0.5000 
     99 N          -4.5073  -20.7813  -49.8122 N.am      18 UNK        -0.5000 
    100 CA        -3.8090  -19.6403  -49.2203 C.3       18 UNK         0.1400 
    101 CB        -4.7806  -18.8770  -48.3065 C.3       18 UNK        -0.1800 
    102 C         -3.2293  -18.6983  -50.2910 C.2       18 UNK         0.5000 
    103 O         -3.7909  -18.5794  -51.3811 O.2       18 UNK        -0.5000 
    104 N         -2.1350  -18.0163  -49.9388 N.am      19 UNK        -0.5000 
    105 CA        -1.4345  -17.0443  -50.7726 C.3       19 UNK         0.1400 
    106 CB        -0.2020  -16.5378  -50.0149 C.3       19 UNK        -0.1800 
    107 C         -2.3408  -15.8676  -51.1710 C.2       19 UNK         0.5000 
    108 O         -2.9927  -15.2830  -50.3044 O.2       19 UNK        -0.5000 
    109 N         -2.3597  -15.5606  -52.4752 N.am      20 UNK        -0.5000 
    110 CA        -3.2285  -14.5822  -53.1463 C.3       20 UNK         0.1400 
    111 CB        -3.0577  -13.1624  -52.5640 C.3       20 UNK        -0.1800 
    112 C         -4.7107  -15.0130  -53.2430 C.2       20 UNK         0.5000 
    113 O         -5.5426  -14.2186  -53.6833 O.2       20 UNK        -0.5000 
    114 N         -5.0110  -16.2685  -52.8901 N.am      21 UNK        -0.5000 
    115 CA        -6.3048  -16.9299  -53.0568 C.3       21 UNK         0.1400 
    116 CB        -7.0491  -16.9388  -51.7094 C.3       21 UNK        -0.1800 
    117 C         -6.0782  -18.3443  -53.6278 C.2       21 UNK         0.5000 
    118 O         -6.8044  -19.2787  -53.2860 O.2       21 UNK        -0.5000 
    119 N         -5.0398  -18.4727  -54.4652 N.am      22 UNK        -0.5000 
    120 CA        -4.4853  -19.7367  -54.9741 C.3       22 UNK         0.1400 
    121 C         -5.3862  -20.5075  -55.9845 C.2       22 UNK         0.5000 
    122 N         -6.4551  -19.9221  -56.5103 N.am      22 UNK        -0.7600 
    123 O         -5.1084  -21.6618  -56.2969 O.2       22 UNK        -0.5000 
    124 C124       -3.0635  -19.5304  -55.5594 C.3       23 UNK        -0.0398 
    125 S125       -1.8944  -18.7588  -54.3830 S.3       23 UNK        -0.2404 
    126 C126       -0.8165  -20.1732  -53.9928 C.3       23 UNK        -0.0205 
    127 H127       -0.8535  -14.0736  -55.4817 H         1 UNK         0.0600 
    128 H128       -0.3294  -12.6502  -56.3813 H         1 UNK         0.0600 
    129 H129       -1.4937  -12.4781  -55.0660 H         1 UNK         0.0600 
    130 H130        0.6853  -14.7777  -54.0335 H         1 UNK         0.3000 
    131 H131        2.9962  -13.3026  -53.3942 H         1 UNK         0.0600 
    132 H132        3.6303  -15.2409  -51.9941 H         1 UNK         0.0800 
    133 H133        2.0004  -15.8660  -52.0471 H         1 UNK         0.0800 
    134 H134        4.4334  -17.6626  -52.7361 H         1 UNK         0.0800 
    135 H135        4.0795  -18.4012  -54.2759 H         1 UNK         0.0800 
    136 H136        1.3499  -18.6776  -54.6886 H         1 UNK         0.1150 
    137 H137       -0.3528  -20.7958  -51.3736 H         1 UNK         0.1150 
    138 H138        3.3909  -18.7584  -50.9209 H         1 UNK         0.1150 
    139 H139        1.7579  -21.3959  -49.5442 H         1 UNK         0.0800 
    140 H140        2.5034  -19.8865  -49.0596 H         1 UNK         0.0800 
    141 H141        0.0195  -19.6844  -46.2494 H         1 UNK         0.0800 
    142 H142        1.6797  -19.8621  -46.7163 H         1 UNK         0.0800 
    143 H143        1.5461  -22.2293  -46.7909 H         1 UNK         0.0600 
    144 H144        0.5751  -20.9710  -44.4621 H         1 UNK         0.3000 
    145 H145        0.4633  -23.8463  -42.3288 H         1 UNK         0.0600 
    146 H146        1.9077  -22.3161  -41.0247 H         1 UNK         0.0600 
    147 H147        2.8086  -22.9699  -42.3847 H         1 UNK         0.0600 
    148 H148        2.1977  -21.3200  -42.4486 H         1 UNK         0.0600 
    149 H149       -0.2048  -21.1334  -41.8305 H         1 UNK         0.3000 
    150 H150       -3.6896  -21.3534  -42.7253 H         1 UNK         0.0600 
    151 H151       -3.4294  -22.1210  -40.3856 H         1 UNK         0.0600 
    152 H152       -3.7686  -20.3965  -40.4228 H         1 UNK         0.0600 
    153 H153       -2.1303  -20.9690  -40.1156 H         1 UNK         0.0600 
    154 H154       -2.1707  -19.1163  -41.8803 H         1 UNK         0.3000 
    155 H155       -1.1606  -17.9868  -45.1269 H         1 UNK         0.0600 
    156 H156       -3.5281  -17.2550  -44.7572 H         1 UNK         0.0600 
    157 H157       -2.3700  -15.9947  -44.3986 H         1 UNK         0.0600 
    158 H158       -3.1493  -16.8747  -43.0844 H         1 UNK         0.0600 
    159 H159       -0.7391  -16.9737  -42.4643 H         1 UNK         0.3000 
    160 H160        2.3215  -18.7143  -41.8510 H         1 UNK         0.0600 
    161 H161        1.7599  -15.7660  -42.4700 H         1 UNK         0.0600 
    162 H162        3.0053  -16.7640  -43.2008 H         1 UNK         0.0600 
    163 H163        3.0920  -16.3748  -41.4902 H         1 UNK         0.0600 
    164 H164        0.7300  -16.7924  -40.3916 H         1 UNK         0.3000 
    165 H165       -1.2922  -19.1681  -38.7010 H         1 UNK         0.0600 
    166 H166       -0.2041  -18.3274  -36.6412 H         1 UNK         0.0600 
    167 H167        0.8599  -19.4570  -37.4633 H         1 UNK         0.0600 
    168 H168        1.1682  -17.7281  -37.5742 H         1 UNK         0.0600 
    169 H169       -0.8580  -16.4221  -38.1789 H         1 UNK         0.3000 
    170 H170       -3.7064  -15.4196  -39.3482 H         1 UNK         0.0600 
    171 H171       -2.0602  -14.8953  -37.5641 H         1 UNK         0.0600 
    172 H172       -0.9083  -14.3011  -38.7644 H         1 UNK         0.0600 
    173 H173       -2.4279  -13.4597  -38.4944 H         1 UNK         0.0600 
    174 H174       -3.5306  -14.1327  -41.1429 H         1 UNK         0.3000 
    175 H175       -2.8583  -13.6399  -43.3085 H         1 UNK         0.0600 
    176 H176       -0.7525  -11.7585  -42.0799 H         1 UNK         0.0600 
    177 H177       -1.9452  -11.3010  -43.2946 H         1 UNK         0.0600 
    178 H178       -2.4668  -11.7585  -41.6822 H         1 UNK         0.0600 
    179 H179       -0.0364  -14.1897  -43.6358 H         1 UNK         0.3000 
    180 H180        1.0067  -13.5437  -45.8553 H         1 UNK         0.0600 
    181 H181        0.3775  -15.9046  -45.2868 H         1 UNK         0.0600 
    182 H182        0.9297  -15.8329  -46.9444 H         1 UNK         0.0600 
    183 H183       -0.7956  -15.9336  -46.5990 H         1 UNK         0.0600 
    184 H184       -1.1365  -12.9930  -47.6165 H         1 UNK         0.3000 
    185 H185       -0.9760  -12.8943  -49.9046 H         1 UNK         0.0600 
    186 H186       -0.3111  -10.7382  -48.9083 H         1 UNK         0.0600 
    187 H187        1.2742  -10.8277  -49.6572 H         1 UNK         0.0600 
    188 H188       -0.1676  -10.6512  -50.6569 H         1 UNK         0.0600 
    189 H189        0.0050  -13.6944  -51.6796 H         1 UNK         0.3000 
    190 H190       -1.8715  -21.6544  -45.7668 H         1 UNK         0.3000 
    191 H191       -3.0864  -22.9167  -47.9581 H         1 UNK         0.0600 
    192 H192       -4.1024  -22.6046  -45.0867 H         1 UNK         0.0600 
    193 H193       -5.1018  -22.9887  -46.4851 H         1 UNK         0.0600 
    194 H194       -4.2928  -21.4324  -46.3877 H         1 UNK         0.0600 
    195 H195       -1.8856  -24.3607  -44.9218 H         1 UNK         0.3000 
    196 H196       -2.8782  -27.0062  -45.4379 H         1 UNK         0.0600 
    197 H197       -1.2880  -27.6544  -43.6330 H         1 UNK         0.0600 
    198 H198       -2.2317  -26.2454  -43.1709 H         1 UNK         0.0600 
    199 H199       -0.5561  -26.0555  -43.6787 H         1 UNK         0.0600 
    200 H200        0.2493  -25.3878  -46.1366 H         1 UNK         0.3000 
    201 H201        1.5324  -27.7295  -47.1758 H         1 UNK         0.0600 
    202 H202        2.7960  -25.8807  -46.1487 H         1 UNK         0.0600 
    203 H203        2.2533  -24.7613  -47.3956 H         1 UNK         0.0600 
    204 H204        3.3197  -26.0988  -47.8119 H         1 UNK         0.0600 
    205 H205        0.1414  -24.8254  -48.8065 H         1 UNK         0.3000 
    206 H206        0.7787  -25.9268  -51.4666 H         1 UNK         0.0600 
    207 H207        1.3366  -23.5730  -50.9062 H         1 UNK         0.0600 
    208 H208        0.1575  -23.6335  -52.2055 H         1 UNK         0.0600 
    209 H209       -0.3574  -23.2269  -50.5755 H         1 UNK         0.0600 
    210 H210       -1.8441  -26.1674  -49.3873 H         1 UNK         0.3000 
    211 H211       -3.8921  -26.9575  -49.5015 H         1 UNK         0.0600 
    212 H212       -3.6001  -27.4264  -52.5062 H         1 UNK         0.0600 
    213 H213       -4.7755  -28.1521  -51.4251 H         1 UNK         0.0600 
    214 H214       -3.0753  -28.5541  -51.2547 H         1 UNK         0.0600 
    215 H215       -3.0570  -24.0480  -50.6362 H         1 UNK         0.3000 
    216 H216       -5.6981  -22.9659  -50.3831 H         1 UNK         0.0600 
    217 H217       -5.6595  -21.7543  -52.5820 H         1 UNK         0.0600 
    218 H218       -5.7470  -23.4871  -52.8456 H         1 UNK         0.0600 
    219 H219       -4.2156  -22.6424  -53.0645 H         1 UNK         0.0600 
    220 H220       -5.5157  -20.7459  -49.8035 H         1 UNK         0.3000 
    221 H221       -2.9891  -20.0231  -48.6079 H         1 UNK         0.0600 
    222 H222       -5.6225  -18.4686  -48.8663 H         1 UNK         0.0600 
    223 H223       -5.1804  -19.5207  -47.5236 H         1 UNK         0.0600 
    224 H224       -4.2794  -18.0426  -47.8138 H         1 UNK         0.0600 
    225 H225       -1.7263  -18.1907  -49.0327 H         1 UNK         0.3000 
    226 H226       -1.0971  -17.5598  -51.6733 H         1 UNK         0.0600 
    227 H227        0.3055  -15.7574  -50.5737 H         1 UNK         0.0600 
    228 H228       -0.4740  -16.1232  -49.0451 H         1 UNK         0.0600 
    229 H229        0.5257  -17.3303  -49.8518 H         1 UNK         0.0600 
    230 H230       -1.8143  -16.1396  -53.0996 H         1 UNK         0.3000 
    231 H231       -2.8785  -14.5483  -54.1781 H         1 UNK         0.0600 
    232 H232       -3.5483  -12.4222  -53.1968 H         1 UNK         0.0600 
    233 H233       -2.0074  -12.8816  -52.4972 H         1 UNK         0.0600 
    234 H234       -3.4944  -13.0723  -51.5694 H         1 UNK         0.0600 
    235 H235       -4.2843  -16.8675  -52.5101 H         1 UNK         0.3000 
    236 H236       -6.9122  -16.3925  -53.7876 H         1 UNK         0.0600 
    237 H237       -7.1868  -15.9266  -51.3289 H         1 UNK         0.0600 
    238 H238       -8.0387  -17.3862  -51.8087 H         1 UNK         0.0600 
    239 H239       -6.5016  -17.5079  -50.9577 H         1 UNK         0.0600 
    240 H240       -4.5070  -17.6456  -54.6861 H         1 UNK         0.3000 
    241 H241       -4.3806  -20.3941  -54.1104 H         1 UNK         0.0600 
    242 H242       -7.0327  -20.4320  -57.1603 H         1 UNK         0.3800 
    243 H243       -6.7009  -18.9801  -56.2519 H         1 UNK         0.3800 
    244 H244       -2.6497  -20.4816  -55.8987 H         1 UNK         0.0800 
    245 H245       -3.1126  -18.8954  -56.4456 H         1 UNK         0.0800 
    246 H246       -0.4356  -20.6100  -54.9170 H         1 UNK         0.0800 
    247 H247       -1.4095  -20.9469  -53.5013 H         1 UNK         0.0800 
@<TRIPOS>BOND
     1    1    2 1    
     2    1  127 1    
     3    1  128 1    
     4    1  129 1    
     5    2    3 2    
     6    2    4 am   BACKBONE|DICT|INTERRES
     7    4    5 1    
     8    4  130 1    
     9    5    6 1    
    10    5   65 1    
    11    5  131 1    
    12    6    7 1    
    13    6  132 1    
    14    6  133 1    
    15    7    8 1    
    16    8    9 1    
    17    8  134 1    
    18    8  135 1    
    19    9   10 ar   
    20    9   14 ar   
    21   10   11 ar   
    22   10  136 1    
    23   11   12 ar   
    24   11  126 1    
    25   12   13 ar   
    26   12  137 1    
    27   13   14 ar   
    28   13   15 1    
    29   14  138 1    
    30   15   16 1    
    31   15  139 1    
    32   15  140 1    
    33   16   17 1    
    34   17   18 1    
    35   17  141 1    
    36   17  142 1    
    37   18   19 1    
    38   18   67 1    
    39   18  143 1    
    40   19   20 am   BACKBONE|DICT|INTERRES
    41   19  144 1    
    42   20   21 2    
    43   20   22 1    
    44   22   23 1    
    45   22   24 1    
    46   22  145 1    
    47   23  146 1    
    48   23  147 1    
    49   23  148 1    
    50   24   25 am   BACKBONE|DICT|INTERRES
    51   24  149 1    
    52   25   26 2    
    53   25   27 1    
    54   27   28 1    
    55   27   29 1    
    56   27  150 1    
    57   28  151 1    
    58   28  152 1    
    59   28  153 1    
    60   29   30 am   BACKBONE|DICT|INTERRES
    61   29  154 1    
    62   30   31 2    
    63   30   32 1    
    64   32   33 1    
    65   32   34 1    
    66   32  155 1    
    67   33  156 1    
    68   33  157 1    
    69   33  158 1    
    70   34   35 am   BACKBONE|DICT|INTERRES
    71   34  159 1    
    72   35   36 2    
    73   35   37 1    
    74   37   38 1    
    75   37   39 1    
    76   37  160 1    
    77   38  161 1    
    78   38  162 1    
    79   38  163 1    
    80   39   40 am   BACKBONE|DICT|INTERRES
    81   39  164 1    
    82   40   41 2    
    83   40   42 1    
    84   42   43 1    
    85   42   44 1    
    86   42  165 1    
    87   43  166 1    
    88   43  167 1    
    89   43  168 1    
    90   44   45 am   BACKBONE|DICT|INTERRES
    91   44  169 1    
    92   45   46 2    
    93   45   47 1    
    94   47   48 1    
    95   47   49 1    
    96   47  170 1    
    97   48  171 1    
    98   48  172 1    
    99   48  173 1    
   100   49   50 am   BACKBONE|DICT|INTERRES
   101   49  174 1    
   102   50   51 2    
   103   50   52 1    
   104   52   53 1    
   105   52   54 1    
   106   52  175 1    
   107   53  176 1    
   108   53  177 1    
   109   53  178 1    
   110   54   55 am   BACKBONE|DICT|INTERRES
   111   54  179 1    
   112   55   56 2    
   113   55   57 1    
   114   57   58 1    
   115   57   59 1    
   116   57  180 1    
   117   58  181 1    
   118   58  182 1    
   119   58  183 1    
   120   59   60 am   BACKBONE|DICT|INTERRES
   121   59  184 1    
   122   60   61 2    
   123   60   62 1    
   124   62   63 1    
   125   62   64 1    
   126   62  185 1    
   127   63  186 1    
   128   63  187 1    
   129   63  188 1    
   130   64   65 am   BACKBONE|DICT|INTERRES
   131   64  189 1    
   132   65   66 2    
   133   67   68 2    
   134   67   69 am   BACKBONE|DICT|INTERRES
   135   69   70 1    
   136   69  190 1    
   137   70   71 1    
   138   70   72 1    
   139   70  191 1    
   140   71  192 1    
   141   71  193 1    
   142   71  194 1    
   143   72   73 2    
   144   72   74 am   BACKBONE|DICT|INTERRES
   145   74   75 1    
   146   74  195 1    
   147   75   76 1    
   148   75   77 1    
   149   75  196 1    
   150   76  197 1    
   151   76  198 1    
   152   76  199 1    
   153   77   78 2    
   154   77   79 am   BACKBONE|DICT|INTERRES
   155   79   80 1    
   156   79  200 1    
   157   80   81 1    
   158   80   82 1    
   159   80  201 1    
   160   81  202 1    
   161   81  203 1    
   162   81  204 1    
   163   82   83 2    
   164   82   84 am   BACKBONE|DICT|INTERRES
   165   84   85 1    
   166   84  205 1    
   167   85   86 1    
   168   85   87 1    
   169   85  206 1    
   170   86  207 1    
   171   86  208 1    
   172   86  209 1    
   173   87   88 2    
   174   87   89 am   BACKBONE|DICT|INTERRES
   175   89   90 1    
   176   89  210 1    
   177   90   91 1    
   178   90   92 1    
   179   90  211 1    
   180   91  212 1    
   181   91  213 1    
   182   91  214 1    
   183   92   93 2    
   184   92   94 am   BACKBONE|DICT|INTERRES
   185   94   95 1    
   186   94  215 1    
   187   95   96 1    
   188   95   97 1    
   189   95  216 1    
   190   96  217 1    
   191   96  218 1    
   192   96  219 1    
   193   97   98 2    
   194   97   99 am   BACKBONE|DICT|INTERRES
   195   99  100 1    
   196   99  220 1    
   197  100  101 1    
   198  100  102 1    
   199  100  221 1    
   200  101  222 1    
   201  101  223 1    
   202  101  224 1    
   203  102  103 2    
   204  102  104 am   BACKBONE|DICT|INTERRES
   205  104  105 1    
   206  104  225 1    
   207  105  106 1    
   208  105  107 1    
   209  105  226 1    
   210  106  227 1    
   211  106  228 1    
   212  106  229 1    
   213  107  108 2    
   214  107  109 am   BACKBONE|DICT|INTERRES
   215  109  110 1    
   216  109  230 1    
   217  110  111 1    
   218  110  112 1    
   219  110  231 1    
   220  111  232 1    
   221  111  233 1    
   222  111  234 1    
   223  112  113 2    
   224  112  114 am   BACKBONE|DICT|INTERRES
   225  114  115 1    
   226  114  235 1    
   227  115  116 1    
   228  115  117 1    
   229  115  236 1    
   230  116  237 1    
   231  116  238 1    
   232  116  239 1    
   233  117  118 2    
   234  117  119 am   BACKBONE|DICT|INTERRES
   235  119  120 1    
   236  119  240 1    
   237  120  121 1    
   238  120  124 1    
   239  120  241 1    
   240  121  122 am   BACKBONE|DICT|INTERRES
   241  121  123 2    
   242  122  242 1    
   243  122  243 1    
   244  124  125 1    
   245  124  244 1    
   246  124  245 1    
   247  125  126 1    
   248  126  246 1    
   249  126  247 1    
@<TRIPOS>SUBSTRUCTURE
     1 UNK         1 GROUP             0       ****    0 ROOT    
