@<TRIPOS>MOLECULE
3R540
247   249    1
SMALL
USER_CHARGES


@<TRIPOS>ATOM
      1 CA          4.8483  -10.6798  -47.6784 C.3       0 UNK        -0.1800 
      2 C           3.5565  -11.1177  -47.0035 C.2       0 UNK         0.5000 
      3 O           2.7684  -10.2693  -46.5843 O.2       0 UNK        -0.5000 
      4 N           3.3467  -12.4366  -46.8917 N.am      1 UNK        -0.5000 
      5 CA          2.2008  -13.1314  -46.2843 C.3       1 UNK         0.1400 
      6 C6          0.8333  -12.8135  -46.9444 C.3       23 UNK        -0.0398 
      7 S7          0.7644  -13.4397  -48.6577 S.3       23 UNK        -0.2404 
      8 C8         -0.3849  -14.8324  -48.4524 C.3       23 UNK        -0.0205 
      9 C9         -0.2135  -15.8746  -49.5429 C.ar      23 UNK        -0.0193 
     10 C10        -0.9061  -15.7668  -50.7512 C.ar      23 UNK        -0.1150 
     11 C11        -0.7504  -16.7380  -51.7459 C.ar      23 UNK        -0.0193 
     12 C12         0.0873  -17.8335  -51.5127 C.ar      23 UNK        -0.1150 
     13 C13         0.7748  -17.9609  -50.3015 C.ar      23 UNK        -0.0193 
     14 C14         0.6329  -16.9638  -49.3304 C.ar      23 UNK        -0.1150 
     15 C15         1.6830  -19.1655  -50.0699 C.3       23 UNK        -0.0205 
     16 S16         1.6463  -19.7987  -48.3584 S.3       23 UNK        -0.2404 
     17 C17        -0.1015  -20.2934  -48.1827 C.3       23 UNK        -0.0398 
     18 CA         -0.2302  -21.5349  -47.2739 C.3       11 UNK         0.1400 
     19 N           0.1785  -21.2609  -45.8963 N.am      11 UNK        -0.5000 
     20 C           0.6376  -22.1854  -45.0442 C.2       10 UNK         0.5000 
     21 O           0.8048  -23.3684  -45.3400 O.2       10 UNK        -0.5000 
     22 CA          0.9360  -21.7078  -43.6117 C.3       10 UNK         0.1400 
     23 CB          2.3848  -21.2098  -43.5023 C.3       10 UNK        -0.1800 
     24 N           0.0183  -20.6533  -43.1736 N.am      10 UNK        -0.5000 
     25 C          -1.2819  -20.8596  -42.9169 C.2       9 UNK         0.5000 
     26 O          -1.8280  -21.9584  -43.0161 O.2       9 UNK        -0.5000 
     27 CA         -2.1287  -19.6358  -42.5241 C.3       9 UNK         0.1400 
     28 CB         -2.1074  -19.4358  -41.0028 C.3       9 UNK        -0.1800 
     29 N          -1.7261  -18.3968  -43.1922 N.am      9 UNK        -0.5000 
     30 C          -1.7675  -18.1947  -44.5171 C.2       8 UNK         0.5000 
     31 O          -2.0878  -19.0722  -45.3192 O.2       8 UNK        -0.5000 
     32 CA         -1.3561  -16.8152  -45.0671 C.3       8 UNK         0.1400 
     33 CB         -2.4990  -16.1781  -45.8833 C.3       8 UNK        -0.1800 
     34 N          -0.8213  -15.8847  -44.0652 N.am      8 UNK        -0.5000 
     35 C          -1.4719  -15.2064  -43.1085 C.2       7 UNK         0.5000 
     36 O          -2.6888  -15.2494  -42.9271 O.2       7 UNK        -0.5000 
     37 CA         -0.5671  -14.3624  -42.1884 C.3       7 UNK         0.1400 
     38 CB         -1.3048  -13.7439  -40.9824 C.3       7 UNK        -0.1800 
     39 N           0.6262  -15.1129  -41.7713 N.am      7 UNK        -0.5000 
     40 C           0.6470  -16.2203  -41.0101 C.2       6 UNK         0.5000 
     41 O          -0.3545  -16.7016  -40.4813 O.2       6 UNK        -0.5000 
     42 CA          2.0146  -16.9220  -40.8532 C.3       6 UNK         0.1400 
     43 CB          1.9005  -18.3478  -40.2731 C.3       6 UNK        -0.1800 
     44 N           2.7914  -16.9376  -42.0975 N.am      6 UNK        -0.5000 
     45 C           2.4217  -17.4750  -43.2710 C.2       5 UNK         0.5000 
     46 O           1.3590  -18.0739  -43.4395 O.2       5 UNK        -0.5000 
     47 CA          3.3735  -17.2771  -44.4641 C.3       5 UNK         0.1400 
     48 CB          2.5983  -17.1108  -45.7828 C.3       5 UNK        -0.1800 
     49 N           4.2259  -16.1064  -44.2501 N.am      5 UNK        -0.5000 
     50 C           5.5642  -16.1219  -44.2377 C.2       4 UNK         0.5000 
     51 O           6.2435  -17.1125  -44.5094 O.2       4 UNK        -0.5000 
     52 CA          6.2700  -14.8170  -43.8211 C.3       4 UNK         0.1400 
     53 CB          6.4898  -13.9130  -45.0435 C.3       4 UNK        -0.1800 
     54 N           5.5726  -14.0484  -42.7861 N.am      4 UNK        -0.5000 
     55 C           5.2302  -14.4684  -41.5613 C.2       3 UNK         0.5000 
     56 O           5.3878  -15.6240  -41.1688 O.2       3 UNK        -0.5000 
     57 CA          4.5525  -13.4444  -40.6255 C.3       3 UNK         0.1400 
     58 CB          5.5891  -12.5120  -39.9705 C.3       3 UNK        -0.1800 
     59 N           3.4587  -12.6907  -41.2556 N.am      3 UNK        -0.5000 
     60 C           3.5253  -11.8080  -42.2615 C.2       2 UNK         0.5000 
     61 O           4.5751  -11.4150  -42.7754 O.2       2 UNK        -0.5000 
     62 CA          2.1822  -11.3545  -42.8548 C.3       2 UNK         0.1400 
     63 CB          2.0028   -9.8347  -42.7266 C.3       2 UNK        -0.1800 
     64 N           2.0999  -11.7322  -44.2647 N.am      2 UNK        -0.5000 
     65 C           2.1467  -12.9788  -44.7505 C.2       1 UNK         0.5000 
     66 O           2.1705  -13.9898  -44.0416 O.2       1 UNK        -0.5000 
     67 C          -1.6488  -22.1297  -47.3074 C.2       11 UNK         0.5000 
     68 O          -1.8793  -23.0731  -48.0595 O.2       11 UNK        -0.5000 
     69 N          -2.5579  -21.6297  -46.4569 N.am      12 UNK        -0.5000 
     70 CA         -3.9142  -22.1595  -46.2833 C.3       12 UNK         0.1400 
     71 CB         -4.7075  -21.2449  -45.3400 C.3       12 UNK        -0.1800 
     72 C          -3.9320  -23.6139  -45.7731 C.2       12 UNK         0.5000 
     73 O          -4.7773  -24.3981  -46.2040 O.2       12 UNK        -0.5000 
     74 N          -2.9605  -23.9724  -44.9206 N.am      13 UNK        -0.5000 
     75 CA         -2.7066  -25.3430  -44.4647 C.3       13 UNK         0.1400 
     76 CB         -1.6730  -25.3126  -43.3289 C.3       13 UNK        -0.1800 
     77 C          -2.2486  -26.2974  -45.5900 C.2       13 UNK         0.5000 
     78 O          -2.4069  -27.5106  -45.4524 O.2       13 UNK        -0.5000 
     79 N          -1.7235  -25.7379  -46.6878 N.am      14 UNK        -0.5000 
     80 CA         -1.3563  -26.4332  -47.9219 C.3       14 UNK         0.1400 
     81 CB          0.0496  -25.9700  -48.3437 C.3       14 UNK        -0.1800 
     82 C          -2.4000  -26.1854  -49.0342 C.2       14 UNK         0.5000 
     83 O          -2.0815  -26.3403  -50.2148 O.2       14 UNK        -0.5000 
     84 N          -3.6210  -25.7886  -48.6427 N.am      15 UNK        -0.5000 
     85 CA         -4.7869  -25.4208  -49.4508 C.3       15 UNK         0.1400 
     86 CB         -5.2277  -26.5648  -50.3840 C.3       15 UNK        -0.1800 
     87 C          -4.6228  -24.0895  -50.2055 C.2       15 UNK         0.5000 
     88 O          -5.4559  -23.1989  -50.0290 O.2       15 UNK        -0.5000 
     89 N          -3.5693  -23.9789  -51.0275 N.am      16 UNK        -0.5000 
     90 CA         -3.2046  -22.8347  -51.8705 C.3       16 UNK         0.1400 
     91 CB         -2.5905  -21.7059  -51.0173 C.3       16 UNK        -0.1800 
     92 C          -4.3777  -22.3719  -52.7561 C.2       16 UNK         0.5000 
     93 O          -4.6808  -23.0377  -53.7463 O.2       16 UNK        -0.5000 
     94 N          -5.0451  -21.2738  -52.3789 N.am      17 UNK        -0.5000 
     95 CA         -6.2300  -20.7372  -53.0515 C.3       17 UNK         0.1400 
     96 CB         -6.6473  -19.4266  -52.3700 C.3       17 UNK        -0.1800 
     97 C          -7.4116  -21.7270  -53.1111 C.2       17 UNK         0.5000 
     98 O          -8.1587  -21.7138  -54.0895 O.2       17 UNK        -0.5000 
     99 N          -7.5265  -22.6132  -52.1097 N.am      18 UNK        -0.5000 
    100 CA        -8.5093  -23.7015  -52.0813 C.3       18 UNK         0.1400 
    101 CB        -8.6444  -24.2320  -50.6459 C.3       18 UNK        -0.1800 
    102 C         -8.1847  -24.8447  -53.0679 C.2       18 UNK         0.5000 
    103 O         -9.0794  -25.6227  -53.3990 O.2       18 UNK        -0.5000 
    104 N         -6.9327  -24.9098  -53.5427 N.am      19 UNK        -0.5000 
    105 CA        -6.4645  -25.8007  -54.6071 C.3       19 UNK         0.1400 
    106 CB        -5.1419  -26.4531  -54.1678 C.3       19 UNK        -0.1800 
    107 C         -6.3178  -25.0518  -55.9504 C.2       19 UNK         0.5000 
    108 O         -5.6844  -25.5726  -56.8695 O.2       19 UNK        -0.5000 
    109 N         -6.9110  -23.8514  -56.0441 N.am      20 UNK        -0.5000 
    110 CA        -6.9546  -22.9575  -57.2041 C.3       20 UNK         0.1400 
    111 CB        -7.6652  -23.6259  -58.4008 C.3       20 UNK        -0.1800 
    112 C         -5.5957  -22.3287  -57.5793 C.2       20 UNK         0.5000 
    113 O         -5.4097  -21.9338  -58.7326 O.2       20 UNK        -0.5000 
    114 N         -4.6841  -22.1946  -56.6041 N.am      21 UNK        -0.5000 
    115 CA        -3.4883  -21.3545  -56.7187 C.3       21 UNK         0.1400 
    116 CB        -2.4011  -21.8674  -55.7560 C.3       21 UNK        -0.1800 
    117 C         -3.8341  -19.8702  -56.4587 C.2       21 UNK         0.5000 
    118 O         -5.0083  -19.5192  -56.3177 O.2       21 UNK        -0.5000 
    119 N         -2.8010  -19.0200  -56.4039 N.am      22 UNK        -0.5000 
    120 CA        -2.8926  -17.5616  -56.1855 C.3       22 UNK         0.1400 
    121 C         -3.4875  -16.7594  -57.3860 C.2       22 UNK         0.5000 
    122 N         -3.6124  -17.3361  -58.5752 N.am      22 UNK        -0.7600 
    123 O         -3.8093  -15.5816  -57.2531 O.2       22 UNK        -0.5000 
    124 C124       -3.5539  -17.1681  -54.8296 C.3       23 UNK        -0.0398 
    125 S125       -2.7122  -17.8683  -53.3680 S.3       23 UNK        -0.2404 
    126 C126       -1.4557  -16.5806  -53.0847 C.3       23 UNK        -0.0205 
    127 H127        5.4528  -11.5318  -47.9905 H         1 UNK         0.0600 
    128 H128        5.4421  -10.0753  -46.9928 H         1 UNK         0.0600 
    129 H129        4.6256  -10.0790  -48.5601 H         1 UNK         0.0600 
    130 H130        4.0491  -13.0559  -47.2701 H         1 UNK         0.3000 
    131 H131        2.4013  -14.1879  -46.4608 H         1 UNK         0.0600 
    132 H132        0.0136  -13.2501  -46.3706 H         1 UNK         0.0800 
    133 H133        0.6395  -11.7406  -46.9582 H         1 UNK         0.0800 
    134 H134       -1.4103  -14.4598  -48.4416 H         1 UNK         0.0800 
    135 H135       -0.2116  -15.3019  -47.4842 H         1 UNK         0.0800 
    136 H136       -1.5540  -14.9180  -50.9198 H         1 UNK         0.1150 
    137 H137        0.2043  -18.5850  -52.2810 H         1 UNK         0.1150 
    138 H138        1.1749  -17.0378  -48.3988 H         1 UNK         0.1150 
    139 H139        2.7064  -18.8782  -50.3135 H         1 UNK         0.0800 
    140 H140        1.4198  -19.9794  -50.7474 H         1 UNK         0.0800 
    141 H141       -0.5052  -20.5003  -49.1744 H         1 UNK         0.0800 
    142 H142       -0.6727  -19.4523  -47.7856 H         1 UNK         0.0800 
    143 H143        0.4335  -22.3019  -47.6806 H         1 UNK         0.0600 
    144 H144        0.0403  -20.3190  -45.5602 H         1 UNK         0.3000 
    145 H145        0.8177  -22.5617  -42.9411 H         1 UNK         0.0600 
    146 H146        3.0883  -22.0158  -43.7138 H         1 UNK         0.0600 
    147 H147        2.6036  -20.8393  -42.5006 H         1 UNK         0.0600 
    148 H148        2.5878  -20.4072  -44.2117 H         1 UNK         0.0600 
    149 H149        0.3915  -19.7084  -43.1234 H         1 UNK         0.3000 
    150 H150       -3.1595  -19.8392  -42.8179 H         1 UNK         0.0600 
    151 H151       -1.0957  -19.2700  -40.6332 H         1 UNK         0.0600 
    152 H152       -2.5017  -20.3137  -40.4897 H         1 UNK         0.0600 
    153 H153       -2.7177  -18.5827  -40.7056 H         1 UNK         0.0600 
    154 H154       -1.4106  -17.6427  -42.5983 H         1 UNK         0.3000 
    155 H155       -0.5309  -17.0078  -45.7533 H         1 UNK         0.0600 
    156 H156       -3.4300  -16.1439  -45.3166 H         1 UNK         0.0600 
    157 H157       -2.6943  -16.7526  -46.7897 H         1 UNK         0.0600 
    158 H158       -2.2590  -15.1594  -46.1848 H         1 UNK         0.0600 
    159 H159        0.1861  -15.8117  -44.0591 H         1 UNK         0.3000 
    160 H160       -0.2159  -13.5348  -42.8040 H         1 UNK         0.0600 
    161 H161       -1.7657  -14.5020  -40.3491 H         1 UNK         0.0600 
    162 H162       -2.0995  -13.0758  -41.3162 H         1 UNK         0.0600 
    163 H163       -0.6261  -13.1568  -40.3641 H         1 UNK         0.0600 
    164 H164        1.4826  -14.8406  -42.2389 H         1 UNK         0.3000 
    165 H165        2.5829  -16.3219  -40.1414 H         1 UNK         0.0600 
    166 H166        1.4170  -18.3368  -39.2957 H         1 UNK         0.0600 
    167 H167        1.3181  -19.0051  -40.9185 H         1 UNK         0.0600 
    168 H168        2.8846  -18.7975  -40.1416 H         1 UNK         0.0600 
    169 H169        3.7087  -16.5097  -42.0404 H         1 UNK         0.3000 
    170 H170        3.9740  -18.1859  -44.5331 H         1 UNK         0.0600 
    171 H171        3.2716  -16.9271  -46.6201 H         1 UNK         0.0600 
    172 H172        1.8874  -16.2877  -45.7309 H         1 UNK         0.0600 
    173 H173        2.0320  -18.0128  -46.0146 H         1 UNK         0.0600 
    174 H174        3.7394  -15.2452  -44.0236 H         1 UNK         0.3000 
    175 H175        7.2469  -15.0905  -43.4179 H         1 UNK         0.0600 
    176 H176        7.0161  -14.4449  -45.8372 H         1 UNK         0.0600 
    177 H177        5.5440  -13.5592  -45.4532 H         1 UNK         0.0600 
    178 H178        7.0890  -13.0396  -44.7854 H         1 UNK         0.0600 
    179 H179        5.3739  -13.0740  -43.0002 H         1 UNK         0.3000 
    180 H180        4.0861  -14.0190  -39.8235 H         1 UNK         0.0600 
    181 H181        6.1345  -11.9201  -40.7057 H         1 UNK         0.0600 
    182 H182        6.3259  -13.0871  -39.4085 H         1 UNK         0.0600 
    183 H183        5.1133  -11.8235  -39.2722 H         1 UNK         0.0600 
    184 H184        2.5392  -12.9348  -40.9170 H         1 UNK         0.3000 
    185 H185        1.3661  -11.8412  -42.3189 H         1 UNK         0.0600 
    186 H186        2.0574   -9.5213  -41.6833 H         1 UNK         0.0600 
    187 H187        2.7731   -9.2906  -43.2751 H         1 UNK         0.0600 
    188 H188        1.0328   -9.5190  -43.1113 H         1 UNK         0.0600 
    189 H189        2.1738  -10.9763  -44.9407 H         1 UNK         0.3000 
    190 H190       -2.3174  -20.8096  -45.9047 H         1 UNK         0.3000 
    191 H191       -4.4003  -22.1464  -47.2614 H         1 UNK         0.0600 
    192 H192       -4.7218  -20.2170  -45.7031 H         1 UNK         0.0600 
    193 H193       -5.7433  -21.5762  -45.2568 H         1 UNK         0.0600 
    194 H194       -4.2833  -21.2418  -44.3364 H         1 UNK         0.0600 
    195 H195       -2.3495  -23.2524  -44.5497 H         1 UNK         0.3000 
    196 H196       -3.6413  -25.7396  -44.0631 H         1 UNK         0.0600 
    197 H197       -1.4772  -26.3163  -42.9496 H         1 UNK         0.0600 
    198 H198       -2.0264  -24.7127  -42.4901 H         1 UNK         0.0600 
    199 H199       -0.7223  -24.8957  -43.6617 H         1 UNK         0.0600 
    200 H200       -1.6683  -24.7275  -46.7371 H         1 UNK         0.3000 
    201 H201       -1.3204  -27.5109  -47.7526 H         1 UNK         0.0600 
    202 H202        0.4022  -26.5238  -49.2145 H         1 UNK         0.0600 
    203 H203        0.7730  -26.1300  -47.5440 H         1 UNK         0.0600 
    204 H204        0.0647  -24.9101  -48.5995 H         1 UNK         0.0600 
    205 H205       -3.7517  -25.6307  -47.6510 H         1 UNK         0.3000 
    206 H206       -5.5958  -25.2676  -48.7348 H         1 UNK         0.0600 
    207 H207       -5.4574  -27.4664  -49.8165 H         1 UNK         0.0600 
    208 H208       -6.1246  -26.2954  -50.9415 H         1 UNK         0.0600 
    209 H209       -4.4598  -26.8180  -51.1136 H         1 UNK         0.0600 
    210 H210       -2.9432  -24.7776  -51.0661 H         1 UNK         0.3000 
    211 H211       -2.4311  -23.1867  -52.5545 H         1 UNK         0.0600 
    212 H212       -1.6569  -22.0420  -50.5679 H         1 UNK         0.0600 
    213 H213       -2.3548  -20.8299  -51.6236 H         1 UNK         0.0600 
    214 H214       -3.2507  -21.3898  -50.2088 H         1 UNK         0.0600 
    215 H215       -4.7555  -20.8061  -51.5326 H         1 UNK         0.3000 
    216 H216       -5.9477  -20.5108  -54.0801 H         1 UNK         0.0600 
    217 H217       -6.9086  -19.5832  -51.3227 H         1 UNK         0.0600 
    218 H218       -7.5151  -18.9885  -52.8648 H         1 UNK         0.0600 
    219 H219       -5.8450  -18.6893  -52.4115 H         1 UNK         0.0600 
    220 H220       -6.8491  -22.5921  -51.3525 H         1 UNK         0.3000 
    221 H221       -9.4777  -23.2906  -52.3746 H         1 UNK         0.0600 
    222 H222       -7.7146  -24.6668  -50.2835 H         1 UNK         0.0600 
    223 H223       -8.9313  -23.4368  -49.9577 H         1 UNK         0.0600 
    224 H224       -9.4114  -25.0051  -50.5860 H         1 UNK         0.0600 
    225 H225       -6.2648  -24.2010  -53.2601 H         1 UNK         0.3000 
    226 H226       -7.1884  -26.6001  -54.7762 H         1 UNK         0.0600 
    227 H227       -5.2919  -27.0730  -53.2855 H         1 UNK         0.0600 
    228 H228       -4.7412  -27.1044  -54.9452 H         1 UNK         0.0600 
    229 H229       -4.3788  -25.7100  -53.9351 H         1 UNK         0.0600 
    230 H230       -7.3898  -23.5006  -55.2247 H         1 UNK         0.3000 
    231 H231       -7.5788  -22.1182  -56.8941 H         1 UNK         0.0600 
    232 H232       -7.0652  -24.4256  -58.8355 H         1 UNK         0.0600 
    233 H233       -7.8631  -22.9022  -59.1922 H         1 UNK         0.0600 
    234 H234       -8.6254  -24.0483  -58.1044 H         1 UNK         0.0600 
    235 H235       -4.8981  -22.5433  -55.6755 H         1 UNK         0.3000 
    236 H236       -3.0977  -21.4347  -57.7351 H         1 UNK         0.0600 
    237 H237       -2.5692  -21.5277  -54.7351 H         1 UNK         0.0600 
    238 H238       -2.3528  -22.9566  -55.7473 H         1 UNK         0.0600 
    239 H239       -1.4166  -21.5057  -56.0535 H         1 UNK         0.0600 
    240 H240       -1.8665  -19.3800  -56.5330 H         1 UNK         0.3000 
    241 H241       -1.8577  -17.2221  -56.1372 H         1 UNK         0.0600 
    242 H242       -3.9862  -16.8053  -59.3466 H         1 UNK         0.3800 
    243 H243       -3.3457  -18.2977  -58.7117 H         1 UNK         0.3800 
    244 H244       -4.5969  -17.4843  -54.8035 H         1 UNK         0.0800 
    245 H245       -3.5829  -16.0836  -54.7153 H         1 UNK         0.0800 
    246 H246       -0.7159  -16.6182  -53.8854 H         1 UNK         0.0800 
    247 H247       -1.9242  -15.5971  -53.1450 H         1 UNK         0.0800 
@<TRIPOS>BOND
     1    1    2 1    
     2    1  127 1    
     3    1  128 1    
     4    1  129 1    
     5    2    3 2    
     6    2    4 am   BACKBONE|DICT|INTERRES
     7    4    5 1    
     8    4  130 1    
     9    5    6 1    
    10    5   65 1    
    11    5  131 1    
    12    6    7 1    
    13    6  132 1    
    14    6  133 1    
    15    7    8 1    
    16    8    9 1    
    17    8  134 1    
    18    8  135 1    
    19    9   10 ar   
    20    9   14 ar   
    21   10   11 ar   
    22   10  136 1    
    23   11   12 ar   
    24   11  126 1    
    25   12   13 ar   
    26   12  137 1    
    27   13   14 ar   
    28   13   15 1    
    29   14  138 1    
    30   15   16 1    
    31   15  139 1    
    32   15  140 1    
    33   16   17 1    
    34   17   18 1    
    35   17  141 1    
    36   17  142 1    
    37   18   19 1    
    38   18   67 1    
    39   18  143 1    
    40   19   20 am   BACKBONE|DICT|INTERRES
    41   19  144 1    
    42   20   21 2    
    43   20   22 1    
    44   22   23 1    
    45   22   24 1    
    46   22  145 1    
    47   23  146 1    
    48   23  147 1    
    49   23  148 1    
    50   24   25 am   BACKBONE|DICT|INTERRES
    51   24  149 1    
    52   25   26 2    
    53   25   27 1    
    54   27   28 1    
    55   27   29 1    
    56   27  150 1    
    57   28  151 1    
    58   28  152 1    
    59   28  153 1    
    60   29   30 am   BACKBONE|DICT|INTERRES
    61   29  154 1    
    62   30   31 2    
    63   30   32 1    
    64   32   33 1    
    65   32   34 1    
    66   32  155 1    
    67   33  156 1    
    68   33  157 1    
    69   33  158 1    
    70   34   35 am   BACKBONE|DICT|INTERRES
    71   34  159 1    
    72   35   36 2    
    73   35   37 1    
    74   37   38 1    
    75   37   39 1    
    76   37  160 1    
    77   38  161 1    
    78   38  162 1    
    79   38  163 1    
    80   39   40 am   BACKBONE|DICT|INTERRES
    81   39  164 1    
    82   40   41 2    
    83   40   42 1    
    84   42   43 1    
    85   42   44 1    
    86   42  165 1    
    87   43  166 1    
    88   43  167 1    
    89   43  168 1    
    90   44   45 am   BACKBONE|DICT|INTERRES
    91   44  169 1    
    92   45   46 2    
    93   45   47 1    
    94   47   48 1    
    95   47   49 1    
    96   47  170 1    
    97   48  171 1    
    98   48  172 1    
    99   48  173 1    
   100   49   50 am   BACKBONE|DICT|INTERRES
   101   49  174 1    
   102   50   51 2    
   103   50   52 1    
   104   52   53 1    
   105   52   54 1    
   106   52  175 1    
   107   53  176 1    
   108   53  177 1    
   109   53  178 1    
   110   54   55 am   BACKBONE|DICT|INTERRES
   111   54  179 1    
   112   55   56 2    
   113   55   57 1    
   114   57   58 1    
   115   57   59 1    
   116   57  180 1    
   117   58  181 1    
   118   58  182 1    
   119   58  183 1    
   120   59   60 am   BACKBONE|DICT|INTERRES
   121   59  184 1    
   122   60   61 2    
   123   60   62 1    
   124   62   63 1    
   125   62   64 1    
   126   62  185 1    
   127   63  186 1    
   128   63  187 1    
   129   63  188 1    
   130   64   65 am   BACKBONE|DICT|INTERRES
   131   64  189 1    
   132   65   66 2    
   133   67   68 2    
   134   67   69 am   BACKBONE|DICT|INTERRES
   135   69   70 1    
   136   69  190 1    
   137   70   71 1    
   138   70   72 1    
   139   70  191 1    
   140   71  192 1    
   141   71  193 1    
   142   71  194 1    
   143   72   73 2    
   144   72   74 am   BACKBONE|DICT|INTERRES
   145   74   75 1    
   146   74  195 1    
   147   75   76 1    
   148   75   77 1    
   149   75  196 1    
   150   76  197 1    
   151   76  198 1    
   152   76  199 1    
   153   77   78 2    
   154   77   79 am   BACKBONE|DICT|INTERRES
   155   79   80 1    
   156   79  200 1    
   157   80   81 1    
   158   80   82 1    
   159   80  201 1    
   160   81  202 1    
   161   81  203 1    
   162   81  204 1    
   163   82   83 2    
   164   82   84 am   BACKBONE|DICT|INTERRES
   165   84   85 1    
   166   84  205 1    
   167   85   86 1    
   168   85   87 1    
   169   85  206 1    
   170   86  207 1    
   171   86  208 1    
   172   86  209 1    
   173   87   88 2    
   174   87   89 am   BACKBONE|DICT|INTERRES
   175   89   90 1    
   176   89  210 1    
   177   90   91 1    
   178   90   92 1    
   179   90  211 1    
   180   91  212 1    
   181   91  213 1    
   182   91  214 1    
   183   92   93 2    
   184   92   94 am   BACKBONE|DICT|INTERRES
   185   94   95 1    
   186   94  215 1    
   187   95   96 1    
   188   95   97 1    
   189   95  216 1    
   190   96  217 1    
   191   96  218 1    
   192   96  219 1    
   193   97   98 2    
   194   97   99 am   BACKBONE|DICT|INTERRES
   195   99  100 1    
   196   99  220 1    
   197  100  101 1    
   198  100  102 1    
   199  100  221 1    
   200  101  222 1    
   201  101  223 1    
   202  101  224 1    
   203  102  103 2    
   204  102  104 am   BACKBONE|DICT|INTERRES
   205  104  105 1    
   206  104  225 1    
   207  105  106 1    
   208  105  107 1    
   209  105  226 1    
   210  106  227 1    
   211  106  228 1    
   212  106  229 1    
   213  107  108 2    
   214  107  109 am   BACKBONE|DICT|INTERRES
   215  109  110 1    
   216  109  230 1    
   217  110  111 1    
   218  110  112 1    
   219  110  231 1    
   220  111  232 1    
   221  111  233 1    
   222  111  234 1    
   223  112  113 2    
   224  112  114 am   BACKBONE|DICT|INTERRES
   225  114  115 1    
   226  114  235 1    
   227  115  116 1    
   228  115  117 1    
   229  115  236 1    
   230  116  237 1    
   231  116  238 1    
   232  116  239 1    
   233  117  118 2    
   234  117  119 am   BACKBONE|DICT|INTERRES
   235  119  120 1    
   236  119  240 1    
   237  120  121 1    
   238  120  124 1    
   239  120  241 1    
   240  121  122 am   BACKBONE|DICT|INTERRES
   241  121  123 2    
   242  122  242 1    
   243  122  243 1    
   244  124  125 1    
   245  124  244 1    
   246  124  245 1    
   247  125  126 1    
   248  126  246 1    
   249  126  247 1    
@<TRIPOS>SUBSTRUCTURE
     1 UNK         1 GROUP             0       ****    0 ROOT    
