@<TRIPOS>MOLECULE
3R540
247   249    1
SMALL
USER_CHARGES


@<TRIPOS>ATOM
      1 CA         -5.7082  -14.4805  -47.3320 C.3       0 UNK        -0.1800 
      2 C          -4.7053  -13.6921  -48.1621 C.2       0 UNK         0.5000 
      3 O          -5.0902  -12.7514  -48.8557 O.2       0 UNK        -0.5000 
      4 N          -3.4215  -14.0669  -48.0924 N.am      1 UNK        -0.5000 
      5 CA         -2.3182  -13.3512  -48.7498 C.3       1 UNK         0.1400 
      6 C6         -1.0896  -14.2614  -48.9942 C.3       23 UNK        -0.0398 
      7 S7         -1.4037  -15.6354  -50.1478 S.3       23 UNK        -0.2404 
      8 C8          0.2701  -15.9019  -50.8173 C.3       23 UNK        -0.0205 
      9 C9          0.6488  -17.3744  -50.8451 C.ar      23 UNK        -0.0193 
     10 C10         0.1502  -18.2040  -51.8514 C.ar      23 UNK        -0.1150 
     11 C11         0.5445  -19.5422  -51.9365 C.ar      23 UNK        -0.0193 
     12 C12         1.4224  -20.0565  -50.9781 C.ar      23 UNK        -0.1150 
     13 C13         1.9136  -19.2450  -49.9512 C.ar      23 UNK        -0.0193 
     14 C14         1.5290  -17.9017  -49.8943 C.ar      23 UNK        -0.1150 
     15 C15         2.8799  -19.8159  -48.9212 C.3       23 UNK        -0.0205 
     16 S16         2.0824  -20.1198  -47.3126 S.3       23 UNK        -0.2404 
     17 C17         0.8251  -21.3721  -47.7405 C.3       23 UNK        -0.0398 
     18 CA          0.6927  -22.5085  -46.6967 C.3       11 UNK         0.1400 
     19 N           0.5494  -22.0235  -45.3183 N.am      11 UNK        -0.5000 
     20 C           0.6572  -22.7896  -44.2220 C.2       10 UNK         0.5000 
     21 O           0.9662  -23.9802  -44.2530 O.2       10 UNK        -0.5000 
     22 CA          0.3185  -22.1314  -42.8702 C.3       10 UNK         0.1400 
     23 CB          1.5701  -21.5187  -42.2271 C.3       10 UNK        -0.1800 
     24 N          -0.7210  -21.1093  -43.0065 N.am      10 UNK        -0.5000 
     25 C          -2.0149  -21.3963  -43.2250 C.2       9 UNK         0.5000 
     26 O          -2.4649  -22.5420  -43.2190 O.2       9 UNK        -0.5000 
     27 CA         -2.9597  -20.2218  -43.5479 C.3       9 UNK         0.1400 
     28 CB         -3.6981  -19.7648  -42.2824 C.3       9 UNK        -0.1800 
     29 N          -2.2599  -19.0924  -44.1682 N.am      9 UNK        -0.5000 
     30 C          -1.7267  -19.1425  -45.3997 C.2       8 UNK         0.5000 
     31 O          -1.8759  -20.1118  -46.1444 O.2       8 UNK        -0.5000 
     32 CA         -0.8081  -17.9866  -45.8424 C.3       8 UNK         0.1400 
     33 CB         -0.9001  -17.6593  -47.3427 C.3       8 UNK        -0.1800 
     34 N          -0.8999  -16.8034  -44.9840 N.am      8 UNK        -0.5000 
     35 C          -1.8216  -15.8305  -44.9791 C.2       7 UNK         0.5000 
     36 O          -2.6744  -15.6776  -45.8535 O.2       7 UNK        -0.5000 
     37 CA         -1.7550  -14.8297  -43.8039 C.3       7 UNK         0.1400 
     38 CB         -3.1513  -14.3470  -43.3594 C.3       7 UNK        -0.1800 
     39 N          -0.9543  -15.3035  -42.6654 N.am      7 UNK        -0.5000 
     40 C          -1.2348  -16.3458  -41.8692 C.2       6 UNK         0.5000 
     41 O          -2.2561  -17.0209  -41.9813 O.2       6 UNK        -0.5000 
     42 CA         -0.1493  -16.7474  -40.8488 C.3       6 UNK         0.1400 
     43 CB         -0.4938  -18.0449  -40.0867 C.3       6 UNK        -0.1800 
     44 N           1.1772  -16.8594  -41.4658 N.am      6 UNK        -0.5000 
     45 C           1.5381  -17.6352  -42.4977 C.2       5 UNK         0.5000 
     46 O           0.7590  -18.4004  -43.0711 O.2       5 UNK        -0.5000 
     47 CA          2.9978  -17.4988  -42.9943 C.3       5 UNK         0.1400 
     48 CB          3.2233  -18.1995  -44.3469 C.3       5 UNK        -0.1800 
     49 N           3.4242  -16.1040  -43.1378 N.am      5 UNK        -0.5000 
     50 C           3.7292  -15.2463  -42.1540 C.2       4 UNK         0.5000 
     51 O           3.7196  -15.5522  -40.9612 O.2       4 UNK        -0.5000 
     52 CA          4.0513  -13.7937  -42.5643 C.3       4 UNK         0.1400 
     53 CB          5.5704  -13.5657  -42.5792 C.3       4 UNK        -0.1800 
     54 N           3.4972  -13.4055  -43.8670 N.am      4 UNK        -0.5000 
     55 C           2.1910  -13.3349  -44.1561 C.2       3 UNK         0.5000 
     56 O           1.2974  -13.5947  -43.3459 O.2       3 UNK        -0.5000 
     57 CA          1.8426  -12.9926  -45.6170 C.3       3 UNK         0.1400 
     58 CB          2.0643  -14.2230  -46.5151 C.3       3 UNK        -0.1800 
     59 N           0.4541  -12.5683  -45.7728 N.am      3 UNK        -0.5000 
     60 C          -0.0732  -11.4020  -45.3745 C.2       2 UNK         0.5000 
     61 O           0.5855  -10.4967  -44.8607 O.2       2 UNK        -0.5000 
     62 CA         -1.5999  -11.2377  -45.5807 C.3       2 UNK         0.1400 
     63 CB         -2.0201   -9.7738  -45.8270 C.3       2 UNK        -0.1800 
     64 N          -2.1427  -12.1373  -46.6126 N.am      2 UNK        -0.5000 
     65 C          -1.8603  -12.1275  -47.9269 C.2       1 UNK         0.5000 
     66 O          -1.2050  -11.2460  -48.4824 O.2       1 UNK        -0.5000 
     67 C          -0.4873  -23.4278  -47.0681 C.2       11 UNK         0.5000 
     68 O          -0.2837  -24.4820  -47.6710 O.2       11 UNK        -0.5000 
     69 N          -1.6994  -23.0413  -46.6427 N.am      12 UNK        -0.5000 
     70 CA         -2.9577  -23.7553  -46.8688 C.3       12 UNK         0.1400 
     71 CB         -4.1272  -22.8774  -46.3987 C.3       12 UNK        -0.1800 
     72 C          -3.0339  -25.1680  -46.2496 C.2       12 UNK         0.5000 
     73 O          -3.9577  -25.9103  -46.5795 O.2       12 UNK        -0.5000 
     74 N          -2.0622  -25.5401  -45.4039 N.am      13 UNK        -0.5000 
     75 CA         -1.8462  -26.9155  -44.9532 C.3       13 UNK         0.1400 
     76 CB         -0.8734  -26.9138  -43.7650 C.3       13 UNK        -0.1800 
     77 C          -1.3235  -27.8280  -46.0840 C.2       13 UNK         0.5000 
     78 O          -1.6799  -29.0063  -46.1194 O.2       13 UNK        -0.5000 
     79 N          -0.5083  -27.2698  -46.9919 N.am      14 UNK        -0.5000 
     80 CA         -0.0387  -27.9318  -48.2116 C.3       14 UNK         0.1400 
     81 CB          1.3669  -27.4200  -48.5638 C.3       14 UNK        -0.1800 
     82 C          -1.0177  -27.7100  -49.3802 C.2       14 UNK         0.5000 
     83 O          -1.2032  -28.6197  -50.1883 O.2       14 UNK        -0.5000 
     84 N          -1.6472  -26.5251  -49.4099 N.am      15 UNK        -0.5000 
     85 CA         -2.7308  -26.0969  -50.2985 C.3       15 UNK         0.1400 
     86 CB         -3.9999  -26.9332  -50.0234 C.3       15 UNK        -0.1800 
     87 C          -2.3621  -26.0954  -51.8062 C.2       15 UNK         0.5000 
     88 O          -2.7920  -27.0045  -52.5158 O.2       15 UNK        -0.5000 
     89 N          -1.6100  -25.1296  -52.3656 N.am      16 UNK        -0.5000 
     90 CA         -0.9123  -23.9531  -51.8254 C.3       16 UNK         0.1400 
     91 CB          0.4021  -24.3640  -51.1360 C.3       16 UNK        -0.1800 
     92 C          -1.7717  -22.9869  -50.9859 C.2       16 UNK         0.5000 
     93 O          -1.2874  -22.4451  -49.9952 O.2       16 UNK        -0.5000 
     94 N          -3.0491  -22.8314  -51.3549 N.am      17 UNK        -0.5000 
     95 CA         -4.0266  -22.0681  -50.5801 C.3       17 UNK         0.1400 
     96 CB         -5.4436  -22.4627  -51.0234 C.3       17 UNK        -0.1800 
     97 C          -3.8006  -20.5460  -50.6491 C.2       17 UNK         0.5000 
     98 O          -3.2405  -20.0355  -51.6218 O.2       17 UNK        -0.5000 
     99 N          -4.2585  -19.8543  -49.5990 N.am      18 UNK        -0.5000 
    100 CA        -4.1442  -18.4081  -49.4248 C.3       18 UNK         0.1400 
    101 CB        -4.6097  -18.0549  -48.0035 C.3       18 UNK        -0.1800 
    102 C         -4.9354  -17.6023  -50.4750 C.2       18 UNK         0.5000 
    103 O         -5.8384  -18.1368  -51.1218 O.2       18 UNK        -0.5000 
    104 N         -4.5750  -16.3187  -50.6055 N.am      19 UNK        -0.5000 
    105 CA        -5.0782  -15.3510  -51.5876 C.3       19 UNK         0.1400 
    106 CB        -6.5889  -15.0892  -51.4083 C.3       19 UNK        -0.1800 
    107 C         -4.6858  -15.7287  -53.0318 C.2       19 UNK         0.5000 
    108 O         -5.4873  -15.5748  -53.9547 O.2       19 UNK        -0.5000 
    109 N         -3.4433  -16.2136  -53.1879 N.am      20 UNK        -0.5000 
    110 CA        -2.7897  -16.6082  -54.4429 C.3       20 UNK         0.1400 
    111 CB        -2.6273  -15.3968  -55.3847 C.3       20 UNK        -0.1800 
    112 C         -3.4308  -17.8253  -55.1445 C.2       20 UNK         0.5000 
    113 O         -3.2113  -18.0256  -56.3406 O.2       20 UNK        -0.5000 
    114 N         -4.1742  -18.6510  -54.3969 N.am      21 UNK        -0.5000 
    115 CA        -4.8148  -19.8790  -54.8709 C.3       21 UNK         0.1400 
    116 CB        -6.0830  -20.1248  -54.0364 C.3       21 UNK        -0.1800 
    117 C         -3.8315  -21.0696  -54.8541 C.2       21 UNK         0.5000 
    118 O         -4.1196  -22.1175  -54.2728 O.2       21 UNK        -0.5000 
    119 N         -2.6666  -20.8769  -55.4824 N.am      22 UNK        -0.5000 
    120 CA        -1.5544  -21.8379  -55.5084 C.3       22 UNK         0.1400 
    121 C         -1.7569  -23.0572  -56.4539 C.2       22 UNK         0.5000 
    122 N         -2.7554  -23.0670  -57.3281 N.am      22 UNK        -0.7600 
    123 O         -0.9983  -24.0196  -56.3801 O.2       22 UNK        -0.5000 
    124 C124       -0.1929  -21.1447  -55.7825 C.3       23 UNK        -0.0398 
    125 S125        0.1831  -19.7142  -54.7062 S.3       23 UNK        -0.2404 
    126 C126        0.0164  -20.4439  -53.0445 C.3       23 UNK        -0.0205 
    127 H127       -5.2190  -15.0532  -46.5442 H         1 UNK         0.0600 
    128 H128       -6.2617  -15.1718  -47.9671 H         1 UNK         0.0600 
    129 H129       -6.4207  -13.8044  -46.8596 H         1 UNK         0.0600 
    130 H130       -3.1575  -14.8211  -47.4610 H         1 UNK         0.3000 
    131 H131       -2.6604  -12.9801  -49.7185 H         1 UNK         0.0600 
    132 H132       -0.7274  -14.6802  -48.0547 H         1 UNK         0.0800 
    133 H133       -0.2687  -13.6672  -49.4010 H         1 UNK         0.0800 
    134 H134        1.0102  -15.3518  -50.2348 H         1 UNK         0.0800 
    135 H135        0.3168  -15.4913  -51.8270 H         1 UNK         0.0800 
    136 H136       -0.5338  -17.8028  -52.5814 H         1 UNK         0.1150 
    137 H137        1.7248  -21.0925  -51.0300 H         1 UNK         0.1150 
    138 H138        1.9189  -17.2687  -49.1097 H         1 UNK         0.1150 
    139 H139        3.7047  -19.1169  -48.7766 H         1 UNK         0.0800 
    140 H140        3.3279  -20.7431  -49.2818 H         1 UNK         0.0800 
    141 H141        1.0749  -21.8091  -48.7081 H         1 UNK         0.0800 
    142 H142       -0.1236  -20.8558  -47.8901 H         1 UNK         0.0800 
    143 H143        1.6039  -23.1087  -46.7418 H         1 UNK         0.0600 
    144 H144        0.2818  -21.0571  -45.2129 H         1 UNK         0.3000 
    145 H145       -0.0515  -22.9123  -42.2022 H         1 UNK         0.0600 
    146 H146        2.0340  -20.7788  -42.8765 H         1 UNK         0.0600 
    147 H147        2.3170  -22.2869  -42.0235 H         1 UNK         0.0600 
    148 H148        1.3328  -21.0336  -41.2800 H         1 UNK         0.0600 
    149 H149       -0.4139  -20.1421  -43.0176 H         1 UNK         0.3000 
    150 H150       -3.7077  -20.5803  -44.2576 H         1 UNK         0.0600 
    151 H151       -3.0042  -19.4814  -41.4907 H         1 UNK         0.0600 
    152 H152       -4.3264  -20.5654  -41.8907 H         1 UNK         0.0600 
    153 H153       -4.3459  -18.9121  -42.4864 H         1 UNK         0.0600 
    154 H154       -2.1076  -18.2793  -43.5810 H         1 UNK         0.3000 
    155 H155        0.2005  -18.3675  -45.6830 H         1 UNK         0.0600 
    156 H156       -1.8776  -17.2743  -47.6221 H         1 UNK         0.0600 
    157 H157       -0.7201  -18.5429  -47.9549 H         1 UNK         0.0600 
    158 H158       -0.1488  -16.9228  -47.6219 H         1 UNK         0.0600 
    159 H159       -0.2666  -16.8304  -44.1955 H         1 UNK         0.3000 
    160 H160       -1.2280  -13.9597  -44.1862 H         1 UNK         0.0600 
    161 H161       -3.7872  -15.1738  -43.0423 H         1 UNK         0.0600 
    162 H162       -3.6688  -13.8379  -44.1731 H         1 UNK         0.0600 
    163 H163       -3.0792  -13.6415  -42.5318 H         1 UNK         0.0600 
    164 H164       -0.0697  -14.8171  -42.5459 H         1 UNK         0.3000 
    165 H165       -0.0923  -15.9367  -40.1212 H         1 UNK         0.0600 
    166 H166       -1.4397  -17.9456  -39.5531 H         1 UNK         0.0600 
    167 H167       -0.5855  -18.8998  -40.7574 H         1 UNK         0.0600 
    168 H168        0.2718  -18.2818  -39.3480 H         1 UNK         0.0600 
    169 H169        1.9022  -16.2689  -41.0694 H         1 UNK         0.3000 
    170 H170        3.6341  -17.9834  -42.2513 H         1 UNK         0.0600 
    171 H171        4.2659  -18.1315  -44.6574 H         1 UNK         0.0600 
    172 H172        2.9759  -19.2593  -44.2977 H         1 UNK         0.0600 
    173 H173        2.6117  -17.7581  -45.1349 H         1 UNK         0.0600 
    174 H174        3.4479  -15.7480  -44.0810 H         1 UNK         0.3000 
    175 H175        3.6142  -13.1390  -41.8075 H         1 UNK         0.0600 
    176 H176        6.0133  -13.8168  -41.6144 H         1 UNK         0.0600 
    177 H177        6.0621  -14.1789  -43.3355 H         1 UNK         0.0600 
    178 H178        5.8113  -12.5221  -42.7828 H         1 UNK         0.0600 
    179 H179        4.1697  -13.1882  -44.5887 H         1 UNK         0.3000 
    180 H180        2.4935  -12.1818  -45.9509 H         1 UNK         0.0600 
    181 H181        1.4360  -15.0630  -46.2143 H         1 UNK         0.0600 
    182 H182        3.1008  -14.5602  -46.4777 H         1 UNK         0.0600 
    183 H183        1.8418  -13.9955  -47.5579 H         1 UNK         0.0600 
    184 H184       -0.1699  -13.2452  -46.1779 H         1 UNK         0.3000 
    185 H185       -2.0594  -11.5489  -44.6416 H         1 UNK         0.0600 
    186 H186       -1.7732   -9.1483  -44.9685 H         1 UNK         0.0600 
    187 H187       -1.5182   -9.3445  -46.6942 H         1 UNK         0.0600 
    188 H188       -3.0954   -9.6936  -45.9865 H         1 UNK         0.0600 
    189 H189       -2.7280  -12.8887  -46.2762 H         1 UNK         0.3000 
    190 H190       -1.7763  -22.1296  -46.2039 H         1 UNK         0.3000 
    191 H191       -3.0523  -23.8865  -47.9468 H         1 UNK         0.0600 
    192 H192       -4.0838  -21.8835  -46.8448 H         1 UNK         0.0600 
    193 H193       -5.0839  -23.3190  -46.6800 H         1 UNK         0.0600 
    194 H194       -4.1290  -22.7610  -45.3156 H         1 UNK         0.0600 
    195 H195       -1.3511  -24.8647  -45.1617 H         1 UNK         0.3000 
    196 H196       -2.8014  -27.3183  -44.6100 H         1 UNK         0.0600 
    197 H197        0.1143  -26.5531  -44.0538 H         1 UNK         0.0600 
    198 H198       -0.7492  -27.9200  -43.3628 H         1 UNK         0.0600 
    199 H199       -1.2383  -26.2815  -42.9553 H         1 UNK         0.0600 
    200 H200       -0.2976  -26.2799  -46.9177 H         1 UNK         0.3000 
    201 H201        0.0337  -29.0077  -48.0381 H         1 UNK         0.0600 
    202 H202        1.3842  -26.3405  -48.7116 H         1 UNK         0.0600 
    203 H203        2.0786  -27.6576  -47.7731 H         1 UNK         0.0600 
    204 H204        1.7329  -27.8833  -49.4808 H         1 UNK         0.0600 
    205 H205       -1.3354  -25.8308  -48.7393 H         1 UNK         0.3000 
    206 H206       -2.9915  -25.0894  -49.9959 H         1 UNK         0.0600 
    207 H207       -4.2990  -26.8708  -48.9786 H         1 UNK         0.0600 
    208 H208       -4.8392  -26.5730  -50.6197 H         1 UNK         0.0600 
    209 H209       -3.8591  -27.9877  -50.2628 H         1 UNK         0.0600 
    210 H210       -1.4715  -25.2345  -53.3604 H         1 UNK         0.3000 
    211 H211       -0.6240  -23.3804  -52.7045 H         1 UNK         0.0600 
    212 H212        1.0034  -25.0063  -51.7791 H         1 UNK         0.0600 
    213 H213        1.0084  -23.4898  -50.8969 H         1 UNK         0.0600 
    214 H214        0.2280  -24.8942  -50.2049 H         1 UNK         0.0600 
    215 H215       -3.3692  -23.2123  -52.2353 H         1 UNK         0.3000 
    216 H216       -3.9209  -22.3606  -49.5340 H         1 UNK         0.0600 
    217 H217       -5.5869  -22.3289  -52.0941 H         1 UNK         0.0600 
    218 H218       -6.2006  -21.8656  -50.5132 H         1 UNK         0.0600 
    219 H219       -5.6467  -23.5086  -50.7926 H         1 UNK         0.0600 
    220 H220       -4.7403  -20.3478  -48.8636 H         1 UNK         0.3000 
    221 H221       -3.0872  -18.1542  -49.5250 H         1 UNK         0.0600 
    222 H222       -4.0866  -18.6487  -47.2542 H         1 UNK         0.0600 
    223 H223       -4.4075  -17.0092  -47.7763 H         1 UNK         0.0600 
    224 H224       -5.6801  -18.2210  -47.8757 H         1 UNK         0.0600 
    225 H225       -3.8080  -15.9837  -50.0368 H         1 UNK         0.3000 
    226 H226       -4.5627  -14.4133  -51.3746 H         1 UNK         0.0600 
    227 H227       -6.8251  -14.8257  -50.3779 H         1 UNK         0.0600 
    228 H228       -6.9152  -14.2589  -52.0354 H         1 UNK         0.0600 
    229 H229       -7.1908  -15.9563  -51.6806 H         1 UNK         0.0600 
    230 H230       -2.8773  -16.3138  -52.3567 H         1 UNK         0.3000 
    231 H231       -1.7854  -16.9294  -54.1718 H         1 UNK         0.0600 
    232 H232       -3.5852  -15.0570  -55.7790 H         1 UNK         0.0600 
    233 H233       -1.9949  -15.6458  -56.2377 H         1 UNK         0.0600 
    234 H234       -2.1579  -14.5578  -54.8710 H         1 UNK         0.0600 
    235 H235       -4.2536  -18.4674  -53.4057 H         1 UNK         0.3000 
    236 H236       -5.1299  -19.7442  -55.9076 H         1 UNK         0.0600 
    237 H237       -5.8529  -20.2006  -52.9744 H         1 UNK         0.0600 
    238 H238       -6.7957  -19.3092  -54.1597 H         1 UNK         0.0600 
    239 H239       -6.5860  -21.0445  -54.3372 H         1 UNK         0.0600 
    240 H240       -2.5106  -19.9861  -55.9389 H         1 UNK         0.3000 
    241 H241       -1.4990  -22.2748  -54.5124 H         1 UNK         0.0600 
    242 H242       -2.8811  -23.8657  -57.9302 H         1 UNK         0.3800 
    243 H243       -3.3887  -22.2863  -57.3922 H         1 UNK         0.3800 
    244 H244       -0.1550  -20.7951  -56.8156 H         1 UNK         0.0800 
    245 H245        0.6245  -21.8606  -55.6781 H         1 UNK         0.0800 
    246 H246       -1.0337  -20.6560  -52.8477 H         1 UNK         0.0800 
    247 H247        0.5473  -21.3959  -53.0341 H         1 UNK         0.0800 
@<TRIPOS>BOND
     1    1    2 1    
     2    1  127 1    
     3    1  128 1    
     4    1  129 1    
     5    2    3 2    
     6    2    4 am   BACKBONE|DICT|INTERRES
     7    4    5 1    
     8    4  130 1    
     9    5    6 1    
    10    5   65 1    
    11    5  131 1    
    12    6    7 1    
    13    6  132 1    
    14    6  133 1    
    15    7    8 1    
    16    8    9 1    
    17    8  134 1    
    18    8  135 1    
    19    9   10 ar   
    20    9   14 ar   
    21   10   11 ar   
    22   10  136 1    
    23   11   12 ar   
    24   11  126 1    
    25   12   13 ar   
    26   12  137 1    
    27   13   14 ar   
    28   13   15 1    
    29   14  138 1    
    30   15   16 1    
    31   15  139 1    
    32   15  140 1    
    33   16   17 1    
    34   17   18 1    
    35   17  141 1    
    36   17  142 1    
    37   18   19 1    
    38   18   67 1    
    39   18  143 1    
    40   19   20 am   BACKBONE|DICT|INTERRES
    41   19  144 1    
    42   20   21 2    
    43   20   22 1    
    44   22   23 1    
    45   22   24 1    
    46   22  145 1    
    47   23  146 1    
    48   23  147 1    
    49   23  148 1    
    50   24   25 am   BACKBONE|DICT|INTERRES
    51   24  149 1    
    52   25   26 2    
    53   25   27 1    
    54   27   28 1    
    55   27   29 1    
    56   27  150 1    
    57   28  151 1    
    58   28  152 1    
    59   28  153 1    
    60   29   30 am   BACKBONE|DICT|INTERRES
    61   29  154 1    
    62   30   31 2    
    63   30   32 1    
    64   32   33 1    
    65   32   34 1    
    66   32  155 1    
    67   33  156 1    
    68   33  157 1    
    69   33  158 1    
    70   34   35 am   BACKBONE|DICT|INTERRES
    71   34  159 1    
    72   35   36 2    
    73   35   37 1    
    74   37   38 1    
    75   37   39 1    
    76   37  160 1    
    77   38  161 1    
    78   38  162 1    
    79   38  163 1    
    80   39   40 am   BACKBONE|DICT|INTERRES
    81   39  164 1    
    82   40   41 2    
    83   40   42 1    
    84   42   43 1    
    85   42   44 1    
    86   42  165 1    
    87   43  166 1    
    88   43  167 1    
    89   43  168 1    
    90   44   45 am   BACKBONE|DICT|INTERRES
    91   44  169 1    
    92   45   46 2    
    93   45   47 1    
    94   47   48 1    
    95   47   49 1    
    96   47  170 1    
    97   48  171 1    
    98   48  172 1    
    99   48  173 1    
   100   49   50 am   BACKBONE|DICT|INTERRES
   101   49  174 1    
   102   50   51 2    
   103   50   52 1    
   104   52   53 1    
   105   52   54 1    
   106   52  175 1    
   107   53  176 1    
   108   53  177 1    
   109   53  178 1    
   110   54   55 am   BACKBONE|DICT|INTERRES
   111   54  179 1    
   112   55   56 2    
   113   55   57 1    
   114   57   58 1    
   115   57   59 1    
   116   57  180 1    
   117   58  181 1    
   118   58  182 1    
   119   58  183 1    
   120   59   60 am   BACKBONE|DICT|INTERRES
   121   59  184 1    
   122   60   61 2    
   123   60   62 1    
   124   62   63 1    
   125   62   64 1    
   126   62  185 1    
   127   63  186 1    
   128   63  187 1    
   129   63  188 1    
   130   64   65 am   BACKBONE|DICT|INTERRES
   131   64  189 1    
   132   65   66 2    
   133   67   68 2    
   134   67   69 am   BACKBONE|DICT|INTERRES
   135   69   70 1    
   136   69  190 1    
   137   70   71 1    
   138   70   72 1    
   139   70  191 1    
   140   71  192 1    
   141   71  193 1    
   142   71  194 1    
   143   72   73 2    
   144   72   74 am   BACKBONE|DICT|INTERRES
   145   74   75 1    
   146   74  195 1    
   147   75   76 1    
   148   75   77 1    
   149   75  196 1    
   150   76  197 1    
   151   76  198 1    
   152   76  199 1    
   153   77   78 2    
   154   77   79 am   BACKBONE|DICT|INTERRES
   155   79   80 1    
   156   79  200 1    
   157   80   81 1    
   158   80   82 1    
   159   80  201 1    
   160   81  202 1    
   161   81  203 1    
   162   81  204 1    
   163   82   83 2    
   164   82   84 am   BACKBONE|DICT|INTERRES
   165   84   85 1    
   166   84  205 1    
   167   85   86 1    
   168   85   87 1    
   169   85  206 1    
   170   86  207 1    
   171   86  208 1    
   172   86  209 1    
   173   87   88 2    
   174   87   89 am   BACKBONE|DICT|INTERRES
   175   89   90 1    
   176   89  210 1    
   177   90   91 1    
   178   90   92 1    
   179   90  211 1    
   180   91  212 1    
   181   91  213 1    
   182   91  214 1    
   183   92   93 2    
   184   92   94 am   BACKBONE|DICT|INTERRES
   185   94   95 1    
   186   94  215 1    
   187   95   96 1    
   188   95   97 1    
   189   95  216 1    
   190   96  217 1    
   191   96  218 1    
   192   96  219 1    
   193   97   98 2    
   194   97   99 am   BACKBONE|DICT|INTERRES
   195   99  100 1    
   196   99  220 1    
   197  100  101 1    
   198  100  102 1    
   199  100  221 1    
   200  101  222 1    
   201  101  223 1    
   202  101  224 1    
   203  102  103 2    
   204  102  104 am   BACKBONE|DICT|INTERRES
   205  104  105 1    
   206  104  225 1    
   207  105  106 1    
   208  105  107 1    
   209  105  226 1    
   210  106  227 1    
   211  106  228 1    
   212  106  229 1    
   213  107  108 2    
   214  107  109 am   BACKBONE|DICT|INTERRES
   215  109  110 1    
   216  109  230 1    
   217  110  111 1    
   218  110  112 1    
   219  110  231 1    
   220  111  232 1    
   221  111  233 1    
   222  111  234 1    
   223  112  113 2    
   224  112  114 am   BACKBONE|DICT|INTERRES
   225  114  115 1    
   226  114  235 1    
   227  115  116 1    
   228  115  117 1    
   229  115  236 1    
   230  116  237 1    
   231  116  238 1    
   232  116  239 1    
   233  117  118 2    
   234  117  119 am   BACKBONE|DICT|INTERRES
   235  119  120 1    
   236  119  240 1    
   237  120  121 1    
   238  120  124 1    
   239  120  241 1    
   240  121  122 am   BACKBONE|DICT|INTERRES
   241  121  123 2    
   242  122  242 1    
   243  122  243 1    
   244  124  125 1    
   245  124  244 1    
   246  124  245 1    
   247  125  126 1    
   248  126  246 1    
   249  126  247 1    
@<TRIPOS>SUBSTRUCTURE
     1 UNK         1 GROUP             0       ****    0 ROOT    
