@<TRIPOS>MOLECULE
3R540
247   249    1
SMALL
USER_CHARGES


@<TRIPOS>ATOM
      1 CA         -4.2346  -15.6516  -48.8697 C.3       0 UNK        -0.1800 
      2 C          -3.7844  -14.2150  -48.6507 C.2       0 UNK         0.5000 
      3 O          -4.5889  -13.2906  -48.7742 O.2       0 UNK        -0.5000 
      4 N          -2.4976  -14.0275  -48.3359 N.am      1 UNK        -0.5000 
      5 CA         -1.8820  -12.7298  -48.0429 C.3       1 UNK         0.1400 
      6 C6         -0.3368  -12.8148  -47.9672 C.3       23 UNK        -0.0398 
      7 S7          0.4211  -13.3306  -49.5451 S.3       23 UNK        -0.2404 
      8 C8          1.1852  -14.9236  -49.1061 C.3       23 UNK        -0.0205 
      9 C9          0.1550  -16.0286  -48.9426 C.ar      23 UNK        -0.0193 
     10 C10        -0.3320  -16.7047  -50.0644 C.ar      23 UNK        -0.1150 
     11 C11        -1.2559  -17.7436  -49.9208 C.ar      23 UNK        -0.0193 
     12 C12        -1.7018  -18.0957  -48.6441 C.ar      23 UNK        -0.1150 
     13 C13        -1.2278  -17.4204  -47.5164 C.ar      23 UNK        -0.0193 
     14 C14        -0.2965  -16.3903  -47.6709 C.ar      23 UNK        -0.1150 
     15 C15        -1.7062  -17.8155  -46.1312 C.3       23 UNK        -0.0205 
     16 S16        -0.4257  -18.7836  -45.2833 S.3       23 UNK        -0.2404 
     17 C17        -1.4166  -20.0469  -44.4217 C.3       23 UNK        -0.0398 
     18 CA         -1.7150  -21.2886  -45.3000 C.3       11 UNK         0.1400 
     19 N          -0.5392  -21.7982  -46.0117 N.am      11 UNK        -0.5000 
     20 C          -0.5714  -22.6781  -47.0210 C.2       10 UNK         0.5000 
     21 O          -1.6089  -23.1595  -47.4733 O.2       10 UNK        -0.5000 
     22 CA          0.7833  -23.1253  -47.5977 C.3       10 UNK         0.1400 
     23 CB          1.2514  -22.1409  -48.6780 C.3       10 UNK        -0.1800 
     24 N           1.8149  -23.2561  -46.5674 N.am      10 UNK        -0.5000 
     25 C           1.7910  -24.1737  -45.5891 C.2       9 UNK         0.5000 
     26 O           0.9329  -25.0506  -45.4998 O.2       9 UNK        -0.5000 
     27 CA          2.8711  -24.0553  -44.4949 C.3       9 UNK         0.1400 
     28 CB          4.1230  -24.8548  -44.8842 C.3       9 UNK        -0.1800 
     29 N           3.2514  -22.6698  -44.1968 N.am      9 UNK        -0.5000 
     30 C           2.4081  -21.7267  -43.7556 C.2       8 UNK         0.5000 
     31 O           1.2115  -21.9389  -43.5375 O.2       8 UNK        -0.5000 
     32 CA          2.9921  -20.3087  -43.6011 C.3       8 UNK         0.1400 
     33 CB          3.3775  -19.7296  -44.9735 C.3       8 UNK        -0.1800 
     34 N           2.0300  -19.4015  -42.9820 N.am      8 UNK        -0.5000 
     35 C           1.7483  -19.3383  -41.6750 C.2       7 UNK         0.5000 
     36 O           2.3621  -19.9731  -40.8151 O.2       7 UNK        -0.5000 
     37 CA          0.5627  -18.4315  -41.2740 C.3       7 UNK         0.1400 
     38 CB          0.6660  -17.9019  -39.8279 C.3       7 UNK        -0.1800 
     39 N           0.3055  -17.3432  -42.2292 N.am      7 UNK        -0.5000 
     40 C           1.0982  -16.2961  -42.5018 C.2       6 UNK         0.5000 
     41 O           2.1596  -16.0645  -41.9187 O.2       6 UNK        -0.5000 
     42 CA          0.5838  -15.3446  -43.6033 C.3       6 UNK         0.1400 
     43 CB         -0.6020  -14.5158  -43.0870 C.3       6 UNK        -0.1800 
     44 N           1.6150  -14.4318  -44.0991 N.am      6 UNK        -0.5000 
     45 C           2.6944  -14.8005  -44.8061 C.2       5 UNK         0.5000 
     46 O           2.8693  -15.9456  -45.2236 O.2       5 UNK        -0.5000 
     47 CA          3.7564  -13.7210  -45.1183 C.3       5 UNK         0.1400 
     48 CB          3.7330  -13.3495  -46.6093 C.3       5 UNK        -0.1800 
     49 N           3.5995  -12.4945  -44.3358 N.am      5 UNK        -0.5000 
     50 C           3.8543  -12.3645  -43.0267 C.2       4 UNK         0.5000 
     51 O           4.3801  -13.2455  -42.3466 O.2       4 UNK        -0.5000 
     52 CA          3.4401  -11.0349  -42.3550 C.3       4 UNK         0.1400 
     53 CB          4.6831  -10.2144  -41.9751 C.3       4 UNK        -0.1800 
     54 N           2.5431  -10.1847  -43.1510 N.am      4 UNK        -0.5000 
     55 C           1.3147  -10.5147  -43.5721 C.2       3 UNK         0.5000 
     56 O           0.7940  -11.6127  -43.3600 O.2       3 UNK        -0.5000 
     57 CA          0.5745   -9.4638  -44.4134 C.3       3 UNK         0.1400 
     58 CB          1.3445   -9.1415  -45.7106 C.3       3 UNK        -0.1800 
     59 N          -0.7504   -9.9732  -44.7501 N.am      3 UNK        -0.5000 
     60 C          -1.8059   -9.2388  -45.1135 C.2       2 UNK         0.5000 
     61 O          -1.7964   -8.0072  -45.1636 O.2       2 UNK        -0.5000 
     62 CA         -3.0483  -10.0312  -45.5588 C.3       2 UNK         0.1400 
     63 CB         -4.2426   -9.1260  -45.9127 C.3       2 UNK        -0.1800 
     64 N          -2.6896  -10.8242  -46.7344 N.am      2 UNK        -0.5000 
     65 C          -2.4317  -12.1363  -46.7299 C.2       1 UNK         0.5000 
     66 O          -2.5556  -12.8568  -45.7378 O.2       1 UNK        -0.5000 
     67 C          -2.3578  -22.4026  -44.4551 C.2       11 UNK         0.5000 
     68 O          -3.5769  -22.5701  -44.4921 O.2       11 UNK        -0.5000 
     69 N          -1.5127  -23.1823  -43.7629 N.am      12 UNK        -0.5000 
     70 CA         -1.8953  -24.3761  -43.0032 C.3       12 UNK         0.1400 
     71 CB         -0.6748  -24.8945  -42.2285 C.3       12 UNK        -0.1800 
     72 C          -2.4970  -25.4872  -43.8883 C.2       12 UNK         0.5000 
     73 O          -3.3797  -26.2158  -43.4356 O.2       12 UNK        -0.5000 
     74 N          -2.0512  -25.5546  -45.1496 N.am      13 UNK        -0.5000 
     75 CA         -2.5845  -26.4132  -46.2078 C.3       13 UNK         0.1400 
     76 CB         -1.4589  -26.7167  -47.2125 C.3       13 UNK        -0.1800 
     77 C          -3.8272  -25.8208  -46.9117 C.2       13 UNK         0.5000 
     78 O          -4.1706  -26.2833  -47.9994 O.2       13 UNK        -0.5000 
     79 N          -4.4778  -24.8157  -46.3046 N.am      14 UNK        -0.5000 
     80 CA         -5.6905  -24.1321  -46.7669 C.3       14 UNK         0.1400 
     81 CB         -6.8942  -25.0982  -46.7862 C.3       14 UNK        -0.1800 
     82 C          -5.4731  -23.4091  -48.1091 C.2       14 UNK         0.5000 
     83 O          -6.2016  -23.6508  -49.0731 O.2       14 UNK        -0.5000 
     84 N          -4.4369  -22.5595  -48.1441 N.am      15 UNK        -0.5000 
     85 CA         -3.9438  -21.8165  -49.3091 C.3       15 UNK         0.1400 
     86 CB         -4.9676  -20.7560  -49.7653 C.3       15 UNK        -0.1800 
     87 C          -3.5034  -22.7687  -50.4374 C.2       15 UNK         0.5000 
     88 O          -3.9381  -22.6222  -51.5798 O.2       15 UNK        -0.5000 
     89 N          -2.6782  -23.7569  -50.0608 N.am      16 UNK        -0.5000 
     90 CA         -2.1435  -24.8365  -50.8959 C.3       16 UNK         0.1400 
     91 CB         -1.0789  -24.2779  -51.8626 C.3       16 UNK        -0.1800 
     92 C          -3.2556  -25.6415  -51.6048 C.2       16 UNK         0.5000 
     93 O          -3.1958  -25.8497  -52.8174 O.2       16 UNK        -0.5000 
     94 N          -4.2618  -26.0551  -50.8201 N.am      17 UNK        -0.5000 
     95 CA         -5.5012  -26.7195  -51.2313 C.3       17 UNK         0.1400 
     96 CB         -5.2138  -28.1307  -51.7857 C.3       17 UNK        -0.1800 
     97 C          -6.3476  -25.8444  -52.1801 C.2       17 UNK         0.5000 
     98 O          -6.7821  -26.3124  -53.2347 O.2       17 UNK        -0.5000 
     99 N          -6.5619  -24.5853  -51.7702 N.am      18 UNK        -0.5000 
    100 CA        -7.3118  -23.5321  -52.4608 C.3       18 UNK         0.1400 
    101 CB        -8.8204  -23.8554  -52.4563 C.3       18 UNK        -0.1800 
    102 C         -6.7604  -23.2170  -53.8679 C.2       18 UNK         0.5000 
    103 O         -7.5178  -23.1723  -54.8405 O.2       18 UNK        -0.5000 
    104 N         -5.4408  -23.0125  -53.9510 N.am      19 UNK        -0.5000 
    105 CA        -4.7336  -22.6191  -55.1673 C.3       19 UNK         0.1400 
    106 CB        -3.2293  -22.8525  -54.9616 C.3       19 UNK        -0.1800 
    107 C         -4.9987  -21.1466  -55.5331 C.2       19 UNK         0.5000 
    108 O         -5.3386  -20.3391  -54.6640 O.2       19 UNK        -0.5000 
    109 N         -4.7984  -20.8144  -56.8157 N.am      20 UNK        -0.5000 
    110 CA        -4.9026  -19.4497  -57.3438 C.3       20 UNK         0.1400 
    111 CB        -4.9129  -19.5036  -58.8793 C.3       20 UNK        -0.1800 
    112 C         -3.7775  -18.5210  -56.8428 C.2       20 UNK         0.5000 
    113 O         -3.9912  -17.3138  -56.7243 O.2       20 UNK        -0.5000 
    114 N         -2.6126  -19.1042  -56.5427 N.am      21 UNK        -0.5000 
    115 CA        -1.4579  -18.4627  -55.9308 C.3       21 UNK         0.1400 
    116 CB        -0.6218  -17.7377  -56.9999 C.3       21 UNK        -0.1800 
    117 C         -0.6396  -19.5534  -55.2278 C.2       21 UNK         0.5000 
    118 O         -0.6358  -20.6990  -55.6866 O.2       21 UNK        -0.5000 
    119 N          0.0381  -19.1773  -54.1401 N.am      22 UNK        -0.5000 
    120 CA         0.8589  -20.0793  -53.3113 C.3       22 UNK         0.1400 
    121 C          2.3725  -20.0615  -53.6776 C.2       22 UNK         0.5000 
    122 N          2.8153  -19.2819  -54.6570 N.am      22 UNK        -0.7600 
    123 O          3.1624  -20.7811  -53.0727 O.2       22 UNK        -0.5000 
    124 C124        0.6391  -19.8128  -51.7998 C.3       23 UNK        -0.0398 
    125 S125       -1.0786  -20.1544  -51.2819 S.3       23 UNK        -0.2404 
    126 C126       -1.7825  -18.4816  -51.1414 C.3       23 UNK        -0.0205 
    127 H127       -3.9754  -16.2699  -48.0105 H         1 UNK         0.0600 
    128 H128       -3.7576  -16.0681  -49.7569 H         1 UNK         0.0600 
    129 H129       -5.3146  -15.7029  -49.0084 H         1 UNK         0.0600 
    130 H130       -1.8844  -14.8277  -48.2635 H         1 UNK         0.3000 
    131 H131       -2.1446  -12.0542  -48.8600 H         1 UNK         0.0600 
    132 H132        0.0836  -11.8380  -47.7204 H         1 UNK         0.0800 
    133 H133       -0.0239  -13.4831  -47.1634 H         1 UNK         0.0800 
    134 H134        1.7741  -14.8159  -48.1955 H         1 UNK         0.0800 
    135 H135        1.8914  -15.2010  -49.8900 H         1 UNK         0.0800 
    136 H136        0.0156  -16.4236  -51.0485 H         1 UNK         0.1150 
    137 H137       -2.4144  -18.9001  -48.5312 H         1 UNK         0.1150 
    138 H138        0.0878  -15.8817  -46.7985 H         1 UNK         0.1150 
    139 H139       -1.9400  -16.9244  -45.5468 H         1 UNK         0.0800 
    140 H140       -2.6313  -18.3892  -46.2043 H         1 UNK         0.0800 
    141 H141       -2.3454  -19.5970  -44.0667 H         1 UNK         0.0800 
    142 H142       -0.8635  -20.3321  -43.5260 H         1 UNK         0.0800 
    143 H143       -2.4437  -20.9881  -46.0560 H         1 UNK         0.0600 
    144 H144        0.3545  -21.4852  -45.6627 H         1 UNK         0.3000 
    145 H145        0.6423  -24.1019  -48.0650 H         1 UNK         0.0600 
    146 H146        1.4081  -21.1392  -48.2754 H         1 UNK         0.0600 
    147 H147        2.1829  -22.4702  -49.1384 H         1 UNK         0.0600 
    148 H148        0.5078  -22.0628  -49.4718 H         1 UNK         0.0600 
    149 H149        2.5594  -22.5751  -46.5730 H         1 UNK         0.3000 
    150 H150        2.4598  -24.4887  -43.5810 H         1 UNK         0.0600 
    151 H151        3.8721  -25.8961  -45.0913 H         1 UNK         0.0600 
    152 H152        4.8583  -24.8535  -44.0794 H         1 UNK         0.0600 
    153 H153        4.6000  -24.4482  -45.7769 H         1 UNK         0.0600 
    154 H154        4.2182  -22.4262  -44.3579 H         1 UNK         0.3000 
    155 H155        3.8847  -20.3666  -42.9750 H         1 UNK         0.0600 
    156 H156        4.1616  -20.3188  -45.4500 H         1 UNK         0.0600 
    157 H157        3.7568  -18.7117  -44.8773 H         1 UNK         0.0600 
    158 H158        2.5265  -19.7019  -45.6553 H         1 UNK         0.0600 
    159 H159        1.4540  -18.8680  -43.6173 H         1 UNK         0.3000 
    160 H160       -0.3187  -19.0728  -41.3152 H         1 UNK         0.0600 
    161 H161       -0.1829  -17.2652  -39.5790 H         1 UNK         0.0600 
    162 H162        1.5773  -17.3253  -39.6689 H         1 UNK         0.0600 
    163 H163        0.6740  -18.7239  -39.1113 H         1 UNK         0.0600 
    164 H164       -0.5502  -17.4352  -42.7581 H         1 UNK         0.3000 
    165 H165        0.2435  -15.9508  -44.4434 H         1 UNK         0.0600 
    166 H166       -0.3245  -13.9180  -42.2178 H         1 UNK         0.0600 
    167 H167       -0.9695  -13.8355  -43.8543 H         1 UNK         0.0600 
    168 H168       -1.4371  -15.1534  -42.7954 H         1 UNK         0.0600 
    169 H169        1.5378  -13.4688  -43.7913 H         1 UNK         0.3000 
    170 H170        4.7333  -14.1512  -44.8882 H         1 UNK         0.0600 
    171 H171        2.7742  -12.9202  -46.9028 H         1 UNK         0.0600 
    172 H172        4.5119  -12.6252  -46.8480 H         1 UNK         0.0600 
    173 H173        3.9097  -14.2269  -47.2326 H         1 UNK         0.0600 
    174 H174        3.1788  -11.7102  -44.8101 H         1 UNK         0.3000 
    175 H175        2.9113  -11.2976  -41.4366 H         1 UNK         0.0600 
    176 H176        5.2415   -9.9004  -42.8578 H         1 UNK         0.0600 
    177 H177        4.4107   -9.3210  -41.4129 H         1 UNK         0.0600 
    178 H178        5.3608  -10.7951  -41.3476 H         1 UNK         0.0600 
    179 H179        2.9000   -9.2684  -43.3813 H         1 UNK         0.3000 
    180 H180        0.4727   -8.5606  -43.8083 H         1 UNK         0.0600 
    181 H181        1.4867  -10.0320  -46.3242 H         1 UNK         0.0600 
    182 H182        2.3299   -8.7255  -45.4994 H         1 UNK         0.0600 
    183 H183        0.8143   -8.4047  -46.3142 H         1 UNK         0.0600 
    184 H184       -0.8431  -10.9782  -44.6608 H         1 UNK         0.3000 
    185 H185       -3.3476  -10.6735  -44.7279 H         1 UNK         0.0600 
    186 H186       -5.1096   -9.7187  -46.2050 H         1 UNK         0.0600 
    187 H187       -4.5388   -8.5180  -45.0570 H         1 UNK         0.0600 
    188 H188       -4.0092   -8.4483  -46.7347 H         1 UNK         0.0600 
    189 H189       -2.5331  -10.2979  -47.5827 H         1 UNK         0.3000 
    190 H190       -0.5252  -22.9450  -43.7723 H         1 UNK         0.3000 
    191 H191       -2.6585  -24.0790  -42.2810 H         1 UNK         0.0600 
    192 H192        0.1200  -25.2193  -42.8999 H         1 UNK         0.0600 
    193 H193       -0.2660  -24.1247  -41.5737 H         1 UNK         0.0600 
    194 H194       -0.9436  -25.7464  -41.6028 H         1 UNK         0.0600 
    195 H195       -1.2840  -24.9499  -45.4154 H         1 UNK         0.3000 
    196 H196       -2.8971  -27.3606  -45.7647 H         1 UNK         0.0600 
    197 H197       -0.5946  -27.1560  -46.7141 H         1 UNK         0.0600 
    198 H198       -1.1249  -25.8157  -47.7258 H         1 UNK         0.0600 
    199 H199       -1.7862  -27.4265  -47.9731 H         1 UNK         0.0600 
    200 H200       -4.0879  -24.4535  -45.4434 H         1 UNK         0.3000 
    201 H201       -5.9063  -23.3562  -46.0309 H         1 UNK         0.0600 
    202 H202       -7.8156  -24.5654  -47.0240 H         1 UNK         0.0600 
    203 H203       -7.0345  -25.5716  -45.8146 H         1 UNK         0.0600 
    204 H204       -6.7747  -25.8870  -47.5295 H         1 UNK         0.0600 
    205 H205       -3.8411  -22.5218  -47.3280 H         1 UNK         0.3000 
    206 H206       -3.0452  -21.2883  -48.9873 H         1 UNK         0.0600 
    207 H207       -5.8996  -21.2069  -50.1062 H         1 UNK         0.0600 
    208 H208       -4.5739  -20.1667  -50.5935 H         1 UNK         0.0600 
    209 H209       -5.2041  -20.0642  -48.9572 H         1 UNK         0.0600 
    210 H210       -2.3838  -23.7590  -49.0876 H         1 UNK         0.3000 
    211 H211       -1.6442  -25.5331  -50.2214 H         1 UNK         0.0600 
    212 H212       -0.2843  -23.7666  -51.3191 H         1 UNK         0.0600 
    213 H213       -0.6151  -25.0774  -52.4411 H         1 UNK         0.0600 
    214 H214       -1.5074  -23.5668  -52.5688 H         1 UNK         0.0600 
    215 H215       -4.1952  -25.8771  -49.8201 H         1 UNK         0.3000 
    216 H216       -6.0921  -26.8407  -50.3221 H         1 UNK         0.0600 
    217 H217       -6.1424  -28.6698  -51.9763 H         1 UNK         0.0600 
    218 H218       -4.6590  -28.0958  -52.7236 H         1 UNK         0.0600 
    219 H219       -4.6357  -28.7218  -51.0754 H         1 UNK         0.0600 
    220 H220       -6.1811  -24.3064  -50.8690 H         1 UNK         0.3000 
    221 H221       -7.1695  -22.6257  -51.8707 H         1 UNK         0.0600 
    222 H222       -9.0472  -24.7420  -53.0490 H         1 UNK         0.0600 
    223 H223       -9.1821  -24.0277  -51.4426 H         1 UNK         0.0600 
    224 H224       -9.3981  -23.0280  -52.8699 H         1 UNK         0.0600 
    225 H225       -4.8931  -23.0019  -53.0916 H         1 UNK         0.3000 
    226 H226       -5.0774  -23.2532  -55.9871 H         1 UNK         0.0600 
    227 H227       -3.0230  -23.8884  -54.6940 H         1 UNK         0.0600 
    228 H228       -2.6686  -22.6373  -55.8716 H         1 UNK         0.0600 
    229 H229       -2.8290  -22.2155  -54.1713 H         1 UNK         0.0600 
    230 H230       -4.5229  -21.5308  -57.4723 H         1 UNK         0.3000 
    231 H231       -5.8528  -19.0266  -57.0109 H         1 UNK         0.0600 
    232 H232       -5.0153  -18.5041  -59.3039 H         1 UNK         0.0600 
    233 H233       -5.7484  -20.0989  -59.2481 H         1 UNK         0.0600 
    234 H234       -3.9918  -19.9347  -59.2737 H         1 UNK         0.0600 
    235 H235       -2.5193  -20.1073  -56.6396 H         1 UNK         0.3000 
    236 H236       -1.8017  -17.7449  -55.1827 H         1 UNK         0.0600 
    237 H237       -1.2012  -16.9584  -57.4951 H         1 UNK         0.0600 
    238 H238        0.2512  -17.2585  -56.5558 H         1 UNK         0.0600 
    239 H239       -0.2660  -18.4277  -57.7661 H         1 UNK         0.0600 
    240 H240        0.0082  -18.2124  -53.8465 H         1 UNK         0.3000 
    241 H241        0.5431  -21.1083  -53.4948 H         1 UNK         0.0600 
    242 H242        3.7966  -19.2859  -54.8882 H         1 UNK         0.3800 
    243 H243        2.1806  -18.6990  -55.1778 H         1 UNK         0.3800 
    244 H244        1.2837  -20.4570  -51.2003 H         1 UNK         0.0800 
    245 H245        0.9184  -18.7908  -51.5436 H         1 UNK         0.0800 
    246 H246       -2.8674  -18.5602  -51.0685 H         1 UNK         0.0800 
    247 H247       -1.5829  -17.9201  -52.0545 H         1 UNK         0.0800 
@<TRIPOS>BOND
     1    1    2 1    
     2    1  127 1    
     3    1  128 1    
     4    1  129 1    
     5    2    3 2    
     6    2    4 am   BACKBONE|DICT|INTERRES
     7    4    5 1    
     8    4  130 1    
     9    5    6 1    
    10    5   65 1    
    11    5  131 1    
    12    6    7 1    
    13    6  132 1    
    14    6  133 1    
    15    7    8 1    
    16    8    9 1    
    17    8  134 1    
    18    8  135 1    
    19    9   10 ar   
    20    9   14 ar   
    21   10   11 ar   
    22   10  136 1    
    23   11   12 ar   
    24   11  126 1    
    25   12   13 ar   
    26   12  137 1    
    27   13   14 ar   
    28   13   15 1    
    29   14  138 1    
    30   15   16 1    
    31   15  139 1    
    32   15  140 1    
    33   16   17 1    
    34   17   18 1    
    35   17  141 1    
    36   17  142 1    
    37   18   19 1    
    38   18   67 1    
    39   18  143 1    
    40   19   20 am   BACKBONE|DICT|INTERRES
    41   19  144 1    
    42   20   21 2    
    43   20   22 1    
    44   22   23 1    
    45   22   24 1    
    46   22  145 1    
    47   23  146 1    
    48   23  147 1    
    49   23  148 1    
    50   24   25 am   BACKBONE|DICT|INTERRES
    51   24  149 1    
    52   25   26 2    
    53   25   27 1    
    54   27   28 1    
    55   27   29 1    
    56   27  150 1    
    57   28  151 1    
    58   28  152 1    
    59   28  153 1    
    60   29   30 am   BACKBONE|DICT|INTERRES
    61   29  154 1    
    62   30   31 2    
    63   30   32 1    
    64   32   33 1    
    65   32   34 1    
    66   32  155 1    
    67   33  156 1    
    68   33  157 1    
    69   33  158 1    
    70   34   35 am   BACKBONE|DICT|INTERRES
    71   34  159 1    
    72   35   36 2    
    73   35   37 1    
    74   37   38 1    
    75   37   39 1    
    76   37  160 1    
    77   38  161 1    
    78   38  162 1    
    79   38  163 1    
    80   39   40 am   BACKBONE|DICT|INTERRES
    81   39  164 1    
    82   40   41 2    
    83   40   42 1    
    84   42   43 1    
    85   42   44 1    
    86   42  165 1    
    87   43  166 1    
    88   43  167 1    
    89   43  168 1    
    90   44   45 am   BACKBONE|DICT|INTERRES
    91   44  169 1    
    92   45   46 2    
    93   45   47 1    
    94   47   48 1    
    95   47   49 1    
    96   47  170 1    
    97   48  171 1    
    98   48  172 1    
    99   48  173 1    
   100   49   50 am   BACKBONE|DICT|INTERRES
   101   49  174 1    
   102   50   51 2    
   103   50   52 1    
   104   52   53 1    
   105   52   54 1    
   106   52  175 1    
   107   53  176 1    
   108   53  177 1    
   109   53  178 1    
   110   54   55 am   BACKBONE|DICT|INTERRES
   111   54  179 1    
   112   55   56 2    
   113   55   57 1    
   114   57   58 1    
   115   57   59 1    
   116   57  180 1    
   117   58  181 1    
   118   58  182 1    
   119   58  183 1    
   120   59   60 am   BACKBONE|DICT|INTERRES
   121   59  184 1    
   122   60   61 2    
   123   60   62 1    
   124   62   63 1    
   125   62   64 1    
   126   62  185 1    
   127   63  186 1    
   128   63  187 1    
   129   63  188 1    
   130   64   65 am   BACKBONE|DICT|INTERRES
   131   64  189 1    
   132   65   66 2    
   133   67   68 2    
   134   67   69 am   BACKBONE|DICT|INTERRES
   135   69   70 1    
   136   69  190 1    
   137   70   71 1    
   138   70   72 1    
   139   70  191 1    
   140   71  192 1    
   141   71  193 1    
   142   71  194 1    
   143   72   73 2    
   144   72   74 am   BACKBONE|DICT|INTERRES
   145   74   75 1    
   146   74  195 1    
   147   75   76 1    
   148   75   77 1    
   149   75  196 1    
   150   76  197 1    
   151   76  198 1    
   152   76  199 1    
   153   77   78 2    
   154   77   79 am   BACKBONE|DICT|INTERRES
   155   79   80 1    
   156   79  200 1    
   157   80   81 1    
   158   80   82 1    
   159   80  201 1    
   160   81  202 1    
   161   81  203 1    
   162   81  204 1    
   163   82   83 2    
   164   82   84 am   BACKBONE|DICT|INTERRES
   165   84   85 1    
   166   84  205 1    
   167   85   86 1    
   168   85   87 1    
   169   85  206 1    
   170   86  207 1    
   171   86  208 1    
   172   86  209 1    
   173   87   88 2    
   174   87   89 am   BACKBONE|DICT|INTERRES
   175   89   90 1    
   176   89  210 1    
   177   90   91 1    
   178   90   92 1    
   179   90  211 1    
   180   91  212 1    
   181   91  213 1    
   182   91  214 1    
   183   92   93 2    
   184   92   94 am   BACKBONE|DICT|INTERRES
   185   94   95 1    
   186   94  215 1    
   187   95   96 1    
   188   95   97 1    
   189   95  216 1    
   190   96  217 1    
   191   96  218 1    
   192   96  219 1    
   193   97   98 2    
   194   97   99 am   BACKBONE|DICT|INTERRES
   195   99  100 1    
   196   99  220 1    
   197  100  101 1    
   198  100  102 1    
   199  100  221 1    
   200  101  222 1    
   201  101  223 1    
   202  101  224 1    
   203  102  103 2    
   204  102  104 am   BACKBONE|DICT|INTERRES
   205  104  105 1    
   206  104  225 1    
   207  105  106 1    
   208  105  107 1    
   209  105  226 1    
   210  106  227 1    
   211  106  228 1    
   212  106  229 1    
   213  107  108 2    
   214  107  109 am   BACKBONE|DICT|INTERRES
   215  109  110 1    
   216  109  230 1    
   217  110  111 1    
   218  110  112 1    
   219  110  231 1    
   220  111  232 1    
   221  111  233 1    
   222  111  234 1    
   223  112  113 2    
   224  112  114 am   BACKBONE|DICT|INTERRES
   225  114  115 1    
   226  114  235 1    
   227  115  116 1    
   228  115  117 1    
   229  115  236 1    
   230  116  237 1    
   231  116  238 1    
   232  116  239 1    
   233  117  118 2    
   234  117  119 am   BACKBONE|DICT|INTERRES
   235  119  120 1    
   236  119  240 1    
   237  120  121 1    
   238  120  124 1    
   239  120  241 1    
   240  121  122 am   BACKBONE|DICT|INTERRES
   241  121  123 2    
   242  122  242 1    
   243  122  243 1    
   244  124  125 1    
   245  124  244 1    
   246  124  245 1    
   247  125  126 1    
   248  126  246 1    
   249  126  247 1    
@<TRIPOS>SUBSTRUCTURE
     1 UNK         1 GROUP             0       ****    0 ROOT    
