@<TRIPOS>MOLECULE
3R540
247   249    1
SMALL
USER_CHARGES


@<TRIPOS>ATOM
      1 CA         -4.3286   -7.6273  -45.5109 C.3       0 UNK        -0.1800 
      2 C          -3.3934   -8.2636  -46.5290 C.2       0 UNK         0.5000 
      3 O          -2.7071   -7.5515  -47.2635 O.2       0 UNK        -0.5000 
      4 N          -3.3547   -9.6005  -46.5741 N.am      1 UNK        -0.5000 
      5 CA         -2.5143  -10.4127  -47.4610 C.3       1 UNK         0.1400 
      6 C6         -3.1210  -11.8195  -47.7176 C.3       23 UNK        -0.0398 
      7 S7         -3.6280  -12.7330  -46.2147 S.3       23 UNK        -0.2404 
      8 C8         -4.7799  -13.9589  -46.9151 C.3       23 UNK        -0.0205 
      9 C9         -4.0477  -15.1216  -47.5702 C.ar      23 UNK        -0.0193 
     10 C10        -3.6082  -15.0253  -48.8944 C.ar      23 UNK        -0.1150 
     11 C11        -2.9275  -16.0879  -49.4944 C.ar      23 UNK        -0.0193 
     12 C12        -2.7089  -17.2612  -48.7679 C.ar      23 UNK        -0.1150 
     13 C13        -3.1581  -17.3789  -47.4513 C.ar      23 UNK        -0.0193 
     14 C14        -3.8223  -16.3026  -46.8551 C.ar      23 UNK        -0.1150 
     15 C15        -2.9164  -18.6642  -46.6764 C.3       23 UNK        -0.0205 
     16 S16        -4.0284  -19.9920  -47.2251 S.3       23 UNK        -0.2404 
     17 C17        -3.7283  -21.2716  -45.9587 C.3       23 UNK        -0.0398 
     18 CA         -2.7361  -22.3545  -46.4491 C.3       11 UNK         0.1400 
     19 N          -1.3322  -21.9635  -46.2873 N.am      11 UNK        -0.5000 
     20 C          -0.3195  -22.5608  -46.9321 C.2       10 UNK         0.5000 
     21 O          -0.4725  -23.4884  -47.7264 O.2       10 UNK        -0.5000 
     22 CA          1.1031  -22.0788  -46.6030 C.3       10 UNK         0.1400 
     23 CB          1.3829  -20.7062  -47.2339 C.3       10 UNK        -0.1800 
     24 N           1.3698  -22.0226  -45.1664 N.am      10 UNK        -0.5000 
     25 C           1.3434  -23.0747  -44.3361 C.2       9 UNK         0.5000 
     26 O           1.0306  -24.2131  -44.6831 O.2       9 UNK        -0.5000 
     27 CA          1.7080  -22.8056  -42.8680 C.3       9 UNK         0.1400 
     28 CB          3.2322  -22.7254  -42.6905 C.3       9 UNK        -0.1800 
     29 N           1.0945  -21.5659  -42.3981 N.am      9 UNK        -0.5000 
     30 C          -0.1404  -21.4857  -41.8856 C.2       8 UNK         0.5000 
     31 O          -0.8584  -22.4626  -41.6771 O.2       8 UNK        -0.5000 
     32 CA         -0.6799  -20.0781  -41.5663 C.3       8 UNK         0.1400 
     33 CB         -0.3648  -19.6988  -40.1116 C.3       8 UNK        -0.1800 
     34 N          -0.1693  -19.0325  -42.4543 N.am      8 UNK        -0.5000 
     35 C          -0.3818  -18.9803  -43.7761 C.2       7 UNK         0.5000 
     36 O          -1.0175  -19.8263  -44.4043 O.2       7 UNK        -0.5000 
     37 CA          0.2677  -17.8047  -44.5284 C.3       7 UNK         0.1400 
     38 CB         -0.5954  -16.5455  -44.3504 C.3       7 UNK        -0.1800 
     39 N           1.6526  -17.5087  -44.1352 N.am      7 UNK        -0.5000 
     40 C           2.6542  -18.3932  -43.9933 C.2       6 UNK         0.5000 
     41 O           2.5140  -19.6111  -44.1167 O.2       6 UNK        -0.5000 
     42 CA          4.0415  -17.8091  -43.6485 C.3       6 UNK         0.1400 
     43 CB          5.1697  -18.8610  -43.7053 C.3       6 UNK        -0.1800 
     44 N           4.3793  -16.6346  -44.4610 N.am      6 UNK        -0.5000 
     45 C           4.4789  -16.5830  -45.7972 C.2       5 UNK         0.5000 
     46 O           4.3531  -17.5541  -46.5464 O.2       5 UNK        -0.5000 
     47 CA          4.7332  -15.1905  -46.4043 C.3       5 UNK         0.1400 
     48 CB          6.0640  -15.1510  -47.1714 C.3       5 UNK        -0.1800 
     49 N           3.6463  -14.8090  -47.3039 N.am      5 UNK        -0.5000 
     50 C           2.3720  -14.6350  -46.9332 C.2       4 UNK         0.5000 
     51 O           1.9960  -14.6754  -45.7602 O.2       4 UNK        -0.5000 
     52 CA          1.3752  -14.3298  -48.0657 C.3       4 UNK         0.1400 
     53 CB         -0.0810  -14.6324  -47.6719 C.3       4 UNK        -0.1800 
     54 N           1.4874  -12.9303  -48.4728 N.am      4 UNK        -0.5000 
     55 C           2.4277  -12.4512  -49.3014 C.2       3 UNK         0.5000 
     56 O           3.2883  -13.1612  -49.8249 O.2       3 UNK        -0.5000 
     57 CA          2.4170  -10.9405  -49.6174 C.3       3 UNK         0.1400 
     58 CB          1.8571  -10.6953  -51.0274 C.3       3 UNK        -0.1800 
     59 N           1.6452  -10.1432  -48.6645 N.am      3 UNK        -0.5000 
     60 C           2.0273   -9.8467  -47.4147 C.2       2 UNK         0.5000 
     61 O           3.1220  -10.1571  -46.9441 O.2       2 UNK        -0.5000 
     62 CA          1.0048   -9.0944  -46.5351 C.3       2 UNK         0.1400 
     63 CB          1.3191   -7.5910  -46.5091 C.3       2 UNK        -0.1800 
     64 N          -0.3937   -9.2793  -46.9424 N.am      2 UNK        -0.5000 
     65 C          -1.0423  -10.4507  -46.9880 C.2       1 UNK         0.5000 
     66 O          -0.5058  -11.5179  -46.6951 O.2       1 UNK        -0.5000 
     67 C          -3.0340  -23.7236  -45.8068 C.2       11 UNK         0.5000 
     68 O          -3.9137  -24.4241  -46.3045 O.2       11 UNK        -0.5000 
     69 N          -2.2987  -24.1133  -44.7547 N.am      12 UNK        -0.5000 
     70 CA         -2.4060  -25.4460  -44.1549 C.3       12 UNK         0.1400 
     71 CB         -1.6937  -25.4838  -42.7955 C.3       12 UNK        -0.1800 
     72 C          -1.8722  -26.5402  -45.0961 C.2       12 UNK         0.5000 
     73 O          -2.5432  -27.5547  -45.2871 O.2       12 UNK        -0.5000 
     74 N          -0.7047  -26.2906  -45.7058 N.am      13 UNK        -0.5000 
     75 CA         -0.0783  -27.1619  -46.7015 C.3       13 UNK         0.1400 
     76 CB          1.3388  -26.6512  -47.0033 C.3       13 UNK        -0.1800 
     77 C          -0.9025  -27.2797  -47.9974 C.2       13 UNK         0.5000 
     78 O          -1.0107  -28.3736  -48.5524 O.2       13 UNK        -0.5000 
     79 N          -1.4878  -26.1589  -48.4399 N.am      14 UNK        -0.5000 
     80 CA         -2.3445  -26.0763  -49.6240 C.3       14 UNK         0.1400 
     81 CB         -2.3948  -24.6160  -50.0906 C.3       14 UNK        -0.1800 
     82 C          -3.7752  -26.6096  -49.4053 C.2       14 UNK         0.5000 
     83 O          -4.5152  -26.7323  -50.3805 O.2       14 UNK        -0.5000 
     84 N          -4.1541  -26.8872  -48.1488 N.am      15 UNK        -0.5000 
     85 CA         -5.4841  -27.3148  -47.6994 C.3       15 UNK         0.1400 
     86 CB         -5.8285  -28.7179  -48.2413 C.3       15 UNK        -0.1800 
     87 C          -6.5675  -26.2562  -48.0007 C.2       15 UNK         0.5000 
     88 O          -7.6031  -26.5649  -48.5924 O.2       15 UNK        -0.5000 
     89 N          -6.2760  -25.0145  -47.5905 N.am      16 UNK        -0.5000 
     90 CA         -7.0820  -23.7927  -47.6940 C.3       16 UNK         0.1400 
     91 CB         -8.4524  -23.9610  -47.0060 C.3       16 UNK        -0.1800 
     92 C          -7.2081  -23.2126  -49.1180 C.2       16 UNK         0.5000 
     93 O          -7.9268  -22.2283  -49.3012 O.2       16 UNK        -0.5000 
     94 N          -6.4978  -23.7859  -50.0985 N.am      17 UNK        -0.5000 
     95 CA         -6.4181  -23.2771  -51.4651 C.3       17 UNK         0.1400 
     96 CB         -6.0446  -24.4260  -52.4167 C.3       17 UNK        -0.1800 
     97 C          -5.4091  -22.1181  -51.5352 C.2       17 UNK         0.5000 
     98 O          -4.2316  -22.3439  -51.8196 O.2       17 UNK        -0.5000 
     99 N          -5.8806  -20.8924  -51.2688 N.am      18 UNK        -0.5000 
    100 CA        -5.0768  -19.6640  -51.2637 C.3       18 UNK         0.1400 
    101 CB        -5.9678  -18.4656  -50.9077 C.3       18 UNK        -0.1800 
    102 C         -4.3242  -19.4126  -52.5866 C.2       18 UNK         0.5000 
    103 O         -3.1707  -18.9853  -52.5654 O.2       18 UNK        -0.5000 
    104 N         -4.9675  -19.7521  -53.7123 N.am      19 UNK        -0.5000 
    105 CA        -4.3971  -19.6796  -55.0591 C.3       19 UNK         0.1400 
    106 CB        -5.4994  -19.9883  -56.0835 C.3       19 UNK        -0.1800 
    107 C         -3.1838  -20.6074  -55.2773 C.2       19 UNK         0.5000 
    108 O         -2.3323  -20.2913  -56.1086 O.2       19 UNK        -0.5000 
    109 N         -3.1187  -21.7202  -54.5324 N.am      20 UNK        -0.5000 
    110 CA        -1.9725  -22.6262  -54.5122 C.3       20 UNK         0.1400 
    111 CB        -2.4491  -24.0627  -54.2491 C.3       20 UNK        -0.1800 
    112 C         -0.9390  -22.1793  -53.4648 C.2       20 UNK         0.5000 
    113 O          0.2566  -22.1963  -53.7581 O.2       20 UNK        -0.5000 
    114 N         -1.4116  -21.7507  -52.2839 N.am      21 UNK        -0.5000 
    115 CA        -0.5976  -21.2614  -51.1655 C.3       21 UNK         0.1400 
    116 CB        -1.5154  -20.8978  -49.9912 C.3       21 UNK        -0.1800 
    117 C          0.2989  -20.0628  -51.5327 C.2       21 UNK         0.5000 
    118 O          1.4807  -20.0637  -51.1871 O.2       21 UNK        -0.5000 
    119 N         -0.2697  -19.0916  -52.2575 N.am      22 UNK        -0.5000 
    120 CA         0.4488  -17.9455  -52.8419 C.3       22 UNK         0.1400 
    121 C          0.9829  -18.2152  -54.2821 C.2       22 UNK         0.5000 
    122 N          0.9730  -19.4420  -54.7896 N.am      22 UNK        -0.7600 
    123 O          1.4394  -17.2952  -54.9556 O.2       22 UNK        -0.5000 
    124 C124       -0.3833  -16.6369  -52.7610 C.3       23 UNK        -0.0398 
    125 S125       -0.6278  -16.0916  -51.0359 S.3       23 UNK        -0.2404 
    126 C126       -2.4416  -15.9858  -50.9308 C.3       23 UNK        -0.0205 
    127 H127       -4.8701   -8.3773  -44.9339 H         1 UNK         0.0600 
    128 H128       -5.0583   -6.9946  -46.0162 H         1 UNK         0.0600 
    129 H129       -3.7611   -7.0079  -44.8164 H         1 UNK         0.0600 
    130 H130       -3.9178  -10.1340  -45.9261 H         1 UNK         0.3000 
    131 H131       -2.4903   -9.9164  -48.4338 H         1 UNK         0.0600 
    132 H132       -2.4298  -12.4384  -48.2917 H         1 UNK         0.0800 
    133 H133       -4.0014  -11.7023  -48.3506 H         1 UNK         0.0800 
    134 H134       -5.4488  -13.4806  -47.6320 H         1 UNK         0.0800 
    135 H135       -5.4189  -14.3307  -46.1127 H         1 UNK         0.0800 
    136 H136       -3.7903  -14.1201  -49.4553 H         1 UNK         0.1150 
    137 H137       -2.1838  -18.0828  -49.2305 H         1 UNK         0.1150 
    138 H138       -4.1664  -16.3838  -45.8337 H         1 UNK         0.1150 
    139 H139       -1.8823  -18.9829  -46.8118 H         1 UNK         0.0800 
    140 H140       -3.0598  -18.4928  -45.6090 H         1 UNK         0.0800 
    141 H141       -4.7066  -21.7056  -45.7430 H         1 UNK         0.0800 
    142 H142       -3.3963  -20.8221  -45.0222 H         1 UNK         0.0800 
    143 H143       -2.9123  -22.4980  -47.5165 H         1 UNK         0.0600 
    144 H144       -1.1370  -21.2154  -45.6247 H         1 UNK         0.3000 
    145 H145        1.8037  -22.7966  -47.0345 H         1 UNK         0.0600 
    146 H146        2.3835  -20.3512  -46.9853 H         1 UNK         0.0600 
    147 H147        1.3207  -20.7585  -48.3212 H         1 UNK         0.0600 
    148 H148        0.6694  -19.9543  -46.8986 H         1 UNK         0.0600 
    149 H149        1.6672  -21.1235  -44.7957 H         1 UNK         0.3000 
    150 H150        1.3462  -23.6444  -42.2695 H         1 UNK         0.0600 
    151 H151        3.7091  -23.6540  -43.0065 H         1 UNK         0.0600 
    152 H152        3.4984  -22.5620  -41.6462 H         1 UNK         0.0600 
    153 H153        3.6693  -21.9172  -43.2776 H         1 UNK         0.0600 
    154 H154        1.5909  -20.7096  -42.6135 H         1 UNK         0.3000 
    155 H155       -1.7651  -20.1107  -41.6840 H         1 UNK         0.0600 
    156 H156        0.7095  -19.6210  -39.9399 H         1 UNK         0.0600 
    157 H157       -0.7546  -20.4468  -39.4198 H         1 UNK         0.0600 
    158 H158       -0.8187  -18.7442  -39.8449 H         1 UNK         0.0600 
    159 H159        0.3816  -18.3022  -42.0279 H         1 UNK         0.3000 
    160 H160        0.2827  -18.0566  -45.5894 H         1 UNK         0.0600 
    161 H161       -0.6021  -16.2039  -43.3148 H         1 UNK         0.0600 
    162 H162       -1.6300  -16.7301  -44.6406 H         1 UNK         0.0600 
    163 H163       -0.2365  -15.7241  -44.9661 H         1 UNK         0.0600 
    164 H164        1.8821  -16.5264  -44.0660 H         1 UNK         0.3000 
    165 H165        3.9735  -17.4601  -42.6173 H         1 UNK         0.0600 
    166 H166        5.2592  -19.3089  -44.6954 H         1 UNK         0.0600 
    167 H167        6.1330  -18.4212  -43.4475 H         1 UNK         0.0600 
    168 H168        4.9839  -19.6701  -42.9980 H         1 UNK         0.0600 
    169 H169        4.4792  -15.7705  -43.9463 H         1 UNK         0.3000 
    170 H170        4.7811  -14.4507  -45.6024 H         1 UNK         0.0600 
    171 H171        6.0659  -15.8459  -48.0123 H         1 UNK         0.0600 
    172 H172        6.2653  -14.1529  -47.5610 H         1 UNK         0.0600 
    173 H173        6.8967  -15.4206  -46.5206 H         1 UNK         0.0600 
    174 H174        3.8771  -14.7061  -48.2838 H         1 UNK         0.3000 
    175 H175        1.6186  -14.9708  -48.9159 H         1 UNK         0.0600 
    176 H176       -0.3895  -14.0951  -46.7756 H         1 UNK         0.0600 
    177 H177       -0.7672  -14.3585  -48.4720 H         1 UNK         0.0600 
    178 H178       -0.2180  -15.6969  -47.4790 H         1 UNK         0.0600 
    179 H179        0.8509  -12.2873  -48.0145 H         1 UNK         0.3000 
    180 H180        3.4528  -10.5953  -49.5966 H         1 UNK         0.0600 
    181 H181        1.9065   -9.6394  -51.2942 H         1 UNK         0.0600 
    182 H182        0.8175  -11.0155  -51.1087 H         1 UNK         0.0600 
    183 H183        2.4288  -11.2448  -51.7765 H         1 UNK         0.0600 
    184 H184        0.7330   -9.8353  -48.9665 H         1 UNK         0.3000 
    185 H185        1.1054   -9.4830  -45.5197 H         1 UNK         0.0600 
    186 H186        0.6598   -7.0619  -45.8206 H         1 UNK         0.0600 
    187 H187        2.3434   -7.4103  -46.1804 H         1 UNK         0.0600 
    188 H188        1.2058   -7.1404  -47.4959 H         1 UNK         0.0600 
    189 H189       -0.9229   -8.4430  -47.1702 H         1 UNK         0.3000 
    190 H190       -1.5741  -23.5046  -44.4029 H         1 UNK         0.3000 
    191 H191       -3.4636  -25.6534  -43.9770 H         1 UNK         0.0600 
    192 H192       -1.7535  -26.4782  -42.3517 H         1 UNK         0.0600 
    193 H193       -2.1555  -24.7899  -42.0936 H         1 UNK         0.0600 
    194 H194       -0.6386  -25.2257  -42.8783 H         1 UNK         0.0600 
    195 H195       -0.1943  -25.4458  -45.4606 H         1 UNK         0.3000 
    196 H196        0.0044  -28.1606  -46.2679 H         1 UNK         0.0600 
    197 H197        1.3239  -25.6381  -47.4071 H         1 UNK         0.0600 
    198 H198        1.9534  -26.6414  -46.1030 H         1 UNK         0.0600 
    199 H199        1.8386  -27.2900  -47.7326 H         1 UNK         0.0600 
    200 H200       -1.2825  -25.2828  -47.9683 H         1 UNK         0.3000 
    201 H201       -1.8930  -26.6705  -50.4212 H         1 UNK         0.0600 
    202 H202       -2.9515  -24.5262  -51.0213 H         1 UNK         0.0600 
    203 H203       -2.8857  -23.9794  -49.3552 H         1 UNK         0.0600 
    204 H204       -1.3960  -24.2198  -50.2729 H         1 UNK         0.0600 
    205 H205       -3.4792  -26.7273  -47.4127 H         1 UNK         0.3000 
    206 H206       -5.4258  -27.3908  -46.6125 H         1 UNK         0.0600 
    207 H207       -5.0503  -29.4382  -47.9891 H         1 UNK         0.0600 
    208 H208       -6.7610  -29.0828  -47.8094 H         1 UNK         0.0600 
    209 H209       -5.9492  -28.7201  -49.3249 H         1 UNK         0.0600 
    210 H210       -5.3740  -24.8791  -47.1313 H         1 UNK         0.3000 
    211 H211       -6.5305  -23.0413  -47.1273 H         1 UNK         0.0600 
    212 H212       -8.9709  -23.0047  -46.9286 H         1 UNK         0.0600 
    213 H213       -8.3410  -24.3498  -45.9938 H         1 UNK         0.0600 
    214 H214       -9.1046  -24.6382  -47.5577 H         1 UNK         0.0600 
    215 H215       -5.9285  -24.5914  -49.8800 H         1 UNK         0.3000 
    216 H216       -7.3969  -22.9027  -51.7724 H         1 UNK         0.0600 
    217 H217       -5.0767  -24.8613  -52.1708 H         1 UNK         0.0600 
    218 H218       -5.9917  -24.0761  -53.4483 H         1 UNK         0.0600 
    219 H219       -6.7859  -25.2243  -52.3798 H         1 UNK         0.0600 
    220 H220       -6.8472  -20.8026  -50.9856 H         1 UNK         0.3000 
    221 H221       -4.3380  -19.7684  -50.4701 H         1 UNK         0.0600 
    222 H222       -6.4229  -18.5933  -49.9251 H         1 UNK         0.0600 
    223 H223       -6.7678  -18.3259  -51.6355 H         1 UNK         0.0600 
    224 H224       -5.3862  -17.5433  -50.8743 H         1 UNK         0.0600 
    225 H225       -5.9084  -20.1090  -53.6364 H         1 UNK         0.3000 
    226 H226       -4.0562  -18.6547  -55.2201 H         1 UNK         0.0600 
    227 H227       -5.8988  -20.9949  -55.9533 H         1 UNK         0.0600 
    228 H228       -6.3269  -19.2836  -55.9982 H         1 UNK         0.0600 
    229 H229       -5.1172  -19.9161  -57.1027 H         1 UNK         0.0600 
    230 H230       -3.8279  -21.8809  -53.8283 H         1 UNK         0.3000 
    231 H231       -1.4823  -22.6183  -55.4882 H         1 UNK         0.0600 
    232 H232       -2.9727  -24.1501  -53.2991 H         1 UNK         0.0600 
    233 H233       -1.6067  -24.7550  -54.2243 H         1 UNK         0.0600 
    234 H234       -3.1262  -24.4010  -55.0334 H         1 UNK         0.0600 
    235 H235       -2.4127  -21.8047  -52.1209 H         1 UNK         0.3000 
    236 H236        0.0510  -22.0810  -50.8497 H         1 UNK         0.0600 
    237 H237       -2.1328  -21.7411  -49.6875 H         1 UNK         0.0600 
    238 H238       -0.9425  -20.5785  -49.1217 H         1 UNK         0.0600 
    239 H239       -2.1778  -20.0786  -50.2552 H         1 UNK         0.0600 
    240 H240       -1.2612  -19.1564  -52.4744 H         1 UNK         0.3000 
    241 H241        1.3520  -17.7715  -52.2542 H         1 UNK         0.0600 
    242 H242        1.3243  -19.5880  -55.7225 H         1 UNK         0.3800 
    243 H243        0.6530  -20.2360  -54.2493 H         1 UNK         0.3800 
    244 H244       -1.3422  -16.7651  -53.2652 H         1 UNK         0.0800 
    245 H245        0.1226  -15.8188  -53.2760 H         1 UNK         0.0800 
    246 H246       -2.9007  -16.7868  -51.5029 H         1 UNK         0.0800 
    247 H247       -2.7688  -15.0527  -51.3915 H         1 UNK         0.0800 
@<TRIPOS>BOND
     1    1    2 1    
     2    1  127 1    
     3    1  128 1    
     4    1  129 1    
     5    2    3 2    
     6    2    4 am   BACKBONE|DICT|INTERRES
     7    4    5 1    
     8    4  130 1    
     9    5    6 1    
    10    5   65 1    
    11    5  131 1    
    12    6    7 1    
    13    6  132 1    
    14    6  133 1    
    15    7    8 1    
    16    8    9 1    
    17    8  134 1    
    18    8  135 1    
    19    9   10 ar   
    20    9   14 ar   
    21   10   11 ar   
    22   10  136 1    
    23   11   12 ar   
    24   11  126 1    
    25   12   13 ar   
    26   12  137 1    
    27   13   14 ar   
    28   13   15 1    
    29   14  138 1    
    30   15   16 1    
    31   15  139 1    
    32   15  140 1    
    33   16   17 1    
    34   17   18 1    
    35   17  141 1    
    36   17  142 1    
    37   18   19 1    
    38   18   67 1    
    39   18  143 1    
    40   19   20 am   BACKBONE|DICT|INTERRES
    41   19  144 1    
    42   20   21 2    
    43   20   22 1    
    44   22   23 1    
    45   22   24 1    
    46   22  145 1    
    47   23  146 1    
    48   23  147 1    
    49   23  148 1    
    50   24   25 am   BACKBONE|DICT|INTERRES
    51   24  149 1    
    52   25   26 2    
    53   25   27 1    
    54   27   28 1    
    55   27   29 1    
    56   27  150 1    
    57   28  151 1    
    58   28  152 1    
    59   28  153 1    
    60   29   30 am   BACKBONE|DICT|INTERRES
    61   29  154 1    
    62   30   31 2    
    63   30   32 1    
    64   32   33 1    
    65   32   34 1    
    66   32  155 1    
    67   33  156 1    
    68   33  157 1    
    69   33  158 1    
    70   34   35 am   BACKBONE|DICT|INTERRES
    71   34  159 1    
    72   35   36 2    
    73   35   37 1    
    74   37   38 1    
    75   37   39 1    
    76   37  160 1    
    77   38  161 1    
    78   38  162 1    
    79   38  163 1    
    80   39   40 am   BACKBONE|DICT|INTERRES
    81   39  164 1    
    82   40   41 2    
    83   40   42 1    
    84   42   43 1    
    85   42   44 1    
    86   42  165 1    
    87   43  166 1    
    88   43  167 1    
    89   43  168 1    
    90   44   45 am   BACKBONE|DICT|INTERRES
    91   44  169 1    
    92   45   46 2    
    93   45   47 1    
    94   47   48 1    
    95   47   49 1    
    96   47  170 1    
    97   48  171 1    
    98   48  172 1    
    99   48  173 1    
   100   49   50 am   BACKBONE|DICT|INTERRES
   101   49  174 1    
   102   50   51 2    
   103   50   52 1    
   104   52   53 1    
   105   52   54 1    
   106   52  175 1    
   107   53  176 1    
   108   53  177 1    
   109   53  178 1    
   110   54   55 am   BACKBONE|DICT|INTERRES
   111   54  179 1    
   112   55   56 2    
   113   55   57 1    
   114   57   58 1    
   115   57   59 1    
   116   57  180 1    
   117   58  181 1    
   118   58  182 1    
   119   58  183 1    
   120   59   60 am   BACKBONE|DICT|INTERRES
   121   59  184 1    
   122   60   61 2    
   123   60   62 1    
   124   62   63 1    
   125   62   64 1    
   126   62  185 1    
   127   63  186 1    
   128   63  187 1    
   129   63  188 1    
   130   64   65 am   BACKBONE|DICT|INTERRES
   131   64  189 1    
   132   65   66 2    
   133   67   68 2    
   134   67   69 am   BACKBONE|DICT|INTERRES
   135   69   70 1    
   136   69  190 1    
   137   70   71 1    
   138   70   72 1    
   139   70  191 1    
   140   71  192 1    
   141   71  193 1    
   142   71  194 1    
   143   72   73 2    
   144   72   74 am   BACKBONE|DICT|INTERRES
   145   74   75 1    
   146   74  195 1    
   147   75   76 1    
   148   75   77 1    
   149   75  196 1    
   150   76  197 1    
   151   76  198 1    
   152   76  199 1    
   153   77   78 2    
   154   77   79 am   BACKBONE|DICT|INTERRES
   155   79   80 1    
   156   79  200 1    
   157   80   81 1    
   158   80   82 1    
   159   80  201 1    
   160   81  202 1    
   161   81  203 1    
   162   81  204 1    
   163   82   83 2    
   164   82   84 am   BACKBONE|DICT|INTERRES
   165   84   85 1    
   166   84  205 1    
   167   85   86 1    
   168   85   87 1    
   169   85  206 1    
   170   86  207 1    
   171   86  208 1    
   172   86  209 1    
   173   87   88 2    
   174   87   89 am   BACKBONE|DICT|INTERRES
   175   89   90 1    
   176   89  210 1    
   177   90   91 1    
   178   90   92 1    
   179   90  211 1    
   180   91  212 1    
   181   91  213 1    
   182   91  214 1    
   183   92   93 2    
   184   92   94 am   BACKBONE|DICT|INTERRES
   185   94   95 1    
   186   94  215 1    
   187   95   96 1    
   188   95   97 1    
   189   95  216 1    
   190   96  217 1    
   191   96  218 1    
   192   96  219 1    
   193   97   98 2    
   194   97   99 am   BACKBONE|DICT|INTERRES
   195   99  100 1    
   196   99  220 1    
   197  100  101 1    
   198  100  102 1    
   199  100  221 1    
   200  101  222 1    
   201  101  223 1    
   202  101  224 1    
   203  102  103 2    
   204  102  104 am   BACKBONE|DICT|INTERRES
   205  104  105 1    
   206  104  225 1    
   207  105  106 1    
   208  105  107 1    
   209  105  226 1    
   210  106  227 1    
   211  106  228 1    
   212  106  229 1    
   213  107  108 2    
   214  107  109 am   BACKBONE|DICT|INTERRES
   215  109  110 1    
   216  109  230 1    
   217  110  111 1    
   218  110  112 1    
   219  110  231 1    
   220  111  232 1    
   221  111  233 1    
   222  111  234 1    
   223  112  113 2    
   224  112  114 am   BACKBONE|DICT|INTERRES
   225  114  115 1    
   226  114  235 1    
   227  115  116 1    
   228  115  117 1    
   229  115  236 1    
   230  116  237 1    
   231  116  238 1    
   232  116  239 1    
   233  117  118 2    
   234  117  119 am   BACKBONE|DICT|INTERRES
   235  119  120 1    
   236  119  240 1    
   237  120  121 1    
   238  120  124 1    
   239  120  241 1    
   240  121  122 am   BACKBONE|DICT|INTERRES
   241  121  123 2    
   242  122  242 1    
   243  122  243 1    
   244  124  125 1    
   245  124  244 1    
   246  124  245 1    
   247  125  126 1    
   248  126  246 1    
   249  126  247 1    
@<TRIPOS>SUBSTRUCTURE
     1 UNK         1 GROUP             0       ****    0 ROOT    
