@<TRIPOS>MOLECULE
3R540
247   249    1
SMALL
USER_CHARGES


@<TRIPOS>ATOM
      1 CA          1.2951  -10.6583  -45.4374 C.3       0 UNK        -0.1800 
      2 C           1.5064  -11.0180  -46.9004 C.2       0 UNK         0.5000 
      3 O           2.3422  -10.4086  -47.5668 O.2       0 UNK        -0.5000 
      4 N           0.7399  -11.9983  -47.3973 N.am      1 UNK        -0.5000 
      5 CA          0.7599  -12.4745  -48.7858 C.3       1 UNK         0.1400 
      6 C6         -0.4284  -13.4257  -49.0634 C.3       23 UNK        -0.0398 
      7 S7         -0.8327  -13.5894  -50.8366 S.3       23 UNK        -0.2404 
      8 C8         -0.0982  -15.2055  -51.2624 C.3       23 UNK        -0.0205 
      9 C9         -0.6106  -16.3440  -50.3887 C.ar      23 UNK        -0.0193 
     10 C10        -1.9796  -16.6200  -50.3128 C.ar      23 UNK        -0.1150 
     11 C11        -2.4519  -17.6445  -49.4888 C.ar      23 UNK        -0.0193 
     12 C12        -1.5423  -18.4147  -48.7613 C.ar      23 UNK        -0.1150 
     13 C13        -0.1699  -18.1597  -48.8367 C.ar      23 UNK        -0.0193 
     14 C14         0.2890  -17.1188  -49.6492 C.ar      23 UNK        -0.1150 
     15 C15         0.8130  -19.0348  -48.0726 C.3       23 UNK        -0.0205 
     16 S16         0.4661  -19.0705  -46.2829 S.3       23 UNK        -0.2404 
     17 C17         1.3753  -20.5786  -45.7897 C.3       23 UNK        -0.0398 
     18 CA          0.5722  -21.9116  -45.7270 C.3       11 UNK         0.1400 
     19 N          -0.0408  -22.1808  -44.4231 N.am      11 UNK        -0.5000 
     20 C          -0.3547  -23.4191  -44.0059 C.2       10 UNK         0.5000 
     21 O          -0.1247  -24.4361  -44.6623 O.2       10 UNK        -0.5000 
     22 CA         -1.0792  -23.5481  -42.6533 C.3       10 UNK         0.1400 
     23 CB         -0.0742  -23.4921  -41.4932 C.3       10 UNK        -0.1800 
     24 N          -2.1020  -22.5226  -42.4567 N.am      10 UNK        -0.5000 
     25 C          -3.2082  -22.3896  -43.2027 C.2       9 UNK         0.5000 
     26 O          -3.5182  -23.1641  -44.1065 O.2       9 UNK        -0.5000 
     27 CA         -4.0880  -21.1534  -42.9249 C.3       9 UNK         0.1400 
     28 CB         -5.2023  -21.4996  -41.9266 C.3       9 UNK        -0.1800 
     29 N          -3.3296  -20.0010  -42.4255 N.am      9 UNK        -0.5000 
     30 C          -2.3391  -19.3977  -43.0955 C.2       8 UNK         0.5000 
     31 O          -1.9850  -19.7308  -44.2298 O.2       8 UNK        -0.5000 
     32 CA         -1.5785  -18.2990  -42.3412 C.3       8 UNK         0.1400 
     33 CB         -0.7163  -18.9185  -41.2215 C.3       8 UNK        -0.1800 
     34 N          -0.7272  -17.5757  -43.2792 N.am      8 UNK        -0.5000 
     35 C          -0.1307  -16.4032  -43.0451 C.2       7 UNK         0.5000 
     36 O          -0.2719  -15.7546  -42.0059 O.2       7 UNK        -0.5000 
     37 CA          0.7939  -15.8687  -44.1541 C.3       7 UNK         0.1400 
     38 CB          0.3661  -14.4683  -44.6185 C.3       7 UNK        -0.1800 
     39 N           2.1873  -15.8215  -43.7157 N.am      7 UNK        -0.5000 
     40 C           2.9351  -16.8915  -43.4100 C.2       6 UNK         0.5000 
     41 O           2.5305  -18.0525  -43.4639 O.2       6 UNK        -0.5000 
     42 CA          4.3907  -16.6305  -42.9945 C.3       6 UNK         0.1400 
     43 CB          5.2893  -16.5486  -44.2378 C.3       6 UNK        -0.1800 
     44 N           4.5426  -15.4052  -42.2079 N.am      6 UNK        -0.5000 
     45 C           4.5230  -15.3611  -40.8685 C.2       5 UNK         0.5000 
     46 O           4.3021  -16.3437  -40.1593 O.2       5 UNK        -0.5000 
     47 CA          4.8408  -14.0114  -40.1940 C.3       5 UNK         0.1400 
     48 CB          6.2809  -14.0158  -39.6561 C.3       5 UNK        -0.1800 
     49 N           4.6876  -12.8705  -41.0979 N.am      5 UNK        -0.5000 
     50 C           3.5553  -12.1725  -41.2509 C.2       4 UNK         0.5000 
     51 O           2.5243  -12.3879  -40.6133 O.2       4 UNK        -0.5000 
     52 CA          3.5711  -11.0536  -42.3126 C.3       4 UNK         0.1400 
     53 CB          3.9920   -9.7175  -41.6824 C.3       4 UNK        -0.1800 
     54 N           4.4263  -11.3283  -43.4753 N.am      4 UNK        -0.5000 
     55 C           4.2705  -12.3711  -44.2990 C.2       3 UNK         0.5000 
     56 O           3.4367  -13.2642  -44.1143 O.2       3 UNK        -0.5000 
     57 CA          5.1994  -12.4535  -45.5182 C.3       3 UNK         0.1400 
     58 CB          6.6000  -12.9457  -45.1050 C.3       3 UNK        -0.1800 
     59 N           4.5563  -13.3796  -46.4404 N.am      3 UNK        -0.5000 
     60 C           4.9069  -13.7170  -47.6839 C.2       2 UNK         0.5000 
     61 O           5.9135  -13.3091  -48.2633 O.2       2 UNK        -0.5000 
     62 CA          3.9126  -14.6429  -48.4065 C.3       2 UNK         0.1400 
     63 CB          3.9083  -16.0517  -47.7878 C.3       2 UNK        -0.1800 
     64 N           2.5631  -14.0784  -48.3422 N.am      2 UNK        -0.5000 
     65 C           2.1167  -13.1118  -49.1568 C.2       1 UNK         0.5000 
     66 O           2.7392  -12.6989  -50.1365 O.2       1 UNK        -0.5000 
     67 C          -0.4524  -22.1047  -46.8628 C.2       11 UNK         0.5000 
     68 O          -0.0885  -22.6446  -47.9045 O.2       11 UNK        -0.5000 
     69 N          -1.7157  -21.7133  -46.6316 N.am      12 UNK        -0.5000 
     70 CA         -2.8236  -21.9145  -47.5687 C.3       12 UNK         0.1400 
     71 CB         -4.0745  -21.1820  -47.0625 C.3       12 UNK        -0.1800 
     72 C          -3.1172  -23.4047  -47.8184 C.2       12 UNK         0.5000 
     73 O          -3.3514  -23.7933  -48.9611 O.2       12 UNK        -0.5000 
     74 N          -3.0509  -24.2242  -46.7603 N.am      13 UNK        -0.5000 
     75 CA         -3.1559  -25.6808  -46.8379 C.3       13 UNK         0.1400 
     76 CB         -3.2263  -26.2711  -45.4216 C.3       13 UNK        -0.1800 
     77 C          -2.0041  -26.3114  -47.6432 C.2       13 UNK         0.5000 
     78 O          -2.2582  -27.1712  -48.4870 O.2       13 UNK        -0.5000 
     79 N          -0.7696  -25.8479  -47.3985 N.am      14 UNK        -0.5000 
     80 CA          0.4363  -26.2838  -48.1075 C.3       14 UNK         0.1400 
     81 CB          1.6786  -25.7510  -47.3776 C.3       14 UNK        -0.1800 
     82 C           0.4521  -25.8655  -49.5915 C.2       14 UNK         0.5000 
     83 O           0.8644  -26.6553  -50.4415 O.2       14 UNK        -0.5000 
     84 N          -0.0132  -24.6422  -49.8770 N.am      15 UNK        -0.5000 
     85 CA         -0.1245  -24.0677  -51.2200 C.3       15 UNK         0.1400 
     86 CB         -0.2871  -22.5432  -51.0959 C.3       15 UNK        -0.1800 
     87 C          -1.2775  -24.6560  -52.0574 C.2       15 UNK         0.5000 
     88 O          -1.2925  -24.4436  -53.2698 O.2       15 UNK        -0.5000 
     89 N          -2.2077  -25.3649  -51.3997 N.am      16 UNK        -0.5000 
     90 CA         -3.4682  -25.9030  -51.9127 C.3       16 UNK         0.1400 
     91 CB         -3.2488  -26.8824  -53.0850 C.3       16 UNK        -0.1800 
     92 C          -4.4371  -24.7594  -52.2571 C.2       16 UNK         0.5000 
     93 O          -4.5348  -24.3535  -53.4147 O.2       16 UNK        -0.5000 
     94 N          -5.1140  -24.2532  -51.2186 N.am      17 UNK        -0.5000 
     95 CA         -6.0020  -23.0863  -51.1746 C.3       17 UNK         0.1400 
     96 CB         -6.8119  -23.1455  -49.8691 C.3       17 UNK        -0.1800 
     97 C          -6.9521  -22.8885  -52.3710 C.2       17 UNK         0.5000 
     98 O          -7.1470  -21.7501  -52.7972 O.2       17 UNK        -0.5000 
     99 N          -7.5127  -23.9855  -52.8963 N.am      18 UNK        -0.5000 
    100 CA        -8.4065  -23.9848  -54.0562 C.3       18 UNK         0.1400 
    101 CB        -9.1007  -25.3515  -54.1548 C.3       18 UNK        -0.1800 
    102 C         -7.6942  -23.6455  -55.3811 C.2       18 UNK         0.5000 
    103 O         -8.2986  -23.0100  -56.2452 O.2       18 UNK        -0.5000 
    104 N         -6.4289  -24.0631  -55.5152 N.am      19 UNK        -0.5000 
    105 CA        -5.5734  -23.7805  -56.6684 C.3       19 UNK         0.1400 
    106 CB        -4.5794  -24.9371  -56.8587 C.3       19 UNK        -0.1800 
    107 C         -4.8272  -22.4473  -56.4934 C.2       19 UNK         0.5000 
    108 O         -4.6480  -21.7167  -57.4682 O.2       19 UNK        -0.5000 
    109 N         -4.4316  -22.1431  -55.2494 N.am      20 UNK        -0.5000 
    110 CA        -3.7794  -20.8943  -54.8479 C.3       20 UNK         0.1400 
    111 CB        -3.1657  -21.0873  -53.4531 C.3       20 UNK        -0.1800 
    112 C         -4.7205  -19.6709  -54.8642 C.2       20 UNK         0.5000 
    113 O         -4.2324  -18.5404  -54.8519 O.2       20 UNK        -0.5000 
    114 N         -6.0382  -19.9216  -54.8976 N.am      21 UNK        -0.5000 
    115 CA        -7.1405  -18.9562  -54.8806 C.3       21 UNK         0.1400 
    116 CB        -7.1139  -18.0510  -56.1302 C.3       21 UNK        -0.1800 
    117 C         -7.2136  -18.1751  -53.5529 C.2       21 UNK         0.5000 
    118 O         -7.4331  -16.9621  -53.5510 O.2       21 UNK        -0.5000 
    119 N         -7.0353  -18.9006  -52.4428 N.am      22 UNK        -0.5000 
    120 CA        -7.1282  -18.3774  -51.0703 C.3       22 UNK         0.1400 
    121 C         -8.5877  -18.2164  -50.5514 C.2       22 UNK         0.5000 
    122 N         -9.6020  -18.7380  -51.2315 N.am      22 UNK        -0.7600 
    123 O         -8.8049  -17.5977  -49.5134 O.2       22 UNK        -0.5000 
    124 C124       -6.2872  -19.2174  -50.0763 C.3       23 UNK        -0.0398 
    125 S125       -4.5066  -19.2193  -50.4712 S.3       23 UNK        -0.2404 
    126 C126       -3.9435  -17.8989  -49.3567 C.3       23 UNK        -0.0205 
    127 H127        0.4220  -10.0149  -45.3298 H         1 UNK         0.0600 
    128 H128        2.1604  -10.1232  -45.0466 H         1 UNK         0.0600 
    129 H129        1.1459  -11.5503  -44.8297 H         1 UNK         0.0600 
    130 H130        0.0582  -12.4332  -46.7929 H         1 UNK         0.3000 
    131 H131        0.6343  -11.5906  -49.4154 H         1 UNK         0.0600 
    132 H132       -1.3280  -13.0263  -48.5928 H         1 UNK         0.0800 
    133 H133       -0.2743  -14.4005  -48.6000 H         1 UNK         0.0800 
    134 H134       -0.3281  -15.4322  -52.3043 H         1 UNK         0.0800 
    135 H135        0.9881  -15.1260  -51.1999 H         1 UNK         0.0800 
    136 H136       -2.6785  -16.0216  -50.8803 H         1 UNK         0.1150 
    137 H137       -1.9022  -19.2104  -48.1265 H         1 UNK         0.1150 
    138 H138        1.3482  -16.9157  -49.7139 H         1 UNK         0.1150 
    139 H139        0.7585  -20.0417  -48.4869 H         1 UNK         0.0800 
    140 H140        1.8386  -18.6962  -48.2235 H         1 UNK         0.0800 
    141 H141        2.2089  -20.7011  -46.4830 H         1 UNK         0.0800 
    142 H142        1.8447  -20.3858  -44.8242 H         1 UNK         0.0800 
    143 H143        1.3203  -22.6945  -45.8725 H         1 UNK         0.0600 
    144 H144       -0.3254  -21.3789  -43.8786 H         1 UNK         0.3000 
    145 H145       -1.5722  -24.5224  -42.6325 H         1 UNK         0.0600 
    146 H146       -0.5666  -23.6658  -40.5362 H         1 UNK         0.0600 
    147 H147        0.6942  -24.2582  -41.6056 H         1 UNK         0.0600 
    148 H148        0.4300  -22.5262  -41.4412 H         1 UNK         0.0600 
    149 H149       -1.9322  -21.8442  -41.7298 H         1 UNK         0.3000 
    150 H150       -4.5527  -20.8611  -43.8683 H         1 UNK         0.0600 
    151 H151       -5.7986  -22.3403  -42.2838 H         1 UNK         0.0600 
    152 H152       -5.8814  -20.6585  -41.7856 H         1 UNK         0.0600 
    153 H153       -4.7987  -21.7742  -40.9512 H         1 UNK         0.0600 
    154 H154       -3.5633  -19.6779  -41.4976 H         1 UNK         0.3000 
    155 H155       -2.3074  -17.6083  -41.9128 H         1 UNK         0.0600 
    156 H156       -0.1925  -18.1525  -40.6497 H         1 UNK         0.0600 
    157 H157        0.0342  -19.5992  -41.6261 H         1 UNK         0.0600 
    158 H158       -1.3247  -19.4808  -40.5126 H         1 UNK         0.0600 
    159 H159       -0.5845  -18.0567  -44.1612 H         1 UNK         0.3000 
    160 H160        0.7382  -16.5314  -45.0175 H         1 UNK         0.0600 
    161 H161        0.4343  -13.7398  -43.8094 H         1 UNK         0.0600 
    162 H162       -0.6643  -14.4723  -44.9758 H         1 UNK         0.0600 
    163 H163        0.9967  -14.1200  -45.4352 H         1 UNK         0.0600 
    164 H164        2.6027  -14.8975  -43.6466 H         1 UNK         0.3000 
    165 H165        4.7243  -17.4875  -42.4052 H         1 UNK         0.0600 
    166 H166        5.0095  -15.7158  -44.8814 H         1 UNK         0.0600 
    167 H167        6.3362  -16.4242  -43.9609 H         1 UNK         0.0600 
    168 H168        5.2166  -17.4598  -44.8331 H         1 UNK         0.0600 
    169 H169        4.6434  -14.5416  -42.7211 H         1 UNK         0.3000 
    170 H170        4.1649  -13.9017  -39.3431 H         1 UNK         0.0600 
    171 H171        6.4335  -14.8349  -38.9520 H         1 UNK         0.0600 
    172 H172        7.0108  -14.1323  -40.4583 H         1 UNK         0.0600 
    173 H173        6.5069  -13.0894  -39.1277 H         1 UNK         0.0600 
    174 H174        5.4923  -12.6113  -41.6495 H         1 UNK         0.3000 
    175 H175        2.5472  -10.9470  -42.6762 H         1 UNK         0.0600 
    176 H176        5.0242   -9.7460  -41.3312 H         1 UNK         0.0600 
    177 H177        3.9013   -8.8985  -42.3961 H         1 UNK         0.0600 
    178 H178        3.3607   -9.4721  -40.8272 H         1 UNK         0.0600 
    179 H179        5.1395  -10.6427  -43.6790 H         1 UNK         0.3000 
    180 H180        5.2637  -11.4710  -45.9893 H         1 UNK         0.0600 
    181 H181        6.5634  -13.9227  -44.6244 H         1 UNK         0.0600 
    182 H182        7.0650  -12.2541  -44.4016 H         1 UNK         0.0600 
    183 H183        7.2685  -13.0216  -45.9621 H         1 UNK         0.0600 
    184 H184        3.7065  -13.7646  -46.0482 H         1 UNK         0.3000 
    185 H185        4.2263  -14.7318  -49.4490 H         1 UNK         0.0600 
    186 H186        3.3272  -16.7424  -48.3970 H         1 UNK         0.0600 
    187 H187        4.9200  -16.4544  -47.7217 H         1 UNK         0.0600 
    188 H188        3.4838  -16.0591  -46.7834 H         1 UNK         0.0600 
    189 H189        1.9889  -14.3567  -47.5620 H         1 UNK         0.3000 
    190 H190       -1.9224  -21.2332  -45.7631 H         1 UNK         0.3000 
    191 H191       -2.5348  -21.4715  -48.5240 H         1 UNK         0.0600 
    192 H192       -4.8614  -21.1950  -47.8174 H         1 UNK         0.0600 
    193 H193       -3.8591  -20.1383  -46.8341 H         1 UNK         0.0600 
    194 H194       -4.4776  -21.6450  -46.1624 H         1 UNK         0.0600 
    195 H195       -2.9324  -23.8220  -45.8350 H         1 UNK         0.3000 
    196 H196       -4.0899  -25.9203  -47.3505 H         1 UNK         0.0600 
    197 H197       -3.3213  -27.3571  -45.4551 H         1 UNK         0.0600 
    198 H198       -4.0889  -25.8856  -44.8777 H         1 UNK         0.0600 
    199 H199       -2.3344  -26.0365  -44.8405 H         1 UNK         0.0600 
    200 H200       -0.6441  -25.1563  -46.6686 H         1 UNK         0.3000 
    201 H201        0.4672  -27.3748  -48.0717 H         1 UNK         0.0600 
    202 H202        1.7024  -26.0882  -46.3412 H         1 UNK         0.0600 
    203 H203        1.7089  -24.6615  -47.3754 H         1 UNK         0.0600 
    204 H204        2.5930  -26.1034  -47.8563 H         1 UNK         0.0600 
    205 H205       -0.2568  -24.0230  -49.1064 H         1 UNK         0.3000 
    206 H206        0.8051  -24.2690  -51.7560 H         1 UNK         0.0600 
    207 H207        0.5480  -22.0983  -50.5546 H         1 UNK         0.0600 
    208 H208       -0.3235  -22.0699  -52.0777 H         1 UNK         0.0600 
    209 H209       -1.2061  -22.2802  -50.5702 H         1 UNK         0.0600 
    210 H210       -2.0950  -25.4292  -50.3966 H         1 UNK         0.3000 
    211 H211       -3.9101  -26.4750  -51.0952 H         1 UNK         0.0600 
    212 H212       -2.8492  -26.3898  -53.9714 H         1 UNK         0.0600 
    213 H213       -4.1900  -27.3499  -53.3758 H         1 UNK         0.0600 
    214 H214       -2.5605  -27.6802  -52.8065 H         1 UNK         0.0600 
    215 H215       -4.8425  -24.5934  -50.3046 H         1 UNK         0.3000 
    216 H216       -5.3589  -22.2071  -51.1285 H         1 UNK         0.0600 
    217 H217       -7.5474  -22.3425  -49.8133 H         1 UNK         0.0600 
    218 H218       -6.1631  -23.0530  -48.9982 H         1 UNK         0.0600 
    219 H219       -7.3569  -24.0860  -49.7805 H         1 UNK         0.0600 
    220 H220       -7.2904  -24.8819  -52.4894 H         1 UNK         0.3000 
    221 H221       -9.1740  -23.2254  -53.8915 H         1 UNK         0.0600 
    222 H222       -8.3815  -26.1592  -54.2967 H         1 UNK         0.0600 
    223 H223       -9.6763  -25.5676  -53.2546 H         1 UNK         0.0600 
    224 H224       -9.7941  -25.3776  -54.9966 H         1 UNK         0.0600 
    225 H225       -5.9705  -24.4961  -54.7197 H         1 UNK         0.3000 
    226 H226       -6.1862  -23.7105  -57.5697 H         1 UNK         0.0600 
    227 H227       -5.1000  -25.8824  -57.0117 H         1 UNK         0.0600 
    228 H228       -3.9477  -24.7677  -57.7315 H         1 UNK         0.0600 
    229 H229       -3.9220  -25.0528  -55.9961 H         1 UNK         0.0600 
    230 H230       -4.5593  -22.8435  -54.5231 H         1 UNK         0.3000 
    231 H231       -2.9695  -20.6923  -55.5516 H         1 UNK         0.0600 
    232 H232       -2.6366  -20.1912  -53.1261 H         1 UNK         0.0600 
    233 H233       -2.4505  -21.9093  -53.4481 H         1 UNK         0.0600 
    234 H234       -3.9299  -21.3059  -52.7088 H         1 UNK         0.0600 
    235 H235       -6.3173  -20.8914  -54.8385 H         1 UNK         0.3000 
    236 H236       -8.0552  -19.5488  -54.9301 H         1 UNK         0.0600 
    237 H237       -7.0664  -18.6431  -57.0441 H         1 UNK         0.0600 
    238 H238       -8.0152  -17.4395  -56.1865 H         1 UNK         0.0600 
    239 H239       -6.2608  -17.3723  -56.1249 H         1 UNK         0.0600 
    240 H240       -6.9014  -19.9038  -52.5382 H         1 UNK         0.3000 
    241 H241       -6.7085  -17.3695  -51.0718 H         1 UNK         0.0600 
    242 H242       -9.4383  -19.2544  -52.0805 H         1 UNK         0.3800 
    243 H243      -10.5426  -18.6216  -50.8879 H         1 UNK         0.3800 
    244 H244       -6.4179  -18.8594  -49.0534 H         1 UNK         0.0800 
    245 H245       -6.6348  -20.2486  -50.0746 H         1 UNK         0.0800 
    246 H246       -4.1784  -18.1662  -48.3255 H         1 UNK         0.0800 
    247 H247       -4.4992  -16.9847  -49.5714 H         1 UNK         0.0800 
@<TRIPOS>BOND
     1    1    2 1    
     2    1  127 1    
     3    1  128 1    
     4    1  129 1    
     5    2    3 2    
     6    2    4 am   BACKBONE|DICT|INTERRES
     7    4    5 1    
     8    4  130 1    
     9    5    6 1    
    10    5   65 1    
    11    5  131 1    
    12    6    7 1    
    13    6  132 1    
    14    6  133 1    
    15    7    8 1    
    16    8    9 1    
    17    8  134 1    
    18    8  135 1    
    19    9   10 ar   
    20    9   14 ar   
    21   10   11 ar   
    22   10  136 1    
    23   11   12 ar   
    24   11  126 1    
    25   12   13 ar   
    26   12  137 1    
    27   13   14 ar   
    28   13   15 1    
    29   14  138 1    
    30   15   16 1    
    31   15  139 1    
    32   15  140 1    
    33   16   17 1    
    34   17   18 1    
    35   17  141 1    
    36   17  142 1    
    37   18   19 1    
    38   18   67 1    
    39   18  143 1    
    40   19   20 am   BACKBONE|DICT|INTERRES
    41   19  144 1    
    42   20   21 2    
    43   20   22 1    
    44   22   23 1    
    45   22   24 1    
    46   22  145 1    
    47   23  146 1    
    48   23  147 1    
    49   23  148 1    
    50   24   25 am   BACKBONE|DICT|INTERRES
    51   24  149 1    
    52   25   26 2    
    53   25   27 1    
    54   27   28 1    
    55   27   29 1    
    56   27  150 1    
    57   28  151 1    
    58   28  152 1    
    59   28  153 1    
    60   29   30 am   BACKBONE|DICT|INTERRES
    61   29  154 1    
    62   30   31 2    
    63   30   32 1    
    64   32   33 1    
    65   32   34 1    
    66   32  155 1    
    67   33  156 1    
    68   33  157 1    
    69   33  158 1    
    70   34   35 am   BACKBONE|DICT|INTERRES
    71   34  159 1    
    72   35   36 2    
    73   35   37 1    
    74   37   38 1    
    75   37   39 1    
    76   37  160 1    
    77   38  161 1    
    78   38  162 1    
    79   38  163 1    
    80   39   40 am   BACKBONE|DICT|INTERRES
    81   39  164 1    
    82   40   41 2    
    83   40   42 1    
    84   42   43 1    
    85   42   44 1    
    86   42  165 1    
    87   43  166 1    
    88   43  167 1    
    89   43  168 1    
    90   44   45 am   BACKBONE|DICT|INTERRES
    91   44  169 1    
    92   45   46 2    
    93   45   47 1    
    94   47   48 1    
    95   47   49 1    
    96   47  170 1    
    97   48  171 1    
    98   48  172 1    
    99   48  173 1    
   100   49   50 am   BACKBONE|DICT|INTERRES
   101   49  174 1    
   102   50   51 2    
   103   50   52 1    
   104   52   53 1    
   105   52   54 1    
   106   52  175 1    
   107   53  176 1    
   108   53  177 1    
   109   53  178 1    
   110   54   55 am   BACKBONE|DICT|INTERRES
   111   54  179 1    
   112   55   56 2    
   113   55   57 1    
   114   57   58 1    
   115   57   59 1    
   116   57  180 1    
   117   58  181 1    
   118   58  182 1    
   119   58  183 1    
   120   59   60 am   BACKBONE|DICT|INTERRES
   121   59  184 1    
   122   60   61 2    
   123   60   62 1    
   124   62   63 1    
   125   62   64 1    
   126   62  185 1    
   127   63  186 1    
   128   63  187 1    
   129   63  188 1    
   130   64   65 am   BACKBONE|DICT|INTERRES
   131   64  189 1    
   132   65   66 2    
   133   67   68 2    
   134   67   69 am   BACKBONE|DICT|INTERRES
   135   69   70 1    
   136   69  190 1    
   137   70   71 1    
   138   70   72 1    
   139   70  191 1    
   140   71  192 1    
   141   71  193 1    
   142   71  194 1    
   143   72   73 2    
   144   72   74 am   BACKBONE|DICT|INTERRES
   145   74   75 1    
   146   74  195 1    
   147   75   76 1    
   148   75   77 1    
   149   75  196 1    
   150   76  197 1    
   151   76  198 1    
   152   76  199 1    
   153   77   78 2    
   154   77   79 am   BACKBONE|DICT|INTERRES
   155   79   80 1    
   156   79  200 1    
   157   80   81 1    
   158   80   82 1    
   159   80  201 1    
   160   81  202 1    
   161   81  203 1    
   162   81  204 1    
   163   82   83 2    
   164   82   84 am   BACKBONE|DICT|INTERRES
   165   84   85 1    
   166   84  205 1    
   167   85   86 1    
   168   85   87 1    
   169   85  206 1    
   170   86  207 1    
   171   86  208 1    
   172   86  209 1    
   173   87   88 2    
   174   87   89 am   BACKBONE|DICT|INTERRES
   175   89   90 1    
   176   89  210 1    
   177   90   91 1    
   178   90   92 1    
   179   90  211 1    
   180   91  212 1    
   181   91  213 1    
   182   91  214 1    
   183   92   93 2    
   184   92   94 am   BACKBONE|DICT|INTERRES
   185   94   95 1    
   186   94  215 1    
   187   95   96 1    
   188   95   97 1    
   189   95  216 1    
   190   96  217 1    
   191   96  218 1    
   192   96  219 1    
   193   97   98 2    
   194   97   99 am   BACKBONE|DICT|INTERRES
   195   99  100 1    
   196   99  220 1    
   197  100  101 1    
   198  100  102 1    
   199  100  221 1    
   200  101  222 1    
   201  101  223 1    
   202  101  224 1    
   203  102  103 2    
   204  102  104 am   BACKBONE|DICT|INTERRES
   205  104  105 1    
   206  104  225 1    
   207  105  106 1    
   208  105  107 1    
   209  105  226 1    
   210  106  227 1    
   211  106  228 1    
   212  106  229 1    
   213  107  108 2    
   214  107  109 am   BACKBONE|DICT|INTERRES
   215  109  110 1    
   216  109  230 1    
   217  110  111 1    
   218  110  112 1    
   219  110  231 1    
   220  111  232 1    
   221  111  233 1    
   222  111  234 1    
   223  112  113 2    
   224  112  114 am   BACKBONE|DICT|INTERRES
   225  114  115 1    
   226  114  235 1    
   227  115  116 1    
   228  115  117 1    
   229  115  236 1    
   230  116  237 1    
   231  116  238 1    
   232  116  239 1    
   233  117  118 2    
   234  117  119 am   BACKBONE|DICT|INTERRES
   235  119  120 1    
   236  119  240 1    
   237  120  121 1    
   238  120  124 1    
   239  120  241 1    
   240  121  122 am   BACKBONE|DICT|INTERRES
   241  121  123 2    
   242  122  242 1    
   243  122  243 1    
   244  124  125 1    
   245  124  244 1    
   246  124  245 1    
   247  125  126 1    
   248  126  246 1    
   249  126  247 1    
@<TRIPOS>SUBSTRUCTURE
     1 UNK         1 GROUP             0       ****    0 ROOT    
