@<TRIPOS>MOLECULE
3R540
247   249    1
SMALL
USER_CHARGES


@<TRIPOS>ATOM
      1 CA          6.8775  -11.1056  -46.7370 C.3       0 UNK        -0.1800 
      2 C           5.5017  -11.7345  -46.5742 C.2       0 UNK         0.5000 
      3 O           4.7479  -11.3394  -45.6855 O.2       0 UNK        -0.5000 
      4 N           5.1611  -12.6999  -47.4388 N.am      1 UNK        -0.5000 
      5 CA          3.9040  -13.4665  -47.4178 C.3       1 UNK         0.1400 
      6 C6          3.9036  -14.6137  -48.4575 C.3       23 UNK        -0.0398 
      7 S7          5.3276  -15.7375  -48.2558 S.3       23 UNK        -0.2404 
      8 C8          5.3254  -16.6067  -49.8545 C.3       23 UNK        -0.0205 
      9 C9          4.3376  -17.7623  -49.8572 C.ar      23 UNK        -0.0193 
     10 C10         3.0231  -17.5752  -50.2921 C.ar      23 UNK        -0.1150 
     11 C11         2.1188  -18.6404  -50.2814 C.ar      23 UNK        -0.0193 
     12 C12         2.5418  -19.9009  -49.8528 C.ar      23 UNK        -0.1150 
     13 C13         3.8534  -20.1024  -49.4027 C.ar      23 UNK        -0.0193 
     14 C14         4.7427  -19.0243  -49.4149 C.ar      23 UNK        -0.1150 
     15 C15         4.3634  -21.4541  -48.8987 C.3       23 UNK        -0.0205 
     16 S16         3.0868  -22.6854  -48.4673 S.3       23 UNK        -0.2404 
     17 C17         2.2480  -21.8656  -47.0679 C.3       23 UNK        -0.0398 
     18 CA          0.8826  -22.5125  -46.7448 C.3       11 UNK         0.1400 
     19 N           0.3981  -22.1351  -45.4186 N.am      11 UNK        -0.5000 
     20 C          -0.5951  -22.7603  -44.7716 C.2       10 UNK         0.5000 
     21 O          -1.1634  -23.7658  -45.1975 O.2       10 UNK        -0.5000 
     22 CA         -1.0587  -22.1306  -43.4462 C.3       10 UNK         0.1400 
     23 CB         -0.1494  -22.5683  -42.2886 C.3       10 UNK        -0.1800 
     24 N          -1.1097  -20.6687  -43.5109 N.am      10 UNK        -0.5000 
     25 C          -1.9281  -19.9777  -44.3180 C.2       9 UNK         0.5000 
     26 O          -2.7700  -20.5046  -45.0465 O.2       9 UNK        -0.5000 
     27 CA         -1.7431  -18.4492  -44.3539 C.3       9 UNK         0.1400 
     28 CB         -2.4261  -17.7836  -43.1501 C.3       9 UNK        -0.1800 
     29 N          -0.3359  -18.0511  -44.3962 N.am      9 UNK        -0.5000 
     30 C           0.5109  -18.3215  -45.3987 C.2       8 UNK         0.5000 
     31 O           0.1895  -18.9168  -46.4238 O.2       8 UNK        -0.5000 
     32 CA          1.9779  -17.9081  -45.2009 C.3       8 UNK         0.1400 
     33 CB          2.1841  -16.4194  -45.5193 C.3       8 UNK        -0.1800 
     34 N           2.4469  -18.2010  -43.8469 N.am      8 UNK        -0.5000 
     35 C           2.6228  -19.4379  -43.3612 C.2       7 UNK         0.5000 
     36 O           2.4385  -20.4628  -44.0179 O.2       7 UNK        -0.5000 
     37 CA          3.0365  -19.5459  -41.8822 C.3       7 UNK         0.1400 
     38 CB          4.5519  -19.3502  -41.7271 C.3       7 UNK        -0.1800 
     39 N           2.3321  -18.5866  -41.0296 N.am      7 UNK        -0.5000 
     40 C           1.0175  -18.6311  -40.7719 C.2       6 UNK         0.5000 
     41 O           0.2644  -19.5015  -41.2070 O.2       6 UNK        -0.5000 
     42 CA          0.4373  -17.4791  -39.9293 C.3       6 UNK         0.1400 
     43 CB          0.6270  -17.7569  -38.4307 C.3       6 UNK        -0.1800 
     44 N           0.9933  -16.1608  -40.2560 N.am      6 UNK        -0.5000 
     45 C           0.9527  -15.5972  -41.4705 C.2       5 UNK         0.5000 
     46 O           0.5162  -16.1696  -42.4709 O.2       5 UNK        -0.5000 
     47 CA          1.5351  -14.1766  -41.5984 C.3       5 UNK         0.1400 
     48 CB          3.0628  -14.2413  -41.7523 C.3       5 UNK        -0.1800 
     49 N           0.9843  -13.4639  -42.7517 N.am      5 UNK        -0.5000 
     50 C          -0.3017  -13.1205  -42.9087 C.2       4 UNK         0.5000 
     51 O          -1.1607  -13.2553  -42.0344 O.2       4 UNK        -0.5000 
     52 CA         -0.6645  -12.5223  -44.2825 C.3       4 UNK         0.1400 
     53 CB         -2.1145  -12.0002  -44.3638 C.3       4 UNK        -0.1800 
     54 N           0.2924  -11.4985  -44.7140 N.am      4 UNK        -0.5000 
     55 C           0.5521  -10.3225  -44.1171 C.2       3 UNK         0.5000 
     56 O          -0.0117   -9.9341  -43.0933 O.2       3 UNK        -0.5000 
     57 CA          1.6286   -9.4196  -44.7581 C.3       3 UNK         0.1400 
     58 CB          2.8687   -9.3414  -43.8536 C.3       3 UNK        -0.1800 
     59 N           2.0383   -9.8606  -46.0939 N.am      3 UNK        -0.5000 
     60 C           1.2885   -9.7337  -47.2000 C.2       2 UNK         0.5000 
     61 O           0.2122   -9.1358  -47.2222 O.2       2 UNK        -0.5000 
     62 CA          1.7983  -10.4047  -48.4936 C.3       2 UNK         0.1400 
     63 CB          2.3650   -9.3507  -49.4573 C.3       2 UNK        -0.1800 
     64 N           2.8137  -11.4389  -48.2800 N.am      2 UNK        -0.5000 
     65 C           2.6502  -12.5815  -47.5962 C.2       1 UNK         0.5000 
     66 O           1.5862  -12.9187  -47.0749 O.2       1 UNK        -0.5000 
     67 C          -0.1812  -22.2526  -47.8343 C.2       11 UNK         0.5000 
     68 O          -0.4110  -23.1341  -48.6586 O.2       11 UNK        -0.5000 
     69 N          -0.8624  -21.0968  -47.7925 N.am      12 UNK        -0.5000 
     70 CA         -1.9568  -20.7305  -48.7001 C.3       12 UNK         0.1400 
     71 CB         -2.4648  -19.3161  -48.3738 C.3       12 UNK        -0.1800 
     72 C          -3.1311  -21.7237  -48.6741 C.2       12 UNK         0.5000 
     73 O          -3.6978  -22.0201  -49.7234 O.2       12 UNK        -0.5000 
     74 N          -3.4500  -22.2459  -47.4828 N.am      13 UNK        -0.5000 
     75 CA         -4.4657  -23.2780  -47.2771 C.3       13 UNK         0.1400 
     76 CB         -4.7615  -23.3974  -45.7749 C.3       13 UNK        -0.1800 
     77 C          -4.0900  -24.6516  -47.8723 C.2       13 UNK         0.5000 
     78 O          -4.9859  -25.4649  -48.0996 O.2       13 UNK        -0.5000 
     79 N          -2.7945  -24.8924  -48.1139 N.am      14 UNK        -0.5000 
     80 CA         -2.2794  -26.1016  -48.7523 C.3       14 UNK         0.1400 
     81 CB         -0.9653  -26.5169  -48.0719 C.3       14 UNK        -0.1800 
     82 C          -2.0715  -25.8926  -50.2621 C.2       14 UNK         0.5000 
     83 O          -2.4469  -26.7655  -51.0449 O.2       14 UNK        -0.5000 
     84 N          -1.4834  -24.7489  -50.6416 N.am      15 UNK        -0.5000 
     85 CA         -1.1286  -24.3398  -52.0024 C.3       15 UNK         0.1400 
     86 CB         -0.3901  -22.9927  -51.9365 C.3       15 UNK        -0.1800 
     87 C          -2.3474  -24.2757  -52.9430 C.2       15 UNK         0.5000 
     88 O          -3.0637  -23.2725  -52.9595 O.2       15 UNK        -0.5000 
     89 N          -2.5638  -25.3802  -53.6742 N.am      16 UNK        -0.5000 
     90 CA         -3.7197  -25.6776  -54.5300 C.3       16 UNK         0.1400 
     91 CB         -3.7601  -24.7343  -55.7509 C.3       16 UNK        -0.1800 
     92 C          -5.0560  -25.7535  -53.7535 C.2       16 UNK         0.5000 
     93 O          -6.1217  -25.5845  -54.3475 O.2       16 UNK        -0.5000 
     94 N          -4.9604  -26.0388  -52.4452 N.am      17 UNK        -0.5000 
     95 CA         -6.0090  -26.0442  -51.4221 C.3       17 UNK         0.1400 
     96 CB         -7.1321  -27.0408  -51.7766 C.3       17 UNK        -0.1800 
     97 C          -6.5780  -24.6430  -51.1159 C.2       17 UNK         0.5000 
     98 O          -6.4000  -23.6920  -51.8802 O.2       17 UNK        -0.5000 
     99 N          -7.3099  -24.5475  -49.9986 N.am      18 UNK        -0.5000 
    100 CA        -7.9676  -23.3285  -49.5149 C.3       18 UNK         0.1400 
    101 CB        -8.5308  -23.5943  -48.1106 C.3       18 UNK        -0.1800 
    102 C         -9.0666  -22.7827  -50.4519 C.2       18 UNK         0.5000 
    103 O         -9.4529  -21.6225  -50.3149 O.2       18 UNK        -0.5000 
    104 N         -9.5329  -23.6112  -51.3973 N.am      19 UNK        -0.5000 
    105 CA       -10.4175  -23.2179  -52.4932 C.3       19 UNK         0.1400 
    106 CB       -10.9352  -24.4810  -53.1981 C.3       19 UNK        -0.1800 
    107 C         -9.7295  -22.2766  -53.5030 C.2       19 UNK         0.5000 
    108 O        -10.3857  -21.3760  -54.0277 O.2       19 UNK        -0.5000 
    109 N         -8.4278  -22.4888  -53.7457 N.am      20 UNK        -0.5000 
    110 CA        -7.5924  -21.6193  -54.5746 C.3       20 UNK         0.1400 
    111 CB        -6.5348  -22.4611  -55.2970 C.3       20 UNK        -0.1800 
    112 C         -6.9050  -20.5370  -53.7286 C.2       20 UNK         0.5000 
    113 O         -6.7224  -19.4218  -54.2173 O.2       20 UNK        -0.5000 
    114 N         -6.5302  -20.8882  -52.4882 N.am      21 UNK        -0.5000 
    115 CA        -5.9078  -20.0347  -51.4723 C.3       21 UNK         0.1400 
    116 CB        -6.9249  -19.0043  -50.9399 C.3       21 UNK        -0.1800 
    117 C         -4.6019  -19.3843  -51.9730 C.2       21 UNK         0.5000 
    118 O         -4.4709  -18.1592  -51.9458 O.2       21 UNK        -0.5000 
    119 N         -3.6761  -20.2195  -52.4629 N.am      22 UNK        -0.5000 
    120 CA        -2.4154  -19.8307  -53.1218 C.3       22 UNK         0.1400 
    121 C         -2.5724  -19.3531  -54.5984 C.2       22 UNK         0.5000 
    122 N         -3.7747  -19.2455  -55.1531 N.am      22 UNK        -0.7600 
    123 O         -1.5784  -19.1000  -55.2729 O.2       22 UNK        -0.5000 
    124 C124       -1.5570  -18.8448  -52.2709 C.3       23 UNK        -0.0398 
    125 S125        0.2230  -19.2393  -52.2334 S.3       23 UNK        -0.2404 
    126 C126        0.6666  -18.4239  -50.6680 C.3       23 UNK        -0.0205 
    127 H127        7.4634  -11.2475  -45.8289 H         1 UNK         0.0600 
    128 H128        6.7809  -10.0351  -46.9183 H         1 UNK         0.0600 
    129 H129        7.4278  -11.5443  -47.5698 H         1 UNK         0.0600 
    130 H130        5.8298  -12.9908  -48.1382 H         1 UNK         0.3000 
    131 H131        3.8271  -13.9146  -46.4252 H         1 UNK         0.0600 
    132 H132        3.9182  -14.2045  -49.4694 H         1 UNK         0.0800 
    133 H133        2.9909  -15.2060  -48.3781 H         1 UNK         0.0800 
    134 H134        5.1074  -15.9113  -50.6663 H         1 UNK         0.0800 
    135 H135        6.3306  -16.9852  -50.0463 H         1 UNK         0.0800 
    136 H136        2.7010  -16.5974  -50.6213 H         1 UNK         0.1150 
    137 H137        1.8300  -20.7134  -49.8601 H         1 UNK         0.1150 
    138 H138        5.7584  -19.1655  -49.0720 H         1 UNK         0.1150 
    139 H139        5.0047  -21.8846  -49.6687 H         1 UNK         0.0800 
    140 H140        4.9950  -21.2999  -48.0222 H         1 UNK         0.0800 
    141 H141        2.1355  -20.7969  -47.2532 H         1 UNK         0.0800 
    142 H142        2.9117  -21.9526  -46.2068 H         1 UNK         0.0800 
    143 H143        1.0404  -23.5932  -46.7131 H         1 UNK         0.0600 
    144 H144        0.8515  -21.3429  -44.9759 H         1 UNK         0.3000 
    145 H145       -2.0685  -22.4927  -43.2421 H         1 UNK         0.0600 
    146 H146       -0.5240  -22.2000  -41.3335 H         1 UNK         0.0600 
    147 H147       -0.0987  -23.6557  -42.2203 H         1 UNK         0.0600 
    148 H148        0.8686  -22.1980  -42.4135 H         1 UNK         0.0600 
    149 H149       -0.4818  -20.1634  -42.8925 H         1 UNK         0.3000 
    150 H150       -2.2202  -18.0777  -45.2629 H         1 UNK         0.0600 
    151 H151       -3.4868  -18.0349  -43.1145 H         1 UNK         0.0600 
    152 H152       -2.3489  -16.6973  -43.2044 H         1 UNK         0.0600 
    153 H153       -1.9801  -18.1020  -42.2077 H         1 UNK         0.0600 
    154 H154        0.0083  -17.5078  -43.6069 H         1 UNK         0.3000 
    155 H155        2.5823  -18.4873  -45.9029 H         1 UNK         0.0600 
    156 H156        1.6383  -15.7728  -44.8326 H         1 UNK         0.0600 
    157 H157        1.8358  -16.1888  -46.5264 H         1 UNK         0.0600 
    158 H158        3.2392  -16.1508  -45.4691 H         1 UNK         0.0600 
    159 H159        2.5495  -17.4157  -43.2221 H         1 UNK         0.3000 
    160 H160        2.7864  -20.5526  -41.5402 H         1 UNK         0.0600 
    161 H161        4.8637  -18.3492  -42.0278 H         1 UNK         0.0600 
    162 H162        5.1019  -20.0641  -42.3419 H         1 UNK         0.0600 
    163 H163        4.8653  -19.5037  -40.6943 H         1 UNK         0.0600 
    164 H164        2.8763  -17.8332  -40.6363 H         1 UNK         0.3000 
    165 H165       -0.6348  -17.4382  -40.1321 H         1 UNK         0.0600 
    166 H166        0.1252  -17.0037  -37.8230 H         1 UNK         0.0600 
    167 H167        0.2065  -18.7256  -38.1568 H         1 UNK         0.0600 
    168 H168        1.6815  -17.7661  -38.1522 H         1 UNK         0.0600 
    169 H169        1.3835  -15.6363  -39.4863 H         1 UNK         0.3000 
    170 H170        1.2876  -13.6131  -40.6966 H         1 UNK         0.0600 
    171 H171        3.5249  -14.7352  -40.8966 H         1 UNK         0.0600 
    172 H172        3.3548  -14.7929  -42.6472 H         1 UNK         0.0600 
    173 H173        3.4948  -13.2425  -41.8195 H         1 UNK         0.0600 
    174 H174        1.6123  -13.3143  -43.5266 H         1 UNK         0.3000 
    175 H175       -0.5748  -13.3403  -44.9992 H         1 UNK         0.0600 
    176 H176       -2.3065  -11.2116  -43.6359 H         1 UNK         0.0600 
    177 H177       -2.3344  -11.6030  -45.3548 H         1 UNK         0.0600 
    178 H178       -2.8275  -12.8023  -44.1702 H         1 UNK         0.0600 
    179 H179        0.8192  -11.7343  -45.5481 H         1 UNK         0.3000 
    180 H180        1.2068   -8.4159  -44.8419 H         1 UNK         0.0600 
    181 H181        3.2955  -10.3282  -43.6710 H         1 UNK         0.0600 
    182 H182        2.6175   -8.9111  -42.8834 H         1 UNK         0.0600 
    183 H183        3.6442   -8.7156  -44.2955 H         1 UNK         0.0600 
    184 H184        2.9171  -10.3643  -46.1476 H         1 UNK         0.3000 
    185 H185        0.9384  -10.8795  -48.9703 H         1 UNK         0.0600 
    186 H186        1.6261   -8.5772  -49.6709 H         1 UNK         0.0600 
    187 H187        3.2449   -8.8582  -49.0413 H         1 UNK         0.0600 
    188 H188        2.6482   -9.7980  -50.4103 H         1 UNK         0.0600 
    189 H189        3.7334  -11.2419  -48.6474 H         1 UNK         0.3000 
    190 H190       -0.5815  -20.3863  -47.1189 H         1 UNK         0.3000 
    191 H191       -1.5502  -20.7265  -49.7121 H         1 UNK         0.0600 
    192 H192       -1.6638  -18.5790  -48.3963 H         1 UNK         0.0600 
    193 H193       -3.2192  -18.9980  -49.0944 H         1 UNK         0.0600 
    194 H194       -2.9233  -19.2712  -47.3866 H         1 UNK         0.0600 
    195 H195       -2.9673  -21.9052  -46.6584 H         1 UNK         0.3000 
    196 H196       -5.3789  -22.9495  -47.7762 H         1 UNK         0.0600 
    197 H197       -5.5532  -24.1241  -45.5886 H         1 UNK         0.0600 
    198 H198       -5.0905  -22.4442  -45.3605 H         1 UNK         0.0600 
    199 H199       -3.8821  -23.7190  -45.2165 H         1 UNK         0.0600 
    200 H200       -2.1196  -24.1624  -47.9217 H         1 UNK         0.3000 
    201 H201       -2.9892  -26.9216  -48.6239 H         1 UNK         0.0600 
    202 H202       -1.1156  -26.6997  -47.0077 H         1 UNK         0.0600 
    203 H203       -0.1932  -25.7537  -48.1714 H         1 UNK         0.0600 
    204 H204       -0.5747  -27.4367  -48.5088 H         1 UNK         0.0600 
    205 H205       -1.1896  -24.1041  -49.9099 H         1 UNK         0.3000 
    206 H206       -0.4285  -25.0788  -52.3969 H         1 UNK         0.0600 
    207 H207        0.5329  -23.0745  -51.3619 H         1 UNK         0.0600 
    208 H208       -0.1228  -22.6399  -52.9332 H         1 UNK         0.0600 
    209 H209       -1.0044  -22.2245  -51.4672 H         1 UNK         0.0600 
    210 H210       -1.9304  -26.1562  -53.5370 H         1 UNK         0.3000 
    211 H211       -3.5569  -26.6862  -54.9122 H         1 UNK         0.0600 
    212 H212       -3.8555  -23.6894  -55.4591 H         1 UNK         0.0600 
    213 H213       -4.5970  -24.9701  -56.4090 H         1 UNK         0.0600 
    214 H214       -2.8501  -24.8272  -56.3433 H         1 UNK         0.0600 
    215 H215       -4.0233  -26.1823  -52.0818 H         1 UNK         0.3000 
    216 H216       -5.5216  -26.3996  -50.5140 H         1 UNK         0.0600 
    217 H217       -7.8064  -27.1896  -50.9328 H         1 UNK         0.0600 
    218 H218       -6.7243  -28.0176  -52.0371 H         1 UNK         0.0600 
    219 H219       -7.7370  -26.6957  -52.6156 H         1 UNK         0.0600 
    220 H220       -7.3913  -25.3606  -49.4043 H         1 UNK         0.3000 
    221 H221       -7.2042  -22.5519  -49.4359 H         1 UNK         0.0600 
    222 H222       -9.2952  -24.3721  -48.1258 H         1 UNK         0.0600 
    223 H223       -7.7461  -23.9081  -47.4218 H         1 UNK         0.0600 
    224 H224       -8.9856  -22.6946  -47.6942 H         1 UNK         0.0600 
    225 H225       -9.1732  -24.5533  -51.4198 H         1 UNK         0.3000 
    226 H226      -11.2722  -22.6869  -52.0686 H         1 UNK         0.0600 
    227 H227      -11.4838  -25.1217  -52.5075 H         1 UNK         0.0600 
    228 H228      -11.6154  -24.2228  -54.0108 H         1 UNK         0.0600 
    229 H229      -10.1202  -25.0668  -53.6256 H         1 UNK         0.0600 
    230 H230       -7.9438  -23.2259  -53.2465 H         1 UNK         0.3000 
    231 H231       -8.2049  -21.1250  -55.3318 H         1 UNK         0.0600 
    232 H232       -6.9910  -23.2552  -55.8882 H         1 UNK         0.0600 
    233 H233       -5.8514  -22.9209  -54.5836 H         1 UNK         0.0600 
    234 H234       -5.9384  -21.8474  -55.9732 H         1 UNK         0.0600 
    235 H235       -6.6188  -21.8689  -52.2323 H         1 UNK         0.3000 
    236 H236       -5.6443  -20.6867  -50.6411 H         1 UNK         0.0600 
    237 H237       -6.4978  -18.4214  -50.1231 H         1 UNK         0.0600 
    238 H238       -7.2373  -18.3036  -51.7148 H         1 UNK         0.0600 
    239 H239       -7.8179  -19.4943  -50.5539 H         1 UNK         0.0600 
    240 H240       -3.8572  -21.2181  -52.4473 H         1 UNK         0.3000 
    241 H241       -1.8700  -20.7702  -53.2004 H         1 UNK         0.0600 
    242 H242       -3.8450  -18.9445  -56.1121 H         1 UNK         0.3800 
    243 H243       -4.6185  -19.3935  -54.6151 H         1 UNK         0.3800 
    244 H244       -1.6870  -17.8132  -52.6030 H         1 UNK         0.0800 
    245 H245       -1.9021  -18.8539  -51.2380 H         1 UNK         0.0800 
    246 H246        0.4401  -17.3590  -50.7403 H         1 UNK         0.0800 
    247 H247        0.0459  -18.8186  -49.8658 H         1 UNK         0.0800 
@<TRIPOS>BOND
     1    1    2 1    
     2    1  127 1    
     3    1  128 1    
     4    1  129 1    
     5    2    3 2    
     6    2    4 am   BACKBONE|DICT|INTERRES
     7    4    5 1    
     8    4  130 1    
     9    5    6 1    
    10    5   65 1    
    11    5  131 1    
    12    6    7 1    
    13    6  132 1    
    14    6  133 1    
    15    7    8 1    
    16    8    9 1    
    17    8  134 1    
    18    8  135 1    
    19    9   10 ar   
    20    9   14 ar   
    21   10   11 ar   
    22   10  136 1    
    23   11   12 ar   
    24   11  126 1    
    25   12   13 ar   
    26   12  137 1    
    27   13   14 ar   
    28   13   15 1    
    29   14  138 1    
    30   15   16 1    
    31   15  139 1    
    32   15  140 1    
    33   16   17 1    
    34   17   18 1    
    35   17  141 1    
    36   17  142 1    
    37   18   19 1    
    38   18   67 1    
    39   18  143 1    
    40   19   20 am   BACKBONE|DICT|INTERRES
    41   19  144 1    
    42   20   21 2    
    43   20   22 1    
    44   22   23 1    
    45   22   24 1    
    46   22  145 1    
    47   23  146 1    
    48   23  147 1    
    49   23  148 1    
    50   24   25 am   BACKBONE|DICT|INTERRES
    51   24  149 1    
    52   25   26 2    
    53   25   27 1    
    54   27   28 1    
    55   27   29 1    
    56   27  150 1    
    57   28  151 1    
    58   28  152 1    
    59   28  153 1    
    60   29   30 am   BACKBONE|DICT|INTERRES
    61   29  154 1    
    62   30   31 2    
    63   30   32 1    
    64   32   33 1    
    65   32   34 1    
    66   32  155 1    
    67   33  156 1    
    68   33  157 1    
    69   33  158 1    
    70   34   35 am   BACKBONE|DICT|INTERRES
    71   34  159 1    
    72   35   36 2    
    73   35   37 1    
    74   37   38 1    
    75   37   39 1    
    76   37  160 1    
    77   38  161 1    
    78   38  162 1    
    79   38  163 1    
    80   39   40 am   BACKBONE|DICT|INTERRES
    81   39  164 1    
    82   40   41 2    
    83   40   42 1    
    84   42   43 1    
    85   42   44 1    
    86   42  165 1    
    87   43  166 1    
    88   43  167 1    
    89   43  168 1    
    90   44   45 am   BACKBONE|DICT|INTERRES
    91   44  169 1    
    92   45   46 2    
    93   45   47 1    
    94   47   48 1    
    95   47   49 1    
    96   47  170 1    
    97   48  171 1    
    98   48  172 1    
    99   48  173 1    
   100   49   50 am   BACKBONE|DICT|INTERRES
   101   49  174 1    
   102   50   51 2    
   103   50   52 1    
   104   52   53 1    
   105   52   54 1    
   106   52  175 1    
   107   53  176 1    
   108   53  177 1    
   109   53  178 1    
   110   54   55 am   BACKBONE|DICT|INTERRES
   111   54  179 1    
   112   55   56 2    
   113   55   57 1    
   114   57   58 1    
   115   57   59 1    
   116   57  180 1    
   117   58  181 1    
   118   58  182 1    
   119   58  183 1    
   120   59   60 am   BACKBONE|DICT|INTERRES
   121   59  184 1    
   122   60   61 2    
   123   60   62 1    
   124   62   63 1    
   125   62   64 1    
   126   62  185 1    
   127   63  186 1    
   128   63  187 1    
   129   63  188 1    
   130   64   65 am   BACKBONE|DICT|INTERRES
   131   64  189 1    
   132   65   66 2    
   133   67   68 2    
   134   67   69 am   BACKBONE|DICT|INTERRES
   135   69   70 1    
   136   69  190 1    
   137   70   71 1    
   138   70   72 1    
   139   70  191 1    
   140   71  192 1    
   141   71  193 1    
   142   71  194 1    
   143   72   73 2    
   144   72   74 am   BACKBONE|DICT|INTERRES
   145   74   75 1    
   146   74  195 1    
   147   75   76 1    
   148   75   77 1    
   149   75  196 1    
   150   76  197 1    
   151   76  198 1    
   152   76  199 1    
   153   77   78 2    
   154   77   79 am   BACKBONE|DICT|INTERRES
   155   79   80 1    
   156   79  200 1    
   157   80   81 1    
   158   80   82 1    
   159   80  201 1    
   160   81  202 1    
   161   81  203 1    
   162   81  204 1    
   163   82   83 2    
   164   82   84 am   BACKBONE|DICT|INTERRES
   165   84   85 1    
   166   84  205 1    
   167   85   86 1    
   168   85   87 1    
   169   85  206 1    
   170   86  207 1    
   171   86  208 1    
   172   86  209 1    
   173   87   88 2    
   174   87   89 am   BACKBONE|DICT|INTERRES
   175   89   90 1    
   176   89  210 1    
   177   90   91 1    
   178   90   92 1    
   179   90  211 1    
   180   91  212 1    
   181   91  213 1    
   182   91  214 1    
   183   92   93 2    
   184   92   94 am   BACKBONE|DICT|INTERRES
   185   94   95 1    
   186   94  215 1    
   187   95   96 1    
   188   95   97 1    
   189   95  216 1    
   190   96  217 1    
   191   96  218 1    
   192   96  219 1    
   193   97   98 2    
   194   97   99 am   BACKBONE|DICT|INTERRES
   195   99  100 1    
   196   99  220 1    
   197  100  101 1    
   198  100  102 1    
   199  100  221 1    
   200  101  222 1    
   201  101  223 1    
   202  101  224 1    
   203  102  103 2    
   204  102  104 am   BACKBONE|DICT|INTERRES
   205  104  105 1    
   206  104  225 1    
   207  105  106 1    
   208  105  107 1    
   209  105  226 1    
   210  106  227 1    
   211  106  228 1    
   212  106  229 1    
   213  107  108 2    
   214  107  109 am   BACKBONE|DICT|INTERRES
   215  109  110 1    
   216  109  230 1    
   217  110  111 1    
   218  110  112 1    
   219  110  231 1    
   220  111  232 1    
   221  111  233 1    
   222  111  234 1    
   223  112  113 2    
   224  112  114 am   BACKBONE|DICT|INTERRES
   225  114  115 1    
   226  114  235 1    
   227  115  116 1    
   228  115  117 1    
   229  115  236 1    
   230  116  237 1    
   231  116  238 1    
   232  116  239 1    
   233  117  118 2    
   234  117  119 am   BACKBONE|DICT|INTERRES
   235  119  120 1    
   236  119  240 1    
   237  120  121 1    
   238  120  124 1    
   239  120  241 1    
   240  121  122 am   BACKBONE|DICT|INTERRES
   241  121  123 2    
   242  122  242 1    
   243  122  243 1    
   244  124  125 1    
   245  124  244 1    
   246  124  245 1    
   247  125  126 1    
   248  126  246 1    
   249  126  247 1    
@<TRIPOS>SUBSTRUCTURE
     1 UNK         1 GROUP             0       ****    0 ROOT    
