@<TRIPOS>MOLECULE
3R540
247   249    1
SMALL
USER_CHARGES


@<TRIPOS>ATOM
      1 CA         -0.3375   -8.3621  -45.4935 C.3       0 UNK        -0.1800 
      2 C           0.0412   -9.4738  -46.4624 C.2       0 UNK         0.5000 
      3 O           0.9794   -9.3121  -47.2432 O.2       0 UNK        -0.5000 
      4 N          -0.6907  -10.5934  -46.4225 N.am      1 UNK        -0.5000 
      5 CA         -0.4182  -11.7982  -47.2104 C.3       1 UNK         0.1400 
      6 C6         -1.6850  -12.6824  -47.3214 C.3       23 UNK        -0.0398 
      7 S7         -1.6213  -13.8401  -48.7314 S.3       23 UNK        -0.2404 
      8 C8         -1.6924  -15.4338  -47.8614 C.3       23 UNK        -0.0205 
      9 C9         -1.5805  -16.6034  -48.8250 C.ar      23 UNK        -0.0193 
     10 C10        -2.6969  -17.0330  -49.5502 C.ar      23 UNK        -0.1150 
     11 C11        -2.5968  -18.1163  -50.4292 C.ar      23 UNK        -0.0193 
     12 C12        -1.3732  -18.7747  -50.5701 C.ar      23 UNK        -0.1150 
     13 C13        -0.2506  -18.3524  -49.8546 C.ar      23 UNK        -0.0193 
     14 C14        -0.3600  -17.2648  -48.9850 C.ar      23 UNK        -0.1150 
     15 C15         1.0813  -19.0665  -50.0275 C.3       23 UNK        -0.0205 
     16 S16         1.0413  -20.7658  -49.3794 S.3       23 UNK        -0.2404 
     17 C17         0.7923  -20.4707  -47.5962 C.3       23 UNK        -0.0398 
     18 CA          0.3472  -21.7520  -46.8557 C.3       11 UNK         0.1400 
     19 N           0.6408  -21.6885  -45.4241 N.am      11 UNK        -0.5000 
     20 C           0.6115  -22.7448  -44.6007 C.2       10 UNK         0.5000 
     21 O           0.3822  -23.8952  -44.9747 O.2       10 UNK        -0.5000 
     22 CA          0.8374  -22.4639  -43.1038 C.3       10 UNK         0.1400 
     23 CB          2.3364  -22.3470  -42.7910 C.3       10 UNK        -0.1800 
     24 N           0.1405  -21.2617  -42.6416 N.am      10 UNK        -0.5000 
     25 C          -1.1927  -21.1175  -42.6364 C.2       9 UNK         0.5000 
     26 O          -1.9752  -21.9993  -42.9882 O.2       9 UNK        -0.5000 
     27 CA         -1.7478  -19.7473  -42.2098 C.3       9 UNK         0.1400 
     28 CB         -1.7508  -19.6110  -40.6801 C.3       9 UNK        -0.1800 
     29 N          -1.0185  -18.6275  -42.8051 N.am      9 UNK        -0.5000 
     30 C          -0.9361  -18.3833  -44.1211 C.2       8 UNK         0.5000 
     31 O          -1.4894  -19.0641  -44.9829 O.2       8 UNK        -0.5000 
     32 CA         -0.0346  -17.2154  -44.5523 C.3       8 UNK         0.1400 
     33 CB         -0.7261  -15.8677  -44.2978 C.3       8 UNK        -0.1800 
     34 N           1.2642  -17.2446  -43.8807 N.am      8 UNK        -0.5000 
     35 C           2.1547  -18.2417  -43.9874 C.2       7 UNK         0.5000 
     36 O           2.0045  -19.2205  -44.7178 O.2       7 UNK        -0.5000 
     37 CA          3.3944  -18.1582  -43.0820 C.3       7 UNK         0.1400 
     38 CB          4.4761  -17.2603  -43.7032 C.3       7 UNK        -0.1800 
     39 N           3.0533  -17.6784  -41.7423 N.am      7 UNK        -0.5000 
     40 C           2.3430  -18.3819  -40.8482 C.2       6 UNK         0.5000 
     41 O           1.9359  -19.5264  -41.0469 O.2       6 UNK        -0.5000 
     42 CA          1.9952  -17.6714  -39.5271 C.3       6 UNK         0.1400 
     43 CB          3.1671  -17.7614  -38.5384 C.3       6 UNK        -0.1800 
     44 N           1.6336  -16.2670  -39.7245 N.am      6 UNK        -0.5000 
     45 C           0.5329  -15.8516  -40.3676 C.2       5 UNK         0.5000 
     46 O          -0.3228  -16.6137  -40.8154 O.2       5 UNK        -0.5000 
     47 CA          0.3916  -14.3328  -40.5930 C.3       5 UNK         0.1400 
     48 CB         -0.3309  -13.6772  -39.4071 C.3       5 UNK        -0.1800 
     49 N           1.6724  -13.6540  -40.8186 N.am      5 UNK        -0.5000 
     50 C           2.5072  -13.9281  -41.8290 C.2       4 UNK         0.5000 
     51 O           2.2855  -14.7922  -42.6826 O.2       4 UNK        -0.5000 
     52 CA          3.8366  -13.1619  -41.8508 C.3       4 UNK         0.1400 
     53 CB          4.7723  -13.6826  -40.7410 C.3       4 UNK        -0.1800 
     54 N           4.4464  -13.3620  -43.1591 N.am      4 UNK        -0.5000 
     55 C           5.4973  -12.7117  -43.6697 C.2       3 UNK         0.5000 
     56 O           6.0949  -11.8071  -43.0853 O.2       3 UNK        -0.5000 
     57 CA          5.9683  -13.1526  -45.0702 C.3       3 UNK         0.1400 
     58 CB          7.1251  -14.1571  -44.9499 C.3       3 UNK        -0.1800 
     59 N           4.8982  -13.7591  -45.8664 N.am      3 UNK        -0.5000 
     60 C           3.9105  -13.0727  -46.4560 C.2       2 UNK         0.5000 
     61 O           3.8581  -11.8405  -46.4650 O.2       2 UNK        -0.5000 
     62 CA          2.8312  -13.9090  -47.1821 C.3       2 UNK         0.1400 
     63 CB          2.4825  -15.2110  -46.4279 C.3       2 UNK        -0.1800 
     64 N           1.6118  -13.1477  -47.4824 N.am      2 UNK        -0.5000 
     65 C           0.7756  -12.5704  -46.6066 C.2       1 UNK         0.5000 
     66 O           0.8944  -12.6397  -45.3805 O.2       1 UNK        -0.5000 
     67 C          -1.1339  -22.0996  -47.1171 C.2       11 UNK         0.5000 
     68 O          -1.4105  -22.9733  -47.9371 O.2       11 UNK        -0.5000 
     69 N          -2.0581  -21.4708  -46.3763 N.am      12 UNK        -0.5000 
     70 CA         -3.4954  -21.7425  -46.4467 C.3       12 UNK         0.1400 
     71 CB         -4.2631  -20.6982  -45.6243 C.3       12 UNK        -0.1800 
     72 C          -3.8692  -23.1712  -46.0080 C.2       12 UNK         0.5000 
     73 O          -4.7753  -23.7656  -46.5903 O.2       12 UNK        -0.5000 
     74 N          -3.1469  -23.7185  -45.0210 N.am      13 UNK        -0.5000 
     75 CA         -3.2745  -25.1101  -44.5854 C.3       13 UNK         0.1400 
     76 CB         -2.4810  -25.3185  -43.2868 C.3       13 UNK        -0.1800 
     77 C          -2.8377  -26.1216  -45.6646 C.2       13 UNK         0.5000 
     78 O          -3.3927  -27.2200  -45.7175 O.2       13 UNK        -0.5000 
     79 N          -1.8714  -25.7353  -46.5096 N.am      14 UNK        -0.5000 
     80 CA         -1.4259  -26.5147  -47.6619 C.3       14 UNK         0.1400 
     81 CB          0.0114  -26.1178  -48.0369 C.3       14 UNK        -0.1800 
     82 C          -2.3839  -26.3590  -48.8575 C.2       14 UNK         0.5000 
     83 O          -2.8151  -27.3679  -49.4176 O.2       14 UNK        -0.5000 
     84 N          -2.7084  -25.1114  -49.2220 N.am      15 UNK        -0.5000 
     85 CA         -3.5676  -24.7667  -50.3504 C.3       15 UNK         0.1400 
     86 CB         -2.8084  -24.9572  -51.6783 C.3       15 UNK        -0.1800 
     87 C          -4.0838  -23.3279  -50.1992 C.2       15 UNK         0.5000 
     88 O          -3.3958  -22.3832  -50.5853 O.2       15 UNK        -0.5000 
     89 N          -5.2972  -23.1804  -49.6538 N.am      16 UNK        -0.5000 
     90 CA         -5.9958  -21.8961  -49.5355 C.3       16 UNK         0.1400 
     91 CB         -7.1050  -22.0172  -48.4781 C.3       16 UNK        -0.1800 
     92 C          -6.5937  -21.3993  -50.8657 C.2       16 UNK         0.5000 
     93 O          -6.8897  -20.2098  -50.9810 O.2       16 UNK        -0.5000 
     94 N          -6.7796  -22.3038  -51.8339 N.am      17 UNK        -0.5000 
     95 CA         -7.3813  -22.0314  -53.1325 C.3       17 UNK         0.1400 
     96 CB         -8.9131  -22.1285  -53.0219 C.3       17 UNK        -0.1800 
     97 C          -6.8435  -23.0197  -54.1745 C.2       17 UNK         0.5000 
     98 O          -6.3614  -24.0963  -53.8108 O.2       17 UNK        -0.5000 
     99 N          -6.9783  -22.6364  -55.4496 N.am      18 UNK        -0.5000 
    100 CA        -6.7157  -23.3991  -56.6725 C.3       18 UNK         0.1400 
    101 CB        -7.6098  -24.6527  -56.7598 C.3       18 UNK        -0.1800 
    102 C         -5.2310  -23.7302  -56.8978 C.2       18 UNK         0.5000 
    103 O         -4.6133  -23.1483  -57.7892 O.2       18 UNK        -0.5000 
    104 N         -4.6768  -24.6472  -56.0951 N.am      19 UNK        -0.5000 
    105 CA        -3.3166  -25.1775  -56.2394 C.3       19 UNK         0.1400 
    106 CB        -3.1507  -26.3999  -55.3248 C.3       19 UNK        -0.1800 
    107 C         -2.2078  -24.1371  -55.9851 C.2       19 UNK         0.5000 
    108 O         -1.1219  -24.2576  -56.5530 O.2       19 UNK        -0.5000 
    109 N         -2.5132  -23.1196  -55.1701 N.am      20 UNK        -0.5000 
    110 CA        -1.6462  -21.9687  -54.9048 C.3       20 UNK         0.1400 
    111 CB        -1.8647  -21.5194  -53.4522 C.3       20 UNK        -0.1800 
    112 C         -1.8931  -20.7928  -55.8746 C.2       20 UNK         0.5000 
    113 O         -1.2775  -19.7410  -55.7040 O.2       20 UNK        -0.5000 
    114 N         -2.8160  -20.9655  -56.8350 N.am      21 UNK        -0.5000 
    115 CA        -3.3529  -19.9708  -57.7762 C.3       21 UNK         0.1400 
    116 CB        -2.2406  -19.3104  -58.6172 C.3       21 UNK        -0.1800 
    117 C         -4.2964  -18.9340  -57.1261 C.2       21 UNK         0.5000 
    118 O         -4.7873  -18.0438  -57.8223 O.2       21 UNK        -0.5000 
    119 N         -4.5627  -19.0785  -55.8222 N.am      22 UNK        -0.5000 
    120 CA        -5.5539  -18.3089  -55.0595 C.3       22 UNK         0.1400 
    121 C         -7.0089  -18.6575  -55.4825 C.2       22 UNK         0.5000 
    122 N         -7.9139  -17.6895  -55.4723 N.am      22 UNK        -0.7600 
    123 O         -7.3340  -19.8068  -55.7771 O.2       22 UNK        -0.5000 
    124 C124       -5.3723  -18.5172  -53.5348 C.3       23 UNK        -0.0398 
    125 S125       -3.7839  -17.8827  -52.9102 S.3       23 UNK        -0.2404 
    126 C126       -3.8033  -18.5795  -51.2290 C.3       23 UNK        -0.0205 
    127 H127       -1.1918   -8.6368  -44.8743 H         1 UNK         0.0600 
    128 H128       -0.5933   -7.4560  -46.0428 H         1 UNK         0.0600 
    129 H129        0.5013   -8.1376  -44.8346 H         1 UNK         0.0600 
    130 H130       -1.4227  -10.6778  -45.7320 H         1 UNK         0.3000 
    131 H131       -0.1449  -11.4713  -48.2165 H         1 UNK         0.0600 
    132 H132       -2.5599  -12.0515  -47.4855 H         1 UNK         0.0800 
    133 H133       -1.8781  -13.2157  -46.3885 H         1 UNK         0.0800 
    134 H134       -2.6262  -15.5059  -47.3016 H         1 UNK         0.0800 
    135 H135       -0.8841  -15.4724  -47.1312 H         1 UNK         0.0800 
    136 H136       -3.6405  -16.5185  -49.4350 H         1 UNK         0.1150 
    137 H137       -1.2936  -19.6201  -51.2363 H         1 UNK         0.1150 
    138 H138        0.5065  -16.9357  -48.4316 H         1 UNK         0.1150 
    139 H139        1.3306  -19.1001  -51.0890 H         1 UNK         0.0800 
    140 H140        1.8876  -18.5158  -49.5403 H         1 UNK         0.0800 
    141 H141        0.0814  -19.6598  -47.4306 H         1 UNK         0.0800 
    142 H142        1.7470  -20.1217  -47.2014 H         1 UNK         0.0800 
    143 H143        0.9416  -22.5807  -47.2480 H         1 UNK         0.0600 
    144 H144        0.8878  -20.7771  -45.0487 H         1 UNK         0.3000 
    145 H145        0.4401  -23.3137  -42.5449 H         1 UNK         0.0600 
    146 H146        2.5073  -22.2310  -41.7207 H         1 UNK         0.0600 
    147 H147        2.7881  -21.4930  -43.2961 H         1 UNK         0.0600 
    148 H148        2.8733  -23.2407  -43.1113 H         1 UNK         0.0600 
    149 H149        0.7197  -20.5053  -42.2904 H         1 UNK         0.3000 
    150 H150       -2.7816  -19.6878  -42.5558 H         1 UNK         0.0600 
    151 H151       -2.3002  -20.4307  -40.2155 H         1 UNK         0.0600 
    152 H152       -2.2285  -18.6818  -40.3690 H         1 UNK         0.0600 
    153 H153       -0.7398  -19.6192  -40.2722 H         1 UNK         0.0600 
    154 H154       -0.5664  -17.9872  -42.1584 H         1 UNK         0.3000 
    155 H155        0.1433  -17.3125  -45.6251 H         1 UNK         0.0600 
    156 H156       -1.6859  -15.8172  -44.8125 H         1 UNK         0.0600 
    157 H157       -0.1183  -15.0373  -44.6541 H         1 UNK         0.0600 
    158 H158       -0.9201  -15.7056  -43.2388 H         1 UNK         0.0600 
    159 H159        1.4944  -16.4502  -43.2908 H         1 UNK         0.3000 
    160 H160        3.8068  -19.1649  -42.9870 H         1 UNK         0.0600 
    161 H161        4.1255  -16.2399  -43.8488 H         1 UNK         0.0600 
    162 H162        4.7824  -17.6415  -44.6781 H         1 UNK         0.0600 
    163 H163        5.3662  -17.2221  -43.0752 H         1 UNK         0.0600 
    164 H164        3.2941  -16.7226  -41.5277 H         1 UNK         0.3000 
    165 H165        1.1374  -18.1854  -39.0881 H         1 UNK         0.0600 
    166 H166        2.9024  -17.3290  -37.5733 H         1 UNK         0.0600 
    167 H167        3.4486  -18.8004  -38.3614 H         1 UNK         0.0600 
    168 H168        4.0505  -17.2402  -38.9093 H         1 UNK         0.0600 
    169 H169        2.2821  -15.5737  -39.3829 H         1 UNK         0.3000 
    170 H170       -0.2198  -14.1881  -41.4857 H         1 UNK         0.0600 
    171 H171        0.2481  -13.7592  -38.4864 H         1 UNK         0.0600 
    172 H172       -0.5174  -12.6196  -39.5944 H         1 UNK         0.0600 
    173 H173       -1.2982  -14.1497  -39.2300 H         1 UNK         0.0600 
    174 H174        1.9260  -12.9393  -40.1516 H         1 UNK         0.3000 
    175 H175        3.6334  -12.0990  -41.7078 H         1 UNK         0.0600 
    176 H176        5.0054  -14.7395  -40.8767 H         1 UNK         0.0600 
    177 H177        5.7143  -13.1350  -40.7218 H         1 UNK         0.0600 
    178 H178        4.3206  -13.5688  -39.7550 H         1 UNK         0.0600 
    179 H179        3.9657  -14.0519  -43.7219 H         1 UNK         0.3000 
    180 H180        6.3375  -12.2671  -45.5920 H         1 UNK         0.0600 
    181 H181        7.5113  -14.4340  -45.9310 H         1 UNK         0.0600 
    182 H182        6.8153  -15.0701  -44.4397 H         1 UNK         0.0600 
    183 H183        7.9547  -13.7309  -44.3842 H         1 UNK         0.0600 
    184 H184        4.9016  -14.7660  -45.9337 H         1 UNK         0.3000 
    185 H185        3.2553  -14.1864  -48.1480 H         1 UNK         0.0600 
    186 H186        2.2264  -15.0135  -45.3874 H         1 UNK         0.0600 
    187 H187        1.6341  -15.7162  -46.8845 H         1 UNK         0.0600 
    188 H188        3.3130  -15.9170  -46.4362 H         1 UNK         0.0600 
    189 H189        1.4289  -13.0116  -48.4665 H         1 UNK         0.3000 
    190 H190       -1.7681  -20.7293  -45.7421 H         1 UNK         0.3000 
    191 H191       -3.7916  -21.6348  -47.4904 H         1 UNK         0.0600 
    192 H192       -4.0733  -19.6901  -45.9932 H         1 UNK         0.0600 
    193 H193       -3.9793  -20.7293  -44.5721 H         1 UNK         0.0600 
    194 H194       -5.3388  -20.8685  -45.6814 H         1 UNK         0.0600 
    195 H195       -2.4745  -23.1413  -44.5249 H         1 UNK         0.3000 
    196 H196       -4.3285  -25.2963  -44.3691 H         1 UNK         0.0600 
    197 H197       -2.8364  -24.6564  -42.4970 H         1 UNK         0.0600 
    198 H198       -1.4173  -25.1290  -43.4286 H         1 UNK         0.0600 
    199 H199       -2.5865  -26.3419  -42.9249 H         1 UNK         0.0600 
    200 H200       -1.4681  -24.8142  -46.3983 H         1 UNK         0.3000 
    201 H201       -1.4091  -27.5707  -47.3832 H         1 UNK         0.0600 
    202 H202        0.6912  -26.2658  -47.1976 H         1 UNK         0.0600 
    203 H203        0.0844  -25.0746  -48.3428 H         1 UNK         0.0600 
    204 H204        0.3778  -26.7262  -48.8646 H         1 UNK         0.0600 
    205 H205       -2.3003  -24.3214  -48.7207 H         1 UNK         0.3000 
    206 H206       -4.4326  -25.4334  -50.3551 H         1 UNK         0.0600 
    207 H207       -1.8503  -24.4368  -51.6695 H         1 UNK         0.0600 
    208 H208       -2.6123  -26.0107  -51.8766 H         1 UNK         0.0600 
    209 H209       -3.3874  -24.5684  -52.5167 H         1 UNK         0.0600 
    210 H210       -5.7838  -23.9929  -49.3025 H         1 UNK         0.3000 
    211 H211       -5.2872  -21.1360  -49.2011 H         1 UNK         0.0600 
    212 H212       -7.8270  -22.7919  -48.7390 H         1 UNK         0.0600 
    213 H213       -7.6532  -21.0796  -48.3759 H         1 UNK         0.0600 
    214 H214       -6.6975  -22.2545  -47.4968 H         1 UNK         0.0600 
    215 H215       -6.4700  -23.2572  -51.7004 H         1 UNK         0.3000 
    216 H216       -7.1161  -21.0252  -53.4513 H         1 UNK         0.0600 
    217 H217       -9.3899  -21.9239  -53.9814 H         1 UNK         0.0600 
    218 H218       -9.3049  -21.4045  -52.3073 H         1 UNK         0.0600 
    219 H219       -9.2297  -23.1217  -52.7010 H         1 UNK         0.0600 
    220 H220       -7.3063  -21.6861  -55.6153 H         1 UNK         0.3000 
    221 H221       -7.0105  -22.7418  -57.4923 H         1 UNK         0.0600 
    222 H222       -7.4174  -25.3590  -55.9520 H         1 UNK         0.0600 
    223 H223       -8.6651  -24.3829  -56.7195 H         1 UNK         0.0600 
    224 H224       -7.4466  -25.1815  -57.6996 H         1 UNK         0.0600 
    225 H225       -5.2364  -25.0022  -55.3277 H         1 UNK         0.3000 
    226 H226       -3.2025  -25.5154  -57.2715 H         1 UNK         0.0600 
    227 H227       -3.8386  -27.1968  -55.6076 H         1 UNK         0.0600 
    228 H228       -2.1403  -26.8061  -55.3895 H         1 UNK         0.0600 
    229 H229       -3.3405  -26.1521  -54.2817 H         1 UNK         0.0600 
    230 H230       -3.4286  -23.1102  -54.7448 H         1 UNK         0.3000 
    231 H231       -0.5997  -22.2612  -55.0123 H         1 UNK         0.0600 
    232 H232       -1.2200  -20.6752  -53.2092 H         1 UNK         0.0600 
    233 H233       -1.6214  -22.3165  -52.7511 H         1 UNK         0.0600 
    234 H234       -2.8950  -21.2121  -53.2689 H         1 UNK         0.0600 
    235 H235       -3.2509  -21.8783  -56.9143 H         1 UNK         0.3000 
    236 H236       -3.9785  -20.5380  -58.4667 H         1 UNK         0.0600 
    237 H237       -1.6315  -18.6265  -58.0262 H         1 UNK         0.0600 
    238 H238       -1.5804  -20.0581  -59.0566 H         1 UNK         0.0600 
    239 H239       -2.6667  -18.7327  -59.4381 H         1 UNK         0.0600 
    240 H240       -4.1045  -19.8273  -55.3290 H         1 UNK         0.3000 
    241 H241       -5.3882  -17.2525  -55.2802 H         1 UNK         0.0600 
    242 H242       -8.8634  -17.9074  -55.7320 H         1 UNK         0.3800 
    243 H243       -7.6750  -16.7404  -55.2288 H         1 UNK         0.3800 
    244 H244       -5.4309  -19.5763  -53.2870 H         1 UNK         0.0800 
    245 H245       -6.1699  -18.0229  -52.9766 H         1 UNK         0.0800 
    246 H246       -4.7260  -18.2890  -50.7239 H         1 UNK         0.0800 
    247 H247       -3.8116  -19.6694  -51.2855 H         1 UNK         0.0800 
@<TRIPOS>BOND
     1    1    2 1    
     2    1  127 1    
     3    1  128 1    
     4    1  129 1    
     5    2    3 2    
     6    2    4 am   BACKBONE|DICT|INTERRES
     7    4    5 1    
     8    4  130 1    
     9    5    6 1    
    10    5   65 1    
    11    5  131 1    
    12    6    7 1    
    13    6  132 1    
    14    6  133 1    
    15    7    8 1    
    16    8    9 1    
    17    8  134 1    
    18    8  135 1    
    19    9   10 ar   
    20    9   14 ar   
    21   10   11 ar   
    22   10  136 1    
    23   11   12 ar   
    24   11  126 1    
    25   12   13 ar   
    26   12  137 1    
    27   13   14 ar   
    28   13   15 1    
    29   14  138 1    
    30   15   16 1    
    31   15  139 1    
    32   15  140 1    
    33   16   17 1    
    34   17   18 1    
    35   17  141 1    
    36   17  142 1    
    37   18   19 1    
    38   18   67 1    
    39   18  143 1    
    40   19   20 am   BACKBONE|DICT|INTERRES
    41   19  144 1    
    42   20   21 2    
    43   20   22 1    
    44   22   23 1    
    45   22   24 1    
    46   22  145 1    
    47   23  146 1    
    48   23  147 1    
    49   23  148 1    
    50   24   25 am   BACKBONE|DICT|INTERRES
    51   24  149 1    
    52   25   26 2    
    53   25   27 1    
    54   27   28 1    
    55   27   29 1    
    56   27  150 1    
    57   28  151 1    
    58   28  152 1    
    59   28  153 1    
    60   29   30 am   BACKBONE|DICT|INTERRES
    61   29  154 1    
    62   30   31 2    
    63   30   32 1    
    64   32   33 1    
    65   32   34 1    
    66   32  155 1    
    67   33  156 1    
    68   33  157 1    
    69   33  158 1    
    70   34   35 am   BACKBONE|DICT|INTERRES
    71   34  159 1    
    72   35   36 2    
    73   35   37 1    
    74   37   38 1    
    75   37   39 1    
    76   37  160 1    
    77   38  161 1    
    78   38  162 1    
    79   38  163 1    
    80   39   40 am   BACKBONE|DICT|INTERRES
    81   39  164 1    
    82   40   41 2    
    83   40   42 1    
    84   42   43 1    
    85   42   44 1    
    86   42  165 1    
    87   43  166 1    
    88   43  167 1    
    89   43  168 1    
    90   44   45 am   BACKBONE|DICT|INTERRES
    91   44  169 1    
    92   45   46 2    
    93   45   47 1    
    94   47   48 1    
    95   47   49 1    
    96   47  170 1    
    97   48  171 1    
    98   48  172 1    
    99   48  173 1    
   100   49   50 am   BACKBONE|DICT|INTERRES
   101   49  174 1    
   102   50   51 2    
   103   50   52 1    
   104   52   53 1    
   105   52   54 1    
   106   52  175 1    
   107   53  176 1    
   108   53  177 1    
   109   53  178 1    
   110   54   55 am   BACKBONE|DICT|INTERRES
   111   54  179 1    
   112   55   56 2    
   113   55   57 1    
   114   57   58 1    
   115   57   59 1    
   116   57  180 1    
   117   58  181 1    
   118   58  182 1    
   119   58  183 1    
   120   59   60 am   BACKBONE|DICT|INTERRES
   121   59  184 1    
   122   60   61 2    
   123   60   62 1    
   124   62   63 1    
   125   62   64 1    
   126   62  185 1    
   127   63  186 1    
   128   63  187 1    
   129   63  188 1    
   130   64   65 am   BACKBONE|DICT|INTERRES
   131   64  189 1    
   132   65   66 2    
   133   67   68 2    
   134   67   69 am   BACKBONE|DICT|INTERRES
   135   69   70 1    
   136   69  190 1    
   137   70   71 1    
   138   70   72 1    
   139   70  191 1    
   140   71  192 1    
   141   71  193 1    
   142   71  194 1    
   143   72   73 2    
   144   72   74 am   BACKBONE|DICT|INTERRES
   145   74   75 1    
   146   74  195 1    
   147   75   76 1    
   148   75   77 1    
   149   75  196 1    
   150   76  197 1    
   151   76  198 1    
   152   76  199 1    
   153   77   78 2    
   154   77   79 am   BACKBONE|DICT|INTERRES
   155   79   80 1    
   156   79  200 1    
   157   80   81 1    
   158   80   82 1    
   159   80  201 1    
   160   81  202 1    
   161   81  203 1    
   162   81  204 1    
   163   82   83 2    
   164   82   84 am   BACKBONE|DICT|INTERRES
   165   84   85 1    
   166   84  205 1    
   167   85   86 1    
   168   85   87 1    
   169   85  206 1    
   170   86  207 1    
   171   86  208 1    
   172   86  209 1    
   173   87   88 2    
   174   87   89 am   BACKBONE|DICT|INTERRES
   175   89   90 1    
   176   89  210 1    
   177   90   91 1    
   178   90   92 1    
   179   90  211 1    
   180   91  212 1    
   181   91  213 1    
   182   91  214 1    
   183   92   93 2    
   184   92   94 am   BACKBONE|DICT|INTERRES
   185   94   95 1    
   186   94  215 1    
   187   95   96 1    
   188   95   97 1    
   189   95  216 1    
   190   96  217 1    
   191   96  218 1    
   192   96  219 1    
   193   97   98 2    
   194   97   99 am   BACKBONE|DICT|INTERRES
   195   99  100 1    
   196   99  220 1    
   197  100  101 1    
   198  100  102 1    
   199  100  221 1    
   200  101  222 1    
   201  101  223 1    
   202  101  224 1    
   203  102  103 2    
   204  102  104 am   BACKBONE|DICT|INTERRES
   205  104  105 1    
   206  104  225 1    
   207  105  106 1    
   208  105  107 1    
   209  105  226 1    
   210  106  227 1    
   211  106  228 1    
   212  106  229 1    
   213  107  108 2    
   214  107  109 am   BACKBONE|DICT|INTERRES
   215  109  110 1    
   216  109  230 1    
   217  110  111 1    
   218  110  112 1    
   219  110  231 1    
   220  111  232 1    
   221  111  233 1    
   222  111  234 1    
   223  112  113 2    
   224  112  114 am   BACKBONE|DICT|INTERRES
   225  114  115 1    
   226  114  235 1    
   227  115  116 1    
   228  115  117 1    
   229  115  236 1    
   230  116  237 1    
   231  116  238 1    
   232  116  239 1    
   233  117  118 2    
   234  117  119 am   BACKBONE|DICT|INTERRES
   235  119  120 1    
   236  119  240 1    
   237  120  121 1    
   238  120  124 1    
   239  120  241 1    
   240  121  122 am   BACKBONE|DICT|INTERRES
   241  121  123 2    
   242  122  242 1    
   243  122  243 1    
   244  124  125 1    
   245  124  244 1    
   246  124  245 1    
   247  125  126 1    
   248  126  246 1    
   249  126  247 1    
@<TRIPOS>SUBSTRUCTURE
     1 UNK         1 GROUP             0       ****    0 ROOT    
