@<TRIPOS>MOLECULE
3R540
247   249    1
SMALL
USER_CHARGES


@<TRIPOS>ATOM
      1 CA         -0.2356  -14.5759  -53.0581 C.3       0 UNK        -0.1800 
      2 C           0.2077  -14.0404  -51.7045 C.2       0 UNK         0.5000 
      3 O           0.6984  -12.9149  -51.6195 O.2       0 UNK        -0.5000 
      4 N           0.0364  -14.8459  -50.6498 N.am      1 UNK        -0.5000 
      5 CA          0.3593  -14.5219  -49.2544 C.3       1 UNK         0.1400 
      6 C6          0.2564  -15.7726  -48.3434 C.3       23 UNK        -0.0398 
      7 S7         -1.3351  -16.6610  -48.5228 S.3       23 UNK        -0.2404 
      8 C8         -0.9082  -18.3537  -48.0256 C.3       23 UNK        -0.0205 
      9 C9          0.1620  -18.9731  -48.9069 C.ar      23 UNK        -0.0193 
     10 C10        -0.0626  -19.1770  -50.2698 C.ar      23 UNK        -0.1150 
     11 C11         0.9400  -19.7081  -51.0834 C.ar      23 UNK        -0.0193 
     12 C12         2.1724  -20.0547  -50.5179 C.ar      23 UNK        -0.1150 
     13 C13         2.4067  -19.8615  -49.1520 C.ar      23 UNK        -0.0193 
     14 C14         1.3945  -19.3221  -48.3551 C.ar      23 UNK        -0.1150 
     15 C15         3.7687  -20.1775  -48.5473 C.3       23 UNK        -0.0205 
     16 S16         3.6694  -21.2213  -47.0560 S.3       23 UNK        -0.2404 
     17 C17         3.1951  -22.8294  -47.7678 C.3       23 UNK        -0.0398 
     18 CA          2.0230  -23.5416  -47.0509 C.3       11 UNK         0.1400 
     19 N           2.1671  -23.6043  -45.5955 N.am      11 UNK        -0.5000 
     20 C           1.6400  -24.5784  -44.8425 C.2       10 UNK         0.5000 
     21 O           0.9969  -25.5236  -45.3014 O.2       10 UNK        -0.5000 
     22 CA          1.8300  -24.4494  -43.3215 C.3       10 UNK         0.1400 
     23 CB          3.2856  -24.7346  -42.9205 C.3       10 UNK        -0.1800 
     24 N           1.4313  -23.1348  -42.8174 N.am      10 UNK        -0.5000 
     25 C           0.1799  -22.6571  -42.8585 C.2       9 UNK         0.5000 
     26 O          -0.7711  -23.2748  -43.3360 O.2       9 UNK        -0.5000 
     27 CA         -0.0515  -21.2478  -42.2875 C.3       9 UNK         0.1400 
     28 CB         -0.4124  -21.3189  -40.7967 C.3       9 UNK        -0.1800 
     29 N           1.0748  -20.3311  -42.4608 N.am      9 UNK        -0.5000 
     30 C           1.5756  -19.9157  -43.6313 C.2       8 UNK         0.5000 
     31 O           1.2365  -20.3895  -44.7165 O.2       8 UNK        -0.5000 
     32 CA          2.6099  -18.7692  -43.5702 C.3       8 UNK         0.1400 
     33 CB          2.7595  -18.0389  -44.9164 C.3       8 UNK        -0.1800 
     34 N           2.2701  -17.7716  -42.5544 N.am      8 UNK        -0.5000 
     35 C           2.5459  -17.8414  -41.2464 C.2       7 UNK         0.5000 
     36 O           3.1102  -18.8002  -40.7199 O.2       7 UNK        -0.5000 
     37 CA          2.0592  -16.6680  -40.3829 C.3       7 UNK         0.1400 
     38 CB          2.9502  -15.4321  -40.5867 C.3       7 UNK        -0.1800 
     39 N           0.6756  -16.3280  -40.7113 N.am      7 UNK        -0.5000 
     40 C          -0.4011  -16.8353  -40.0954 C.2       6 UNK         0.5000 
     41 O          -0.3405  -17.6138  -39.1433 O.2       6 UNK        -0.5000 
     42 CA         -1.7823  -16.4002  -40.6260 C.3       6 UNK         0.1400 
     43 CB         -2.2873  -15.1671  -39.8615 C.3       6 UNK        -0.1800 
     44 N          -1.7790  -16.1009  -42.0581 N.am      6 UNK        -0.5000 
     45 C          -1.6581  -17.0214  -43.0247 C.2       5 UNK         0.5000 
     46 O          -1.6158  -18.2316  -42.8107 O.2       5 UNK        -0.5000 
     47 CA         -1.5519  -16.5079  -44.4747 C.3       5 UNK         0.1400 
     48 CB         -2.9348  -16.5558  -45.1420 C.3       5 UNK        -0.1800 
     49 N          -1.0004  -15.1537  -44.6089 N.am      5 UNK        -0.5000 
     50 C           0.1944  -14.7463  -44.1514 C.2       4 UNK         0.5000 
     51 O           0.9691  -15.4840  -43.5438 O.2       4 UNK        -0.5000 
     52 CA          0.6011  -13.2772  -44.3747 C.3       4 UNK         0.1400 
     53 CB          1.8437  -13.1925  -45.2745 C.3       4 UNK        -0.1800 
     54 N          -0.4706  -12.4423  -44.9246 N.am      4 UNK        -0.5000 
     55 C          -1.5232  -12.0050  -44.2153 C.2       3 UNK         0.5000 
     56 O          -1.6933  -12.2778  -43.0262 O.2       3 UNK        -0.5000 
     57 CA         -2.5713  -11.1347  -44.9399 C.3       3 UNK         0.1400 
     58 CB         -2.3738   -9.6530  -44.5850 C.3       3 UNK        -0.1800 
     59 N          -2.5661  -11.2747  -46.3974 N.am      3 UNK        -0.5000 
     60 C          -2.9043  -12.3836  -47.0679 C.2       2 UNK         0.5000 
     61 O          -3.2658  -13.4246  -46.5175 O.2       2 UNK        -0.5000 
     62 CA         -2.7795  -12.3484  -48.6074 C.3       2 UNK         0.1400 
     63 CB         -2.5183  -10.9434  -49.1948 C.3       2 UNK        -0.1800 
     64 N          -1.7613  -13.2905  -49.0780 N.am      2 UNK        -0.5000 
     65 C          -0.4794  -13.3557  -48.6871 C.2       1 UNK         0.5000 
     66 O           0.0419  -12.5560  -47.9084 O.2       1 UNK        -0.5000 
     67 C           0.6277  -23.0437  -47.4787 C.2       11 UNK         0.5000 
     68 O           0.1609  -23.4614  -48.5369 O.2       11 UNK        -0.5000 
     69 N          -0.0585  -22.2531  -46.6358 N.am      12 UNK        -0.5000 
     70 CA         -1.4698  -21.8972  -46.8208 C.3       12 UNK         0.1400 
     71 CB         -1.9129  -20.8735  -45.7633 C.3       12 UNK        -0.1800 
     72 C          -2.3912  -23.1307  -46.7757 C.2       12 UNK         0.5000 
     73 O          -3.2675  -23.2663  -47.6297 O.2       12 UNK        -0.5000 
     74 N          -2.1516  -24.0242  -45.8048 N.am      13 UNK        -0.5000 
     75 CA         -2.8561  -25.2973  -45.6557 C.3       13 UNK         0.1400 
     76 CB         -2.5105  -25.9241  -44.2969 C.3       13 UNK        -0.1800 
     77 C          -2.5585  -26.2793  -46.8026 C.2       13 UNK         0.5000 
     78 O          -3.4721  -26.9726  -47.2499 O.2       13 UNK        -0.5000 
     79 N          -1.3038  -26.3005  -47.2775 N.am      14 UNK        -0.5000 
     80 CA         -0.8746  -27.0893  -48.4357 C.3       14 UNK         0.1400 
     81 CB          0.6583  -27.0870  -48.5289 C.3       14 UNK        -0.1800 
     82 C          -1.5023  -26.5905  -49.7517 C.2       14 UNK         0.5000 
     83 O          -1.9181  -27.4073  -50.5742 O.2       14 UNK        -0.5000 
     84 N          -1.5833  -25.2616  -49.9115 N.am      15 UNK        -0.5000 
     85 CA         -2.2668  -24.5837  -51.0132 C.3       15 UNK         0.1400 
     86 CB         -1.9485  -23.0807  -50.9554 C.3       15 UNK        -0.1800 
     87 C          -3.7903  -24.8044  -51.0014 C.2       15 UNK         0.5000 
     88 O          -4.4012  -24.8642  -52.0689 O.2       15 UNK        -0.5000 
     89 N          -4.3718  -24.8950  -49.7959 N.am      16 UNK        -0.5000 
     90 CA         -5.7822  -25.1124  -49.4449 C.3       16 UNK         0.1400 
     91 CB         -6.3204  -26.4280  -50.0370 C.3       16 UNK        -0.1800 
     92 C          -6.6972  -23.9204  -49.7836 C.2       16 UNK         0.5000 
     93 O          -7.4988  -23.5101  -48.9443 O.2       16 UNK        -0.5000 
     94 N          -6.5266  -23.3539  -50.9829 N.am      17 UNK        -0.5000 
     95 CA         -7.1415  -22.1067  -51.4384 C.3       17 UNK         0.1400 
     96 CB         -7.1985  -22.1290  -52.9744 C.3       17 UNK        -0.1800 
     97 C          -6.3865  -20.8563  -50.9361 C.2       17 UNK         0.5000 
     98 O          -6.8315  -19.7385  -51.2016 O.2       17 UNK        -0.5000 
     99 N          -5.2570  -21.0632  -50.2394 N.am      18 UNK        -0.5000 
    100 CA        -4.3336  -20.0565  -49.7159 C.3       18 UNK         0.1400 
    101 CB        -4.9731  -19.2849  -48.5397 C.3       18 UNK        -0.1800 
    102 C         -3.7823  -19.1668  -50.8471 C.2       18 UNK         0.5000 
    103 O         -3.2409  -19.7040  -51.8147 O.2       18 UNK        -0.5000 
    104 N         -3.9228  -17.8399  -50.7193 N.am      19 UNK        -0.5000 
    105 CA        -3.3921  -16.8299  -51.6393 C.3       19 UNK         0.1400 
    106 CB        -3.7770  -15.4336  -51.1277 C.3       19 UNK        -0.1800 
    107 C         -3.8436  -16.9981  -53.1007 C.2       19 UNK         0.5000 
    108 O         -3.0751  -16.6867  -54.0095 O.2       19 UNK        -0.5000 
    109 N         -5.0549  -17.5303  -53.3098 N.am      20 UNK        -0.5000 
    110 CA        -5.6245  -17.8034  -54.6305 C.3       20 UNK         0.1400 
    111 CB        -7.1031  -18.1835  -54.4663 C.3       20 UNK        -0.1800 
    112 C         -4.8666  -18.8805  -55.4356 C.2       20 UNK         0.5000 
    113 O         -5.0331  -18.9401  -56.6545 O.2       20 UNK        -0.5000 
    114 N         -4.0458  -19.7003  -54.7626 N.am      21 UNK        -0.5000 
    115 CA        -3.2180  -20.7272  -55.3925 C.3       21 UNK         0.1400 
    116 CB        -2.8987  -21.8157  -54.3591 C.3       21 UNK        -0.1800 
    117 C         -1.9105  -20.1791  -55.9984 C.2       21 UNK         0.5000 
    118 O         -1.2883  -20.8969  -56.7834 O.2       21 UNK        -0.5000 
    119 N         -1.4934  -18.9576  -55.6314 N.am      22 UNK        -0.5000 
    120 CA        -0.2138  -18.3734  -56.0731 C.3       22 UNK         0.1400 
    121 C         -0.2212  -16.8427  -56.3473 C.2       22 UNK         0.5000 
    122 N         -1.2523  -16.0879  -55.9948 N.am      22 UNK        -0.7600 
    123 O          0.7249  -16.3267  -56.9367 O.2       22 UNK        -0.5000 
    124 C124        0.9817  -18.8270  -55.1922 C.3       23 UNK        -0.0398 
    125 S125        0.8877  -18.2889  -53.4466 S.3       23 UNK        -0.2404 
    126 C126        0.6966  -19.8764  -52.5752 C.3       23 UNK        -0.0205 
    127 H127        0.6027  -14.5838  -53.7546 H         1 UNK         0.0600 
    128 H128       -0.6213  -15.5927  -52.9862 H         1 UNK         0.0600 
    129 H129       -1.0216  -13.9458  -53.4742 H         1 UNK         0.0600 
    130 H130       -0.3468  -15.7696  -50.7888 H         1 UNK         0.3000 
    131 H131        1.3994  -14.1892  -49.2372 H         1 UNK         0.0600 
    132 H132        0.4022  -15.5158  -47.2931 H         1 UNK         0.0800 
    133 H133        1.0735  -16.4488  -48.5939 H         1 UNK         0.0800 
    134 H134       -1.8052  -18.9703  -48.0619 H         1 UNK         0.0800 
    135 H135       -0.5812  -18.3325  -46.9872 H         1 UNK         0.0800 
    136 H136       -1.0047  -18.8899  -50.7083 H         1 UNK         0.1150 
    137 H137        2.9556  -20.4536  -51.1468 H         1 UNK         0.1150 
    138 H138        1.5709  -19.1663  -47.3012 H         1 UNK         0.1150 
    139 H139        4.4203  -20.6592  -49.2779 H         1 UNK         0.0800 
    140 H140        4.2512  -19.2367  -48.2795 H         1 UNK         0.0800 
    141 H141        4.0784  -23.4671  -47.7169 H         1 UNK         0.0800 
    142 H142        2.9803  -22.7219  -48.8327 H         1 UNK         0.0800 
    143 H143        2.0713  -24.5710  -47.4097 H         1 UNK         0.0600 
    144 H144        2.6416  -22.8280  -45.1568 H         1 UNK         0.3000 
    145 H145        1.1942  -25.1985  -42.8447 H         1 UNK         0.0600 
    146 H146        3.4013  -24.7384  -41.8365 H         1 UNK         0.0600 
    147 H147        3.6055  -25.7122  -43.2835 H         1 UNK         0.0600 
    148 H148        3.9725  -23.9918  -43.3281 H         1 UNK         0.0600 
    149 H149        2.1536  -22.5549  -42.4166 H         1 UNK         0.3000 
    150 H150       -0.9027  -20.8190  -42.8172 H         1 UNK         0.0600 
    151 H151       -1.2659  -21.9779  -40.6318 H         1 UNK         0.0600 
    152 H152       -0.6839  -20.3354  -40.4118 H         1 UNK         0.0600 
    153 H153        0.4175  -21.6973  -40.1988 H         1 UNK         0.0600 
    154 H154        1.4451  -19.9049  -41.6216 H         1 UNK         0.3000 
    155 H155        3.5742  -19.2156  -43.3201 H         1 UNK         0.0600 
    156 H156        1.8023  -17.6604  -45.2778 H         1 UNK         0.0600 
    157 H157        3.1658  -18.7026  -45.6775 H         1 UNK         0.0600 
    158 H158        3.4424  -17.1932  -44.8345 H         1 UNK         0.0600 
    159 H159        1.7778  -16.9493  -42.8985 H         1 UNK         0.3000 
    160 H160        2.1318  -16.9644  -39.3342 H         1 UNK         0.0600 
    161 H161        2.6353  -14.6113  -39.9423 H         1 UNK         0.0600 
    162 H162        2.9249  -15.0757  -41.6172 H         1 UNK         0.0600 
    163 H163        3.9893  -15.6568  -40.3427 H         1 UNK         0.0600 
    164 H164        0.5394  -15.7530  -41.5334 H         1 UNK         0.3000 
    165 H165       -2.4793  -17.2219  -40.4481 H         1 UNK         0.0600 
    166 H166       -3.2957  -14.8952  -40.1740 H         1 UNK         0.0600 
    167 H167       -2.3211  -15.3593  -38.7883 H         1 UNK         0.0600 
    168 H168       -1.6418  -14.3023  -40.0209 H         1 UNK         0.0600 
    169 H169       -1.8204  -15.1268  -42.3227 H         1 UNK         0.3000 
    170 H170       -0.8815  -17.1835  -45.0071 H         1 UNK         0.0600 
    171 H171       -2.8963  -16.2111  -46.1736 H         1 UNK         0.0600 
    172 H172       -3.3285  -17.5730  -45.1537 H         1 UNK         0.0600 
    173 H173       -3.6547  -15.9282  -44.6152 H         1 UNK         0.0600 
    174 H174       -1.5813  -14.4823  -45.0939 H         1 UNK         0.3000 
    175 H175        0.8757  -12.8727  -43.3982 H         1 UNK         0.0600 
    176 H176        1.6863  -13.6842  -46.2335 H         1 UNK         0.0600 
    177 H177        2.1254  -12.1574  -45.4676 H         1 UNK         0.0600 
    178 H178        2.6982  -13.6781  -44.8013 H         1 UNK         0.0600 
    179 H179       -0.4048  -12.2143  -45.9116 H         1 UNK         0.3000 
    180 H180       -3.5538  -11.4442  -44.5777 H         1 UNK         0.0600 
    181 H181       -1.4133   -9.2789  -44.9417 H         1 UNK         0.0600 
    182 H182       -2.4045   -9.5014  -43.5051 H         1 UNK         0.0600 
    183 H183       -3.1589   -9.0343  -45.0201 H         1 UNK         0.0600 
    184 H184       -2.2467  -10.4756  -46.9255 H         1 UNK         0.3000 
    185 H185       -3.7356  -12.6990  -48.9986 H         1 UNK         0.0600 
    186 H186       -3.2990  -10.2407  -48.9009 H         1 UNK         0.0600 
    187 H187       -1.5591  -10.5326  -48.8779 H         1 UNK         0.0600 
    188 H188       -2.5134  -10.9764  -50.2844 H         1 UNK         0.0600 
    189 H189       -2.0899  -14.0187  -49.6937 H         1 UNK         0.3000 
    190 H190        0.4081  -21.8777  -45.8164 H         1 UNK         0.3000 
    191 H191       -1.5625  -21.4370  -47.8061 H         1 UNK         0.0600 
    192 H192       -2.8786  -20.4406  -46.0264 H         1 UNK         0.0600 
    193 H193       -2.0229  -21.3298  -44.7806 H         1 UNK         0.0600 
    194 H194       -1.2037  -20.0547  -45.6645 H         1 UNK         0.0600 
    195 H195       -1.4510  -23.8110  -45.1006 H         1 UNK         0.3000 
    196 H196       -3.9282  -25.0894  -45.6689 H         1 UNK         0.0600 
    197 H197       -3.0325  -26.8717  -44.1585 H         1 UNK         0.0600 
    198 H198       -2.8030  -25.2689  -43.4762 H         1 UNK         0.0600 
    199 H199       -1.4419  -26.1195  -44.2027 H         1 UNK         0.0600 
    200 H200       -0.5991  -25.7421  -46.8117 H         1 UNK         0.3000 
    201 H201       -1.2014  -28.1190  -48.2762 H         1 UNK         0.0600 
    202 H202        1.1158  -27.3947  -47.5884 H         1 UNK         0.0600 
    203 H203        1.0442  -26.1017  -48.7876 H         1 UNK         0.0600 
    204 H204        0.9987  -27.7796  -49.2995 H         1 UNK         0.0600 
    205 H205       -1.1335  -24.6587  -49.2274 H         1 UNK         0.3000 
    206 H206       -1.8836  -24.9822  -51.9546 H         1 UNK         0.0600 
    207 H207       -0.9052  -22.8865  -51.2052 H         1 UNK         0.0600 
    208 H208       -2.5656  -22.5181  -51.6530 H         1 UNK         0.0600 
    209 H209       -2.1339  -22.6650  -49.9662 H         1 UNK         0.0600 
    210 H210       -3.7725  -24.7214  -48.9958 H         1 UNK         0.3000 
    211 H211       -5.7941  -25.2165  -48.3586 H         1 UNK         0.0600 
    212 H212       -6.3676  -26.3999  -51.1258 H         1 UNK         0.0600 
    213 H213       -7.3281  -26.6324  -49.6736 H         1 UNK         0.0600 
    214 H214       -5.6929  -27.2718  -49.7494 H         1 UNK         0.0600 
    215 H215       -5.8450  -23.7841  -51.6039 H         1 UNK         0.3000 
    216 H216       -8.1629  -22.0529  -51.0566 H         1 UNK         0.0600 
    217 H217       -7.7674  -21.2814  -53.3556 H         1 UNK         0.0600 
    218 H218       -7.6884  -23.0320  -53.3389 H         1 UNK         0.0600 
    219 H219       -6.2026  -22.0855  -53.4164 H         1 UNK         0.0600 
    220 H220       -4.9788  -22.0222  -50.0955 H         1 UNK         0.3000 
    221 H221       -3.4765  -20.6033  -49.3212 H         1 UNK         0.0600 
    222 H222       -5.8482  -18.7124  -48.8492 H         1 UNK         0.0600 
    223 H223       -5.2922  -19.9729  -47.7566 H         1 UNK         0.0600 
    224 H224       -4.2643  -18.5930  -48.0829 H         1 UNK         0.0600 
    225 H225       -4.4010  -17.4900  -49.9023 H         1 UNK         0.3000 
    226 H226       -2.3045  -16.9184  -51.6214 H         1 UNK         0.0600 
    227 H227       -4.8540  -15.2701  -51.1833 H         1 UNK         0.0600 
    228 H228       -3.2955  -14.6541  -51.7199 H         1 UNK         0.0600 
    229 H229       -3.4778  -15.2933  -50.0904 H         1 UNK         0.0600 
    230 H230       -5.6066  -17.8088  -52.5095 H         1 UNK         0.3000 
    231 H231       -5.5757  -16.8794  -55.2103 H         1 UNK         0.0600 
    232 H232       -7.6663  -17.3811  -53.9896 H         1 UNK         0.0600 
    233 H233       -7.2185  -19.0797  -53.8586 H         1 UNK         0.0600 
    234 H234       -7.5698  -18.3780  -55.4328 H         1 UNK         0.0600 
    235 H235       -3.9372  -19.5865  -53.7599 H         1 UNK         0.3000 
    236 H236       -3.7883  -21.1913  -56.2000 H         1 UNK         0.0600 
    237 H237       -3.8001  -22.1887  -53.8733 H         1 UNK         0.0600 
    238 H238       -2.4043  -22.6675  -54.8274 H         1 UNK         0.0600 
    239 H239       -2.2289  -21.4351  -53.5895 H         1 UNK         0.0600 
    240 H240       -2.0476  -18.4074  -54.9889 H         1 UNK         0.3000 
    241 H241       -0.0158  -18.7737  -57.0694 H         1 UNK         0.0600 
    242 H242       -1.2245  -15.1068  -56.2184 H         1 UNK         0.3800 
    243 H243       -2.0033  -16.4321  -55.4012 H         1 UNK         0.3800 
    244 H244        1.9187  -18.4532  -55.6080 H         1 UNK         0.0800 
    245 H245        1.0666  -19.9133  -55.2331 H         1 UNK         0.0800 
    246 H246        1.3908  -20.6115  -52.9848 H         1 UNK         0.0800 
    247 H247       -0.3086  -20.2638  -52.7462 H         1 UNK         0.0800 
@<TRIPOS>BOND
     1    1    2 1    
     2    1  127 1    
     3    1  128 1    
     4    1  129 1    
     5    2    3 2    
     6    2    4 am   BACKBONE|DICT|INTERRES
     7    4    5 1    
     8    4  130 1    
     9    5    6 1    
    10    5   65 1    
    11    5  131 1    
    12    6    7 1    
    13    6  132 1    
    14    6  133 1    
    15    7    8 1    
    16    8    9 1    
    17    8  134 1    
    18    8  135 1    
    19    9   10 ar   
    20    9   14 ar   
    21   10   11 ar   
    22   10  136 1    
    23   11   12 ar   
    24   11  126 1    
    25   12   13 ar   
    26   12  137 1    
    27   13   14 ar   
    28   13   15 1    
    29   14  138 1    
    30   15   16 1    
    31   15  139 1    
    32   15  140 1    
    33   16   17 1    
    34   17   18 1    
    35   17  141 1    
    36   17  142 1    
    37   18   19 1    
    38   18   67 1    
    39   18  143 1    
    40   19   20 am   BACKBONE|DICT|INTERRES
    41   19  144 1    
    42   20   21 2    
    43   20   22 1    
    44   22   23 1    
    45   22   24 1    
    46   22  145 1    
    47   23  146 1    
    48   23  147 1    
    49   23  148 1    
    50   24   25 am   BACKBONE|DICT|INTERRES
    51   24  149 1    
    52   25   26 2    
    53   25   27 1    
    54   27   28 1    
    55   27   29 1    
    56   27  150 1    
    57   28  151 1    
    58   28  152 1    
    59   28  153 1    
    60   29   30 am   BACKBONE|DICT|INTERRES
    61   29  154 1    
    62   30   31 2    
    63   30   32 1    
    64   32   33 1    
    65   32   34 1    
    66   32  155 1    
    67   33  156 1    
    68   33  157 1    
    69   33  158 1    
    70   34   35 am   BACKBONE|DICT|INTERRES
    71   34  159 1    
    72   35   36 2    
    73   35   37 1    
    74   37   38 1    
    75   37   39 1    
    76   37  160 1    
    77   38  161 1    
    78   38  162 1    
    79   38  163 1    
    80   39   40 am   BACKBONE|DICT|INTERRES
    81   39  164 1    
    82   40   41 2    
    83   40   42 1    
    84   42   43 1    
    85   42   44 1    
    86   42  165 1    
    87   43  166 1    
    88   43  167 1    
    89   43  168 1    
    90   44   45 am   BACKBONE|DICT|INTERRES
    91   44  169 1    
    92   45   46 2    
    93   45   47 1    
    94   47   48 1    
    95   47   49 1    
    96   47  170 1    
    97   48  171 1    
    98   48  172 1    
    99   48  173 1    
   100   49   50 am   BACKBONE|DICT|INTERRES
   101   49  174 1    
   102   50   51 2    
   103   50   52 1    
   104   52   53 1    
   105   52   54 1    
   106   52  175 1    
   107   53  176 1    
   108   53  177 1    
   109   53  178 1    
   110   54   55 am   BACKBONE|DICT|INTERRES
   111   54  179 1    
   112   55   56 2    
   113   55   57 1    
   114   57   58 1    
   115   57   59 1    
   116   57  180 1    
   117   58  181 1    
   118   58  182 1    
   119   58  183 1    
   120   59   60 am   BACKBONE|DICT|INTERRES
   121   59  184 1    
   122   60   61 2    
   123   60   62 1    
   124   62   63 1    
   125   62   64 1    
   126   62  185 1    
   127   63  186 1    
   128   63  187 1    
   129   63  188 1    
   130   64   65 am   BACKBONE|DICT|INTERRES
   131   64  189 1    
   132   65   66 2    
   133   67   68 2    
   134   67   69 am   BACKBONE|DICT|INTERRES
   135   69   70 1    
   136   69  190 1    
   137   70   71 1    
   138   70   72 1    
   139   70  191 1    
   140   71  192 1    
   141   71  193 1    
   142   71  194 1    
   143   72   73 2    
   144   72   74 am   BACKBONE|DICT|INTERRES
   145   74   75 1    
   146   74  195 1    
   147   75   76 1    
   148   75   77 1    
   149   75  196 1    
   150   76  197 1    
   151   76  198 1    
   152   76  199 1    
   153   77   78 2    
   154   77   79 am   BACKBONE|DICT|INTERRES
   155   79   80 1    
   156   79  200 1    
   157   80   81 1    
   158   80   82 1    
   159   80  201 1    
   160   81  202 1    
   161   81  203 1    
   162   81  204 1    
   163   82   83 2    
   164   82   84 am   BACKBONE|DICT|INTERRES
   165   84   85 1    
   166   84  205 1    
   167   85   86 1    
   168   85   87 1    
   169   85  206 1    
   170   86  207 1    
   171   86  208 1    
   172   86  209 1    
   173   87   88 2    
   174   87   89 am   BACKBONE|DICT|INTERRES
   175   89   90 1    
   176   89  210 1    
   177   90   91 1    
   178   90   92 1    
   179   90  211 1    
   180   91  212 1    
   181   91  213 1    
   182   91  214 1    
   183   92   93 2    
   184   92   94 am   BACKBONE|DICT|INTERRES
   185   94   95 1    
   186   94  215 1    
   187   95   96 1    
   188   95   97 1    
   189   95  216 1    
   190   96  217 1    
   191   96  218 1    
   192   96  219 1    
   193   97   98 2    
   194   97   99 am   BACKBONE|DICT|INTERRES
   195   99  100 1    
   196   99  220 1    
   197  100  101 1    
   198  100  102 1    
   199  100  221 1    
   200  101  222 1    
   201  101  223 1    
   202  101  224 1    
   203  102  103 2    
   204  102  104 am   BACKBONE|DICT|INTERRES
   205  104  105 1    
   206  104  225 1    
   207  105  106 1    
   208  105  107 1    
   209  105  226 1    
   210  106  227 1    
   211  106  228 1    
   212  106  229 1    
   213  107  108 2    
   214  107  109 am   BACKBONE|DICT|INTERRES
   215  109  110 1    
   216  109  230 1    
   217  110  111 1    
   218  110  112 1    
   219  110  231 1    
   220  111  232 1    
   221  111  233 1    
   222  111  234 1    
   223  112  113 2    
   224  112  114 am   BACKBONE|DICT|INTERRES
   225  114  115 1    
   226  114  235 1    
   227  115  116 1    
   228  115  117 1    
   229  115  236 1    
   230  116  237 1    
   231  116  238 1    
   232  116  239 1    
   233  117  118 2    
   234  117  119 am   BACKBONE|DICT|INTERRES
   235  119  120 1    
   236  119  240 1    
   237  120  121 1    
   238  120  124 1    
   239  120  241 1    
   240  121  122 am   BACKBONE|DICT|INTERRES
   241  121  123 2    
   242  122  242 1    
   243  122  243 1    
   244  124  125 1    
   245  124  244 1    
   246  124  245 1    
   247  125  126 1    
   248  126  246 1    
   249  126  247 1    
@<TRIPOS>SUBSTRUCTURE
     1 UNK         1 GROUP             0       ****    0 ROOT    
