@<TRIPOS>MOLECULE
3R540
247   249    1
SMALL
USER_CHARGES


@<TRIPOS>ATOM
      1 CA          6.9715  -11.0094  -48.2697 C.3       0 UNK        -0.1800 
      2 C           5.9353  -12.1058  -48.0688 C.2       0 UNK         0.5000 
      3 O           5.1184  -12.0180  -47.1511 O.2       0 UNK        -0.5000 
      4 N           5.9577  -13.1360  -48.9243 N.am      1 UNK        -0.5000 
      5 CA          5.0310  -14.2723  -48.9101 C.3       1 UNK         0.1400 
      6 C6          5.6839  -15.5369  -49.5253 C.3       23 UNK        -0.0398 
      7 S7          4.8034  -17.0690  -49.0627 S.3       23 UNK        -0.2404 
      8 C8          4.3653  -17.7264  -50.7021 C.3       23 UNK        -0.0205 
      9 C9          3.2758  -18.7794  -50.5953 C.ar      23 UNK        -0.0193 
     10 C10         1.9452  -18.4338  -50.8402 C.ar      23 UNK        -0.1150 
     11 C11         0.9281  -19.3858  -50.7256 C.ar      23 UNK        -0.0193 
     12 C12         1.2535  -20.6951  -50.3560 C.ar      23 UNK        -0.1150 
     13 C13         2.5825  -21.0526  -50.1019 C.ar      23 UNK        -0.0193 
     14 C14         3.5905  -20.0928  -50.2377 C.ar      23 UNK        -0.1150 
     15 C15         2.9270  -22.4779  -49.6900 C.3       23 UNK        -0.0205 
     16 S16         3.8047  -22.5883  -48.0887 S.3       23 UNK        -0.2404 
     17 C17         2.6613  -21.7978  -46.9020 C.3       23 UNK        -0.0398 
     18 CA          1.6524  -22.7957  -46.2791 C.3       11 UNK         0.1400 
     19 N           1.2428  -22.4132  -44.9262 N.am      11 UNK        -0.5000 
     20 C           0.5988  -23.2123  -44.0637 C.2       10 UNK         0.5000 
     21 O           0.3643  -24.3994  -44.2921 O.2       10 UNK        -0.5000 
     22 CA          0.0788  -22.5629  -42.7624 C.3       10 UNK         0.1400 
     23 CB          0.0108  -23.5534  -41.5822 C.3       10 UNK        -0.1800 
     24 N           0.7901  -21.3347  -42.3914 N.am      10 UNK        -0.5000 
     25 C           2.0732  -21.2039  -42.0222 C.2       9 UNK         0.5000 
     26 O           2.8487  -22.1510  -41.8887 O.2       9 UNK        -0.5000 
     27 CA          2.5971  -19.7705  -41.7941 C.3       9 UNK         0.1400 
     28 CB          3.5704  -19.3816  -42.9186 C.3       9 UNK        -0.1800 
     29 N           1.5385  -18.7602  -41.7241 N.am      9 UNK        -0.5000 
     30 C           0.7191  -18.5680  -40.6818 C.2       8 UNK         0.5000 
     31 O           0.7983  -19.1947  -39.6249 O.2       8 UNK        -0.5000 
     32 CA         -0.4031  -17.5275  -40.8703 C.3       8 UNK         0.1400 
     33 CB          0.1089  -16.1092  -40.5771 C.3       8 UNK        -0.1800 
     34 N          -1.0012  -17.5656  -42.2082 N.am      8 UNK        -0.5000 
     35 C          -1.6863  -18.6061  -42.7052 C.2       7 UNK         0.5000 
     36 O          -1.9045  -19.6433  -42.0795 O.2       7 UNK        -0.5000 
     37 CA         -2.1620  -18.4965  -44.1632 C.3       7 UNK         0.1400 
     38 CB         -3.4286  -17.6363  -44.2739 C.3       7 UNK        -0.1800 
     39 N          -1.1197  -17.9688  -45.0416 N.am      7 UNK        -0.5000 
     40 C           0.0056  -18.6252  -45.3537 C.2       6 UNK         0.5000 
     41 O           0.2288  -19.7901  -45.0262 O.2       6 UNK        -0.5000 
     42 CA          1.0731  -17.8591  -46.1498 C.3       6 UNK         0.1400 
     43 CB          0.8025  -17.9847  -47.6486 C.3       6 UNK        -0.1800 
     44 N           1.1518  -16.4459  -45.7940 N.am      6 UNK        -0.5000 
     45 C           1.5142  -15.9735  -44.5956 C.2       5 UNK         0.5000 
     46 O           1.8645  -16.6860  -43.6569 O.2       5 UNK        -0.5000 
     47 CA          1.4061  -14.4528  -44.3989 C.3       5 UNK         0.1400 
     48 CB          2.6243  -13.7299  -44.9949 C.3       5 UNK        -0.1800 
     49 N           0.1747  -13.9213  -44.9853 N.am      5 UNK        -0.5000 
     50 C          -1.0545  -14.1694  -44.5108 C.2       4 UNK         0.5000 
     51 O          -1.2730  -14.8407  -43.5018 O.2       4 UNK        -0.5000 
     52 CA         -2.2362  -13.6011  -45.3194 C.3       4 UNK         0.1400 
     53 CB         -2.4998  -12.1374  -44.9361 C.3       4 UNK        -0.1800 
     54 N          -2.0275  -13.6935  -46.7661 N.am      4 UNK        -0.5000 
     55 C          -2.0124  -14.8451  -47.4530 C.2       3 UNK         0.5000 
     56 O          -2.2053  -15.9448  -46.9376 O.2       3 UNK        -0.5000 
     57 CA         -1.6645  -14.7535  -48.9536 C.3       3 UNK         0.1400 
     58 CB         -2.9149  -14.4372  -49.7869 C.3       3 UNK        -0.1800 
     59 N          -0.6253  -13.7620  -49.2558 N.am      3 UNK        -0.5000 
     60 C           0.6143  -13.7873  -48.7502 C.2       2 UNK         0.5000 
     61 O           0.9965  -14.6355  -47.9424 O.2       2 UNK        -0.5000 
     62 CA          1.5600  -12.6449  -49.1654 C.3       2 UNK         0.1400 
     63 CB          1.2126  -11.3595  -48.3976 C.3       2 UNK        -0.1800 
     64 N           2.9507  -12.9897  -48.8783 N.am      2 UNK        -0.5000 
     65 C           3.6809  -13.8823  -49.5563 C.2       1 UNK         0.5000 
     66 O           3.3371  -14.3582  -50.6399 O.2       1 UNK        -0.5000 
     67 C           0.4145  -22.9562  -47.1766 C.2       11 UNK         0.5000 
     68 O           0.3126  -23.9480  -47.8946 O.2       11 UNK        -0.5000 
     69 N          -0.5338  -22.0132  -47.0611 N.am      12 UNK        -0.5000 
     70 CA         -1.7884  -21.9820  -47.8197 C.3       12 UNK         0.1400 
     71 CB         -2.5298  -20.6783  -47.4979 C.3       12 UNK        -0.1800 
     72 C          -2.7080  -23.1937  -47.5650 C.2       12 UNK         0.5000 
     73 O          -3.5386  -23.5149  -48.4127 O.2       12 UNK        -0.5000 
     74 N          -2.5456  -23.8438  -46.4051 N.am      13 UNK        -0.5000 
     75 CA         -3.2348  -25.0813  -46.0463 C.3       13 UNK         0.1400 
     76 CB         -3.2996  -25.1799  -44.5138 C.3       13 UNK        -0.1800 
     77 C          -2.5530  -26.3319  -46.6367 C.2       13 UNK         0.5000 
     78 O          -3.2110  -27.3645  -46.7699 O.2       13 UNK        -0.5000 
     79 N          -1.2559  -26.2335  -46.9579 N.am      14 UNK        -0.5000 
     80 CA         -0.4358  -27.3315  -47.4645 C.3       14 UNK         0.1400 
     81 CB          0.9823  -27.2088  -46.8834 C.3       14 UNK        -0.1800 
     82 C          -0.3875  -27.3561  -49.0007 C.2       14 UNK         0.5000 
     83 O          -0.4114  -28.4413  -49.5835 O.2       14 UNK        -0.5000 
     84 N          -0.3178  -26.1782  -49.6320 N.am      15 UNK        -0.5000 
     85 CA         -0.2214  -26.0105  -51.0784 C.3       15 UNK         0.1400 
     86 CB          1.2548  -26.0892  -51.5069 C.3       15 UNK        -0.1800 
     87 C          -0.8376  -24.6690  -51.4942 C.2       15 UNK         0.5000 
     88 O          -0.8607  -23.7316  -50.6970 O.2       15 UNK        -0.5000 
     89 N          -1.3026  -24.6021  -52.7502 N.am      16 UNK        -0.5000 
     90 CA         -1.9061  -23.4317  -53.4032 C.3       16 UNK         0.1400 
     91 CB         -0.8625  -22.3066  -53.5816 C.3       16 UNK        -0.1800 
     92 C          -3.1989  -22.9354  -52.7188 C.2       16 UNK         0.5000 
     93 O          -3.4830  -21.7379  -52.7484 O.2       16 UNK        -0.5000 
     94 N          -3.9600  -23.8599  -52.1175 N.am      17 UNK        -0.5000 
     95 CA         -5.1977  -23.5839  -51.3880 C.3       17 UNK         0.1400 
     96 CB         -5.6726  -24.8765  -50.7049 C.3       17 UNK        -0.1800 
     97 C          -6.3055  -23.0155  -52.2951 C.2       17 UNK         0.5000 
     98 O          -6.5250  -23.5347  -53.3924 O.2       17 UNK        -0.5000 
     99 N          -6.9972  -21.9838  -51.8034 N.am      18 UNK        -0.5000 
    100 CA        -8.1057  -21.2951  -52.4559 C.3       18 UNK         0.1400 
    101 CB        -7.5868  -20.4174  -53.6112 C.3       18 UNK        -0.1800 
    102 C         -8.8125  -20.4246  -51.4084 C.2       18 UNK         0.5000 
    103 O         -8.2267  -20.1293  -50.3625 O.2       18 UNK        -0.5000 
    104 N        -10.0339  -19.9755  -51.7266 N.am      19 UNK        -0.5000 
    105 CA       -10.8437  -19.0776  -50.8913 C.3       19 UNK         0.1400 
    106 CB       -12.2450  -18.9489  -51.5076 C.3       19 UNK        -0.1800 
    107 C        -10.2153  -17.6826  -50.6837 C.2       19 UNK         0.5000 
    108 O        -10.4969  -17.0301  -49.6786 O.2       19 UNK        -0.5000 
    109 N         -9.3502  -17.2698  -51.6201 N.am      20 UNK        -0.5000 
    110 CA        -8.5413  -16.0502  -51.5585 C.3       20 UNK         0.1400 
    111 CB        -8.1422  -15.6675  -52.9938 C.3       20 UNK        -0.1800 
    112 C         -7.2870  -16.1857  -50.6649 C.2       20 UNK         0.5000 
    113 O         -6.5336  -15.2198  -50.5477 O.2       20 UNK        -0.5000 
    114 N         -7.0619  -17.3784  -50.0903 N.am      21 UNK        -0.5000 
    115 CA        -5.9146  -17.7983  -49.2749 C.3       21 UNK         0.1400 
    116 CB        -5.7227  -16.9033  -48.0321 C.3       21 UNK        -0.1800 
    117 C         -4.6122  -18.0096  -50.0751 C.2       21 UNK         0.5000 
    118 O         -3.5772  -18.2955  -49.4761 O.2       21 UNK        -0.5000 
    119 N         -4.6835  -17.9203  -51.4074 N.am      22 UNK        -0.5000 
    120 CA        -3.6245  -18.3029  -52.3419 C.3       22 UNK         0.1400 
    121 C         -4.2163  -18.4036  -53.7679 C.2       22 UNK         0.5000 
    122 N         -4.2021  -19.5811  -54.3719 N.am      22 UNK        -0.7600 
    123 O         -4.6906  -17.4175  -54.3265 O.2       22 UNK        -0.5000 
    124 C124       -2.3776  -17.3781  -52.2820 C.3       23 UNK        -0.0398 
    125 S125       -0.8342  -18.3003  -52.5905 S.3       23 UNK        -0.2404 
    126 C126       -0.5227  -18.9718  -50.9248 C.3       23 UNK        -0.0205 
    127 H127        7.6270  -11.2203  -49.1149 H         1 UNK         0.0600 
    128 H128        7.5888  -10.9092  -47.3771 H         1 UNK         0.0600 
    129 H129        6.4768  -10.0555  -48.4523 H         1 UNK         0.0600 
    130 H130        6.6323  -13.1329  -49.6763 H         1 UNK         0.3000 
    131 H131        4.8181  -14.5071  -47.8642 H         1 UNK         0.0600 
    132 H132        6.7034  -15.6411  -49.1516 H         1 UNK         0.0800 
    133 H133        5.7752  -15.4487  -50.6092 H         1 UNK         0.0800 
    134 H134        5.2529  -18.1514  -51.1729 H         1 UNK         0.0800 
    135 H135        4.0298  -16.9143  -51.3489 H         1 UNK         0.0800 
    136 H136        1.6952  -17.4144  -51.1001 H         1 UNK         0.1150 
    137 H137        0.4706  -21.4331  -50.2502 H         1 UNK         0.1150 
    138 H138        4.6187  -20.3629  -50.0419 H         1 UNK         0.1150 
    139 H139        2.0321  -23.0994  -49.6588 H         1 UNK         0.0800 
    140 H140        3.5627  -22.9144  -50.4612 H         1 UNK         0.0800 
    141 H141        2.1699  -20.9364  -47.3567 H         1 UNK         0.0800 
    142 H142        3.2919  -21.3824  -46.1146 H         1 UNK         0.0800 
    143 H143        2.1349  -23.7726  -46.1987 H         1 UNK         0.0600 
    144 H144        1.2778  -21.4239  -44.7047 H         1 UNK         0.3000 
    145 H145       -0.9436  -22.2513  -42.9808 H         1 UNK         0.0600 
    146 H146       -0.3628  -23.0669  -40.6811 H         1 UNK         0.0600 
    147 H147       -0.6633  -24.3812  -41.8054 H         1 UNK         0.0600 
    148 H148        0.9867  -23.9822  -41.3539 H         1 UNK         0.0600 
    149 H149        0.2450  -20.4866  -42.4749 H         1 UNK         0.3000 
    150 H150        3.1441  -19.7667  -40.8492 H         1 UNK         0.0600 
    151 H151        4.4015  -20.0851  -42.9819 H         1 UNK         0.0600 
    152 H152        3.9957  -18.3925  -42.7477 H         1 UNK         0.0600 
    153 H153        3.0751  -19.3694  -43.8901 H         1 UNK         0.0600 
    154 H154        1.4593  -18.1344  -42.5224 H         1 UNK         0.3000 
    155 H155       -1.1902  -17.7577  -40.1493 H         1 UNK         0.0600 
    156 H156        0.5254  -16.0447  -39.5712 H         1 UNK         0.0600 
    157 H157       -0.6969  -15.3780  -40.6436 H         1 UNK         0.0600 
    158 H158        0.8899  -15.8089  -41.2756 H         1 UNK         0.0600 
    159 H159       -0.8935  -16.7333  -42.7787 H         1 UNK         0.3000 
    160 H160       -2.4116  -19.5040  -44.4984 H         1 UNK         0.0600 
    161 H161       -3.2471  -16.6044  -43.9744 H         1 UNK         0.0600 
    162 H162       -4.2240  -18.0284  -43.6390 H         1 UNK         0.0600 
    163 H163       -3.8042  -17.6255  -45.2965 H         1 UNK         0.0600 
    164 H164       -1.2752  -17.0477  -45.4359 H         1 UNK         0.3000 
    165 H165        2.0420  -18.3146  -45.9368 H         1 UNK         0.0600 
    166 H166        1.5916  -17.5044  -48.2269 H         1 UNK         0.0600 
    167 H167        0.7603  -19.0316  -47.9477 H         1 UNK         0.0600 
    168 H168       -0.1453  -17.5239  -47.9261 H         1 UNK         0.0600 
    169 H169        0.9327  -15.7799  -46.5327 H         1 UNK         0.3000 
    170 H170        1.3856  -14.2537  -43.3254 H         1 UNK         0.0600 
    171 H171        3.5466  -14.0728  -44.5245 H         1 UNK         0.0600 
    172 H172        2.7219  -13.9080  -46.0654 H         1 UNK         0.0600 
    173 H173        2.5618  -12.6529  -44.8390 H         1 UNK         0.0600 
    174 H174        0.2666  -13.4163  -45.8533 H         1 UNK         0.3000 
    175 H175       -3.1237  -14.1846  -45.0648 H         1 UNK         0.0600 
    176 H176       -2.6754  -12.0409  -43.8638 H         1 UNK         0.0600 
    177 H177       -1.6560  -11.4944  -45.1899 H         1 UNK         0.0600 
    178 H178       -3.3826  -11.7498  -45.4448 H         1 UNK         0.0600 
    179 H179       -1.8575  -12.8316  -47.2625 H         1 UNK         0.3000 
    180 H180       -1.2876  -15.7307  -49.2624 H         1 UNK         0.0600 
    181 H181       -3.3513  -13.4755  -49.5148 H         1 UNK         0.0600 
    182 H182       -3.6811  -15.1974  -49.6422 H         1 UNK         0.0600 
    183 H183       -2.6867  -14.4129  -50.8525 H         1 UNK         0.0600 
    184 H184       -0.8776  -13.0280  -49.9017 H         1 UNK         0.3000 
    185 H185        1.4502  -12.4665  -50.2370 H         1 UNK         0.0600 
    186 H186        0.1912  -11.0379  -48.6048 H         1 UNK         0.0600 
    187 H187        1.3024  -11.4972  -47.3190 H         1 UNK         0.0600 
    188 H188        1.8724  -10.5404  -48.6845 H         1 UNK         0.0600 
    189 H189        3.3467  -12.6184  -48.0220 H         1 UNK         0.3000 
    190 H190       -0.3795  -21.2539  -46.4078 H         1 UNK         0.3000 
    191 H191       -1.5373  -21.9758  -48.8812 H         1 UNK         0.0600 
    192 H192       -2.8153  -20.6287  -46.4482 H         1 UNK         0.0600 
    193 H193       -3.4443  -20.5990  -48.0865 H         1 UNK         0.0600 
    194 H194       -1.9204  -19.8037  -47.7274 H         1 UNK         0.0600 
    195 H195       -1.8375  -23.5166  -45.7658 H         1 UNK         0.3000 
    196 H196       -4.2575  -25.0474  -46.4282 H         1 UNK         0.0600 
    197 H197       -3.8410  -26.0744  -44.2031 H         1 UNK         0.0600 
    198 H198       -3.8173  -24.3222  -44.0842 H         1 UNK         0.0600 
    199 H199       -2.3045  -25.2290  -44.0701 H         1 UNK         0.0600 
    200 H200       -0.7980  -25.3325  -46.8933 H         1 UNK         0.3000 
    201 H201       -0.8497  -28.2841  -47.1270 H         1 UNK         0.0600 
    202 H202        0.9630  -27.2160  -45.7934 H         1 UNK         0.0600 
    203 H203        1.4742  -26.2889  -47.2012 H         1 UNK         0.0600 
    204 H204        1.6082  -28.0422  -47.2045 H         1 UNK         0.0600 
    205 H205       -0.2955  -25.3118  -49.0963 H         1 UNK         0.3000 
    206 H206       -0.7840  -26.8055  -51.5727 H         1 UNK         0.0600 
    207 H207        1.6874  -27.0591  -51.2614 H         1 UNK         0.0600 
    208 H208        1.3608  -25.9502  -52.5834 H         1 UNK         0.0600 
    209 H209        1.8539  -25.3217  -51.0152 H         1 UNK         0.0600 
    210 H210       -1.2347  -25.4282  -53.3285 H         1 UNK         0.3000 
    211 H211       -2.2046  -23.7601  -54.3996 H         1 UNK         0.0600 
    212 H212       -0.5738  -21.8657  -52.6270 H         1 UNK         0.0600 
    213 H213       -1.2552  -21.5008  -54.2030 H         1 UNK         0.0600 
    214 H214        0.0406  -22.6772  -54.0661 H         1 UNK         0.0600 
    215 H215       -3.6642  -24.8229  -52.1562 H         1 UNK         0.3000 
    216 H216       -4.9657  -22.8484  -50.6149 H         1 UNK         0.0600 
    217 H217       -6.5695  -24.6963  -50.1111 H         1 UNK         0.0600 
    218 H218       -4.9121  -25.2705  -50.0302 H         1 UNK         0.0600 
    219 H219       -5.9101  -25.6531  -51.4331 H         1 UNK         0.0600 
    220 H220       -6.7936  -21.6272  -50.8774 H         1 UNK         0.3000 
    221 H221       -8.8132  -22.0353  -52.8350 H         1 UNK         0.0600 
    222 H222       -6.9099  -19.6437  -53.2486 H         1 UNK         0.0600 
    223 H223       -7.0509  -21.0058  -54.3558 H         1 UNK         0.0600 
    224 H224       -8.4072  -19.9193  -54.1288 H         1 UNK         0.0600 
    225 H225      -10.4444  -20.2567  -52.6058 H         1 UNK         0.3000 
    226 H226      -10.9441  -19.5380  -49.9062 H         1 UNK         0.0600 
    227 H227      -12.7352  -19.9199  -51.5805 H         1 UNK         0.0600 
    228 H228      -12.8839  -18.3098  -50.8966 H         1 UNK         0.0600 
    229 H229      -12.2067  -18.5148  -52.5075 H         1 UNK         0.0600 
    230 H230       -9.1987  -17.8682  -52.4184 H         1 UNK         0.3000 
    231 H231       -9.1496  -15.2431  -51.1450 H         1 UNK         0.0600 
    232 H232       -9.0208  -15.5284  -53.6241 H         1 UNK         0.0600 
    233 H233       -7.5147  -16.4314  -53.4553 H         1 UNK         0.0600 
    234 H234       -7.5833  -14.7309  -53.0110 H         1 UNK         0.0600 
    235 H235       -7.7349  -18.1176  -50.2599 H         1 UNK         0.3000 
    236 H236       -6.1776  -18.7906  -48.9059 H         1 UNK         0.0600 
    237 H237       -4.9325  -17.2936  -47.3903 H         1 UNK         0.0600 
    238 H238       -5.4469  -15.8826  -48.2918 H         1 UNK         0.0600 
    239 H239       -6.6332  -16.8617  -47.4346 H         1 UNK         0.0600 
    240 H240       -5.5611  -17.6625  -51.8344 H         1 UNK         0.3000 
    241 H241       -3.3218  -19.3030  -52.0300 H         1 UNK         0.0600 
    242 H242       -4.5761  -19.6708  -55.3024 H         1 UNK         0.3800 
    243 H243       -3.8726  -20.4065  -53.8715 H         1 UNK         0.3800 
    244 H244       -2.4499  -16.5560  -52.9961 H         1 UNK         0.0800 
    245 H245       -2.2888  -16.8954  -51.3100 H         1 UNK         0.0800 
    246 H246       -0.7687  -18.2217  -50.1730 H         1 UNK         0.0800 
    247 H247       -1.1965  -19.8124  -50.7497 H         1 UNK         0.0800 
@<TRIPOS>BOND
     1    1    2 1    
     2    1  127 1    
     3    1  128 1    
     4    1  129 1    
     5    2    3 2    
     6    2    4 am   BACKBONE|DICT|INTERRES
     7    4    5 1    
     8    4  130 1    
     9    5    6 1    
    10    5   65 1    
    11    5  131 1    
    12    6    7 1    
    13    6  132 1    
    14    6  133 1    
    15    7    8 1    
    16    8    9 1    
    17    8  134 1    
    18    8  135 1    
    19    9   10 ar   
    20    9   14 ar   
    21   10   11 ar   
    22   10  136 1    
    23   11   12 ar   
    24   11  126 1    
    25   12   13 ar   
    26   12  137 1    
    27   13   14 ar   
    28   13   15 1    
    29   14  138 1    
    30   15   16 1    
    31   15  139 1    
    32   15  140 1    
    33   16   17 1    
    34   17   18 1    
    35   17  141 1    
    36   17  142 1    
    37   18   19 1    
    38   18   67 1    
    39   18  143 1    
    40   19   20 am   BACKBONE|DICT|INTERRES
    41   19  144 1    
    42   20   21 2    
    43   20   22 1    
    44   22   23 1    
    45   22   24 1    
    46   22  145 1    
    47   23  146 1    
    48   23  147 1    
    49   23  148 1    
    50   24   25 am   BACKBONE|DICT|INTERRES
    51   24  149 1    
    52   25   26 2    
    53   25   27 1    
    54   27   28 1    
    55   27   29 1    
    56   27  150 1    
    57   28  151 1    
    58   28  152 1    
    59   28  153 1    
    60   29   30 am   BACKBONE|DICT|INTERRES
    61   29  154 1    
    62   30   31 2    
    63   30   32 1    
    64   32   33 1    
    65   32   34 1    
    66   32  155 1    
    67   33  156 1    
    68   33  157 1    
    69   33  158 1    
    70   34   35 am   BACKBONE|DICT|INTERRES
    71   34  159 1    
    72   35   36 2    
    73   35   37 1    
    74   37   38 1    
    75   37   39 1    
    76   37  160 1    
    77   38  161 1    
    78   38  162 1    
    79   38  163 1    
    80   39   40 am   BACKBONE|DICT|INTERRES
    81   39  164 1    
    82   40   41 2    
    83   40   42 1    
    84   42   43 1    
    85   42   44 1    
    86   42  165 1    
    87   43  166 1    
    88   43  167 1    
    89   43  168 1    
    90   44   45 am   BACKBONE|DICT|INTERRES
    91   44  169 1    
    92   45   46 2    
    93   45   47 1    
    94   47   48 1    
    95   47   49 1    
    96   47  170 1    
    97   48  171 1    
    98   48  172 1    
    99   48  173 1    
   100   49   50 am   BACKBONE|DICT|INTERRES
   101   49  174 1    
   102   50   51 2    
   103   50   52 1    
   104   52   53 1    
   105   52   54 1    
   106   52  175 1    
   107   53  176 1    
   108   53  177 1    
   109   53  178 1    
   110   54   55 am   BACKBONE|DICT|INTERRES
   111   54  179 1    
   112   55   56 2    
   113   55   57 1    
   114   57   58 1    
   115   57   59 1    
   116   57  180 1    
   117   58  181 1    
   118   58  182 1    
   119   58  183 1    
   120   59   60 am   BACKBONE|DICT|INTERRES
   121   59  184 1    
   122   60   61 2    
   123   60   62 1    
   124   62   63 1    
   125   62   64 1    
   126   62  185 1    
   127   63  186 1    
   128   63  187 1    
   129   63  188 1    
   130   64   65 am   BACKBONE|DICT|INTERRES
   131   64  189 1    
   132   65   66 2    
   133   67   68 2    
   134   67   69 am   BACKBONE|DICT|INTERRES
   135   69   70 1    
   136   69  190 1    
   137   70   71 1    
   138   70   72 1    
   139   70  191 1    
   140   71  192 1    
   141   71  193 1    
   142   71  194 1    
   143   72   73 2    
   144   72   74 am   BACKBONE|DICT|INTERRES
   145   74   75 1    
   146   74  195 1    
   147   75   76 1    
   148   75   77 1    
   149   75  196 1    
   150   76  197 1    
   151   76  198 1    
   152   76  199 1    
   153   77   78 2    
   154   77   79 am   BACKBONE|DICT|INTERRES
   155   79   80 1    
   156   79  200 1    
   157   80   81 1    
   158   80   82 1    
   159   80  201 1    
   160   81  202 1    
   161   81  203 1    
   162   81  204 1    
   163   82   83 2    
   164   82   84 am   BACKBONE|DICT|INTERRES
   165   84   85 1    
   166   84  205 1    
   167   85   86 1    
   168   85   87 1    
   169   85  206 1    
   170   86  207 1    
   171   86  208 1    
   172   86  209 1    
   173   87   88 2    
   174   87   89 am   BACKBONE|DICT|INTERRES
   175   89   90 1    
   176   89  210 1    
   177   90   91 1    
   178   90   92 1    
   179   90  211 1    
   180   91  212 1    
   181   91  213 1    
   182   91  214 1    
   183   92   93 2    
   184   92   94 am   BACKBONE|DICT|INTERRES
   185   94   95 1    
   186   94  215 1    
   187   95   96 1    
   188   95   97 1    
   189   95  216 1    
   190   96  217 1    
   191   96  218 1    
   192   96  219 1    
   193   97   98 2    
   194   97   99 am   BACKBONE|DICT|INTERRES
   195   99  100 1    
   196   99  220 1    
   197  100  101 1    
   198  100  102 1    
   199  100  221 1    
   200  101  222 1    
   201  101  223 1    
   202  101  224 1    
   203  102  103 2    
   204  102  104 am   BACKBONE|DICT|INTERRES
   205  104  105 1    
   206  104  225 1    
   207  105  106 1    
   208  105  107 1    
   209  105  226 1    
   210  106  227 1    
   211  106  228 1    
   212  106  229 1    
   213  107  108 2    
   214  107  109 am   BACKBONE|DICT|INTERRES
   215  109  110 1    
   216  109  230 1    
   217  110  111 1    
   218  110  112 1    
   219  110  231 1    
   220  111  232 1    
   221  111  233 1    
   222  111  234 1    
   223  112  113 2    
   224  112  114 am   BACKBONE|DICT|INTERRES
   225  114  115 1    
   226  114  235 1    
   227  115  116 1    
   228  115  117 1    
   229  115  236 1    
   230  116  237 1    
   231  116  238 1    
   232  116  239 1    
   233  117  118 2    
   234  117  119 am   BACKBONE|DICT|INTERRES
   235  119  120 1    
   236  119  240 1    
   237  120  121 1    
   238  120  124 1    
   239  120  241 1    
   240  121  122 am   BACKBONE|DICT|INTERRES
   241  121  123 2    
   242  122  242 1    
   243  122  243 1    
   244  124  125 1    
   245  124  244 1    
   246  124  245 1    
   247  125  126 1    
   248  126  246 1    
   249  126  247 1    
@<TRIPOS>SUBSTRUCTURE
     1 UNK         1 GROUP             0       ****    0 ROOT    
