@<TRIPOS>MOLECULE
3R540
247   249    1
SMALL
USER_CHARGES


@<TRIPOS>ATOM
      1 CA         -4.5172  -15.8180  -48.1912 C.3       0 UNK        -0.1800 
      2 C          -3.3244  -14.9075  -47.9387 C.2       0 UNK         0.5000 
      3 O          -2.3058  -15.3602  -47.4182 O.2       0 UNK        -0.5000 
      4 N          -3.4648  -13.6173  -48.2728 N.am      1 UNK        -0.5000 
      5 CA         -2.4857  -12.5207  -48.1590 C.3       1 UNK         0.1400 
      6 C6         -1.2262  -12.7039  -49.0474 C.3       23 UNK        -0.0398 
      7 S7         -1.6390  -12.6022  -50.8255 S.3       23 UNK        -0.2404 
      8 C8         -0.7014  -13.9885  -51.5455 C.3       23 UNK        -0.0205 
      9 C9         -1.2803  -15.3389  -51.1553 C.ar      23 UNK        -0.0193 
     10 C10        -2.5037  -15.7614  -51.6844 C.ar      23 UNK        -0.1150 
     11 C11        -3.0549  -16.9889  -51.3048 C.ar      23 UNK        -0.0193 
     12 C12        -2.3651  -17.8029  -50.4025 C.ar      23 UNK        -0.1150 
     13 C13        -1.1384  -17.3924  -49.8754 C.ar      23 UNK        -0.0193 
     14 C14        -0.5967  -16.1637  -50.2588 C.ar      23 UNK        -0.1150 
     15 C15        -0.4329  -18.2468  -48.8422 C.3       23 UNK        -0.0205 
     16 S16         0.5241  -19.6012  -49.5900 S.3       23 UNK        -0.2404 
     17 C17         1.0657  -20.4693  -48.0678 C.3       23 UNK        -0.0398 
     18 CA          0.2679  -21.7235  -47.5881 C.3       11 UNK         0.1400 
     19 N           0.3338  -21.8652  -46.1260 N.am      11 UNK        -0.5000 
     20 C          -0.1265  -22.9104  -45.4226 C.2       10 UNK         0.5000 
     21 O          -0.6286  -23.9096  -45.9327 O.2       10 UNK        -0.5000 
     22 CA         -0.0570  -22.8117  -43.8879 C.3       10 UNK         0.1400 
     23 CB          1.3638  -23.1010  -43.3834 C.3       10 UNK        -0.1800 
     24 N          -0.5158  -21.5186  -43.3817 N.am      10 UNK        -0.5000 
     25 C          -1.7691  -21.0571  -43.5073 C.2       9 UNK         0.5000 
     26 O          -2.6866  -21.6986  -44.0196 O.2       9 UNK        -0.5000 
     27 CA         -2.0292  -19.6131  -43.0374 C.3       9 UNK         0.1400 
     28 CB         -2.2222  -19.5536  -41.5154 C.3       9 UNK        -0.1800 
     29 N          -0.9654  -18.6908  -43.4380 N.am      9 UNK        -0.5000 
     30 C          -0.6117  -18.4534  -44.7091 C.2       8 UNK         0.5000 
     31 O          -1.1779  -18.9539  -45.6786 O.2       8 UNK        -0.5000 
     32 CA          0.6285  -17.5733  -44.9296 C.3       8 UNK         0.1400 
     33 CB          0.2827  -16.0817  -44.8089 C.3       8 UNK        -0.1800 
     34 N           1.7090  -17.9350  -44.0103 N.am      8 UNK        -0.5000 
     35 C           2.4006  -19.0827  -44.0875 C.2       7 UNK         0.5000 
     36 O           2.2465  -19.9112  -44.9844 O.2       7 UNK        -0.5000 
     37 CA          3.3885  -19.3878  -42.9479 C.3       7 UNK         0.1400 
     38 CB          4.7860  -18.8374  -43.2602 C.3       7 UNK        -0.1800 
     39 N           2.9243  -18.8697  -41.6611 N.am      7 UNK        -0.5000 
     40 C           1.9145  -19.4157  -40.9680 C.2       6 UNK         0.5000 
     41 O           1.3066  -20.4213  -41.3340 O.2       6 UNK        -0.5000 
     42 CA          1.4770  -18.6993  -39.6767 C.3       6 UNK         0.1400 
     43 CB          2.2763  -19.2216  -38.4740 C.3       6 UNK        -0.1800 
     44 N           1.6030  -17.2424  -39.7443 N.am      6 UNK        -0.5000 
     45 C           0.9585  -16.4543  -40.6152 C.2       5 UNK         0.5000 
     46 O           0.1773  -16.8834  -41.4653 O.2       5 UNK        -0.5000 
     47 CA          1.2457  -14.9406  -40.5545 C.3       5 UNK         0.1400 
     48 CB          2.0165  -14.4943  -39.2919 C.3       5 UNK        -0.1800 
     49 N           1.9276  -14.4559  -41.7585 N.am      5 UNK        -0.5000 
     50 C           3.0964  -14.8826  -42.2646 C.2       4 UNK         0.5000 
     51 O           3.7275  -15.8327  -41.7990 O.2       4 UNK        -0.5000 
     52 CA          3.6627  -14.1352  -43.4930 C.3       4 UNK         0.1400 
     53 CB          4.1348  -15.1019  -44.5925 C.3       4 UNK        -0.1800 
     54 N           2.7103  -13.1828  -44.0707 N.am      4 UNK        -0.5000 
     55 C           2.6463  -11.8820  -43.7569 C.2       3 UNK         0.5000 
     56 O           3.4058  -11.3306  -42.9597 O.2       3 UNK        -0.5000 
     57 CA          1.5317  -11.0584  -44.4315 C.3       3 UNK         0.1400 
     58 CB          2.0515  -10.4133  -45.7256 C.3       3 UNK        -0.1800 
     59 N           0.3080  -11.8075  -44.7366 N.am      3 UNK        -0.5000 
     60 C          -0.4729  -12.4387  -43.8501 C.2       2 UNK         0.5000 
     61 O          -0.1712  -12.5689  -42.6631 O.2       2 UNK        -0.5000 
     62 CA         -1.8007  -13.0494  -44.3499 C.3       2 UNK         0.1400 
     63 CB         -3.0068  -12.3500  -43.6937 C.3       2 UNK        -0.1800 
     64 N          -1.9817  -13.1237  -45.8084 N.am      2 UNK        -0.5000 
     65 C          -2.1100  -12.1374  -46.7068 C.2       1 UNK         0.5000 
     66 O          -1.9547  -10.9482  -46.4299 O.2       1 UNK        -0.5000 
     67 C          -1.1890  -21.7943  -48.1024 C.2       11 UNK         0.5000 
     68 O          -1.4560  -22.4679  -49.0998 O.2       11 UNK        -0.5000 
     69 N          -2.0965  -21.0991  -47.4071 N.am      12 UNK        -0.5000 
     70 CA         -3.5116  -21.0316  -47.7377 C.3       12 UNK         0.1400 
     71 CB         -4.1496  -19.8400  -47.0053 C.3       12 UNK        -0.1800 
     72 C          -4.2425  -22.3481  -47.4289 C.2       12 UNK         0.5000 
     73 O          -4.7723  -22.9717  -48.3487 O.2       12 UNK        -0.5000 
     74 N          -4.2795  -22.7338  -46.1476 N.am      13 UNK        -0.5000 
     75 CA         -5.1231  -23.8173  -45.6512 C.3       13 UNK         0.1400 
     76 CB         -5.5411  -23.5209  -44.2008 C.3       13 UNK        -0.1800 
     77 C          -4.4502  -25.1920  -45.7666 C.2       13 UNK         0.5000 
     78 O          -4.9792  -26.0665  -46.4525 O.2       13 UNK        -0.5000 
     79 N          -3.3174  -25.3710  -45.0732 N.am      14 UNK        -0.5000 
     80 CA         -2.6584  -26.6693  -44.8929 C.3       14 UNK         0.1400 
     81 CB         -1.5780  -26.5582  -43.8055 C.3       14 UNK        -0.1800 
     82 C          -2.0710  -27.2413  -46.1942 C.2       14 UNK         0.5000 
     83 O          -2.2455  -28.4274  -46.4759 O.2       14 UNK        -0.5000 
     84 N          -1.4083  -26.3781  -46.9708 N.am      15 UNK        -0.5000 
     85 CA         -0.8273  -26.6986  -48.2737 C.3       15 UNK         0.1400 
     86 CB          0.3685  -25.7690  -48.5158 C.3       15 UNK        -0.1800 
     87 C          -1.8470  -26.6046  -49.4277 C.2       15 UNK         0.5000 
     88 O          -1.5114  -26.9943  -50.5463 O.2       15 UNK        -0.5000 
     89 N          -3.0621  -26.1155  -49.1326 N.am      16 UNK        -0.5000 
     90 CA         -4.2217  -25.9834  -50.0176 C.3       16 UNK         0.1400 
     91 CB         -4.7564  -27.3746  -50.4173 C.3       16 UNK        -0.1800 
     92 C          -3.9393  -25.0744  -51.2303 C.2       16 UNK         0.5000 
     93 O          -3.8451  -25.5589  -52.3598 O.2       16 UNK        -0.5000 
     94 N          -3.8209  -23.7681  -50.9544 N.am      17 UNK        -0.5000 
     95 CA         -3.5901  -22.6733  -51.9022 C.3       17 UNK         0.1400 
     96 CB         -4.8087  -22.4956  -52.8311 C.3       17 UNK        -0.1800 
     97 C          -2.2649  -22.8287  -52.6742 C.2       17 UNK         0.5000 
     98 O          -2.2657  -22.9855  -53.8965 O.2       17 UNK        -0.5000 
     99 N          -1.1510  -22.7926  -51.9317 N.am      18 UNK        -0.5000 
    100 CA         0.2109  -22.9501  -52.4532 C.3       18 UNK         0.1400 
    101 CB         1.1681  -23.1958  -51.2783 C.3       18 UNK        -0.1800 
    102 C          0.7151  -21.7782  -53.3227 C.2       18 UNK         0.5000 
    103 O          1.7284  -21.9370  -54.0063 O.2       18 UNK        -0.5000 
    104 N          0.0248  -20.6311  -53.2792 N.am      19 UNK        -0.5000 
    105 CA         0.2952  -19.4512  -54.1007 C.3       19 UNK         0.1400 
    106 CB        -0.2102  -18.2044  -53.3531 C.3       19 UNK        -0.1800 
    107 C         -0.2963  -19.5884  -55.5236 C.2       19 UNK         0.5000 
    108 O         -0.4477  -20.7001  -56.0364 O.2       19 UNK        -0.5000 
    109 N         -0.6082  -18.4519  -56.1601 N.am      20 UNK        -0.5000 
    110 CA        -1.1317  -18.3412  -57.5238 C.3       20 UNK         0.1400 
    111 CB        -0.8814  -16.9079  -58.0269 C.3       20 UNK        -0.1800 
    112 C         -2.6160  -18.7562  -57.6306 C.2       20 UNK         0.5000 
    113 O         -3.4694  -17.9289  -57.9563 O.2       20 UNK        -0.5000 
    114 N         -2.8961  -20.0304  -57.3275 N.am      21 UNK        -0.5000 
    115 CA        -4.1742  -20.7568  -57.3850 C.3       21 UNK         0.1400 
    116 CB        -4.7321  -20.7804  -58.8208 C.3       21 UNK        -0.1800 
    117 C         -5.2545  -20.2971  -56.3837 C.2       21 UNK         0.5000 
    118 O         -6.0389  -21.1324  -55.9332 O.2       21 UNK        -0.5000 
    119 N         -5.2782  -19.0019  -56.0490 N.am      22 UNK        -0.5000 
    120 CA        -6.1707  -18.3533  -55.0707 C.3       22 UNK         0.1400 
    121 C         -7.6704  -18.2853  -55.4966 C.2       22 UNK         0.5000 
    122 N         -8.0095  -18.4959  -56.7627 N.am      22 UNK        -0.7600 
    123 O         -8.5418  -18.0031  -54.6784 O.2       22 UNK        -0.5000 
    124 C124       -5.9844  -18.8956  -53.6246 C.3       23 UNK        -0.0398 
    125 S125       -4.2556  -18.7672  -53.0461 S.3       23 UNK        -0.2404 
    126 C126       -4.4105  -17.4203  -51.8372 C.3       23 UNK        -0.0205 
    127 H127       -5.1042  -15.9284  -47.2795 H         1 UNK         0.0600 
    128 H128       -4.1807  -16.8071  -48.4984 H         1 UNK         0.0600 
    129 H129       -5.1633  -15.4231  -48.9757 H         1 UNK         0.0600 
    130 H130       -4.3495  -13.3315  -48.6679 H         1 UNK         0.3000 
    131 H131       -3.0163  -11.6465  -48.5406 H         1 UNK         0.0600 
    132 H132       -0.7279  -13.6473  -48.8228 H         1 UNK         0.0800 
    133 H133       -0.4935  -11.9197  -48.8479 H         1 UNK         0.0800 
    134 H134        0.3459  -13.9102  -51.2494 H         1 UNK         0.0800 
    135 H135       -0.7182  -13.8973  -52.6324 H         1 UNK         0.0800 
    136 H136       -3.0344  -15.1215  -52.3752 H         1 UNK         0.1150 
    137 H137       -2.7911  -18.7482  -50.0975 H         1 UNK         0.1150 
    138 H138        0.3455  -15.8402  -49.8399 H         1 UNK         0.1150 
    139 H139        0.2233  -17.6285  -48.2289 H         1 UNK         0.0800 
    140 H140       -1.1849  -18.6567  -48.1716 H         1 UNK         0.0800 
    141 H141        1.0785  -19.7220  -47.2764 H         1 UNK         0.0800 
    142 H142        2.1123  -20.7461  -48.2001 H         1 UNK         0.0800 
    143 H143        0.7730  -22.5958  -48.0057 H         1 UNK         0.0600 
    144 H144        0.7715  -21.1006  -45.6221 H         1 UNK         0.3000 
    145 H145       -0.7200  -23.5746  -43.4763 H         1 UNK         0.0600 
    146 H146        1.4018  -23.1046  -42.2940 H         1 UNK         0.0600 
    147 H147        2.0787  -22.3601  -43.7406 H         1 UNK         0.0600 
    148 H148        1.7063  -24.0790  -43.7240 H         1 UNK         0.0600 
    149 H149        0.1668  -20.9534  -42.8870 H         1 UNK         0.3000 
    150 H150       -2.9529  -19.2731  -43.5102 H         1 UNK         0.0600 
    151 H151       -3.0544  -20.1863  -41.2042 H         1 UNK         0.0600 
    152 H152       -2.4422  -18.5383  -41.1847 H         1 UNK         0.0600 
    153 H153       -1.3352  -19.8942  -40.9819 H         1 UNK         0.0600 
    154 H154       -0.4739  -18.2005  -42.6956 H         1 UNK         0.3000 
    155 H155        0.9794  -17.7451  -45.9482 H         1 UNK         0.0600 
    156 H156        0.0216  -15.7992  -43.7903 H         1 UNK         0.0600 
    157 H157       -0.5679  -15.8344  -45.4438 H         1 UNK         0.0600 
    158 H158        1.1099  -15.4543  -45.1333 H         1 UNK         0.0600 
    159 H159        1.8413  -17.3458  -43.2011 H         1 UNK         0.3000 
    160 H160        3.4732  -20.4738  -42.8700 H         1 UNK         0.0600 
    161 H161        4.7881  -17.7509  -43.3138 H         1 UNK         0.0600 
    162 H162        5.1508  -19.2152  -44.2162 H         1 UNK         0.0600 
    163 H163        5.5050  -19.1349  -42.4968 H         1 UNK         0.0600 
    164 H164        3.3447  -18.0083  -41.3324 H         1 UNK         0.3000 
    165 H165        0.4232  -18.9324  -39.5124 H         1 UNK         0.0600 
    166 H166        1.9153  -18.7878  -37.5414 H         1 UNK         0.0600 
    167 H167        2.1833  -20.3049  -38.3843 H         1 UNK         0.0600 
    168 H168        3.3382  -18.9895  -38.5647 H         1 UNK         0.0600 
    169 H169        2.2474  -16.8131  -39.0965 H         1 UNK         0.3000 
    170 H170        0.2711  -14.4509  -40.5348 H         1 UNK         0.0600 
    171 H171        1.4950  -14.7965  -38.3827 H         1 UNK         0.0600 
    172 H172        3.0253  -14.9069  -39.2539 H         1 UNK         0.0600 
    173 H173        2.1071  -13.4084  -39.2599 H         1 UNK         0.0600 
    174 H174        1.4508  -13.6936  -42.2285 H         1 UNK         0.3000 
    175 H175        4.5447  -13.5941  -43.1445 H         1 UNK         0.0600 
    176 H176        3.3622  -15.8124  -44.8810 H         1 UNK         0.0600 
    177 H177        4.4444  -14.5617  -45.4874 H         1 UNK         0.0600 
    178 H178        4.9991  -15.6739  -44.2561 H         1 UNK         0.0600 
    179 H179        2.0415  -13.5467  -44.7329 H         1 UNK         0.3000 
    180 H180        1.2577  -10.2595  -43.7393 H         1 UNK         0.0600 
    181 H181        1.3075   -9.7450  -46.1600 H         1 UNK         0.0600 
    182 H182        2.3065  -11.1644  -46.4746 H         1 UNK         0.0600 
    183 H183        2.9473   -9.8203  -45.5358 H         1 UNK         0.0600 
    184 H184       -0.0641  -11.6968  -45.6702 H         1 UNK         0.3000 
    185 H185       -1.8016  -14.0833  -44.0027 H         1 UNK         0.0600 
    186 H186       -3.0635  -11.2959  -43.9671 H         1 UNK         0.0600 
    187 H187       -3.9441  -12.8237  -43.9857 H         1 UNK         0.0600 
    188 H188       -2.9447  -12.4004  -42.6058 H         1 UNK         0.0600 
    189 H189       -2.0763  -14.0655  -46.1863 H         1 UNK         0.3000 
    190 H190       -1.7832  -20.5331  -46.6232 H         1 UNK         0.3000 
    191 H191       -3.6017  -20.8456  -48.8101 H         1 UNK         0.0600 
    192 H192       -3.6784  -18.9025  -47.3011 H         1 UNK         0.0600 
    193 H193       -4.0530  -19.9280  -45.9226 H         1 UNK         0.0600 
    194 H194       -5.2119  -19.7593  -47.2382 H         1 UNK         0.0600 
    195 H195       -3.7466  -22.2172  -45.4509 H         1 UNK         0.3000 
    196 H196       -6.0389  -23.8511  -46.2459 H         1 UNK         0.0600 
    197 H197       -6.0921  -22.5825  -44.1363 H         1 UNK         0.0600 
    198 H198       -4.6834  -23.4481  -43.5317 H         1 UNK         0.0600 
    199 H199       -6.1918  -24.3064  -43.8145 H         1 UNK         0.0600 
    200 H200       -2.9173  -24.5818  -44.5868 H         1 UNK         0.3000 
    201 H201       -3.4146  -27.3730  -44.5380 H         1 UNK         0.0600 
    202 H202       -1.9899  -26.1697  -42.8741 H         1 UNK         0.0600 
    203 H203       -0.7592  -25.9074  -44.1108 H         1 UNK         0.0600 
    204 H204       -1.1483  -27.5366  -43.5870 H         1 UNK         0.0600 
    205 H205       -1.2663  -25.4265  -46.6321 H         1 UNK         0.3000 
    206 H206       -0.4539  -27.7245  -48.2522 H         1 UNK         0.0600 
    207 H207        0.0454  -24.7342  -48.6175 H         1 UNK         0.0600 
    208 H208        1.0836  -25.8184  -47.6945 H         1 UNK         0.0600 
    209 H209        0.8994  -26.0476  -49.4265 H         1 UNK         0.0600 
    210 H210       -3.2201  -25.8322  -48.1757 H         1 UNK         0.3000 
    211 H211       -5.0029  -25.4972  -49.4312 H         1 UNK         0.0600 
    212 H212       -4.0318  -27.9396  -51.0043 H         1 UNK         0.0600 
    213 H213       -5.6627  -27.2841  -51.0170 H         1 UNK         0.0600 
    214 H214       -5.0071  -27.9656  -49.5363 H         1 UNK         0.0600 
    215 H215       -3.9309  -23.4840  -49.9841 H         1 UNK         0.3000 
    216 H216       -3.4975  -21.7619  -51.3092 H         1 UNK         0.0600 
    217 H217       -4.6400  -21.6836  -53.5374 H         1 UNK         0.0600 
    218 H218       -5.7066  -22.2539  -52.2627 H         1 UNK         0.0600 
    219 H219       -5.0129  -23.3898  -53.4200 H         1 UNK         0.0600 
    220 H220       -1.2427  -22.6824  -50.9229 H         1 UNK         0.3000 
    221 H221        0.2220  -23.8401  -53.0857 H         1 UNK         0.0600 
    222 H222        1.1673  -22.3625  -50.5767 H         1 UNK         0.0600 
    223 H223        0.8883  -24.0955  -50.7359 H         1 UNK         0.0600 
    224 H224        2.1931  -23.3341  -51.6245 H         1 UNK         0.0600 
    225 H225       -0.7981  -20.5967  -52.6974 H         1 UNK         0.3000 
    226 H226        1.3759  -19.3487  -54.2165 H         1 UNK         0.0600 
    227 H227        0.1907  -18.1703  -52.3407 H         1 UNK         0.0600 
    228 H228        0.1027  -17.2813  -53.8415 H         1 UNK         0.0600 
    229 H229       -1.2974  -18.1932  -53.2812 H         1 UNK         0.0600 
    230 H230       -0.4891  -17.5813  -55.6632 H         1 UNK         0.3000 
    231 H231       -0.5647  -19.0175  -58.1671 H         1 UNK         0.0600 
    232 H232       -1.2274  -16.7874  -59.0544 H         1 UNK         0.0600 
    233 H233        0.1814  -16.6655  -58.0147 H         1 UNK         0.0600 
    234 H234       -1.4013  -16.1690  -57.4157 H         1 UNK         0.0600 
    235 H235       -2.1125  -20.5772  -56.9779 H         1 UNK         0.3000 
    236 H236       -3.9299  -21.7852  -57.1134 H         1 UNK         0.0600 
    237 H237       -5.0125  -19.7850  -59.1663 H         1 UNK         0.0600 
    238 H238       -4.0016  -21.1857  -59.5210 H         1 UNK         0.0600 
    239 H239       -5.6223  -21.4078  -58.8817 H         1 UNK         0.0600 
    240 H240       -4.6284  -18.3914  -56.5351 H         1 UNK         0.3000 
    241 H241       -5.8555  -17.3096  -55.0557 H         1 UNK         0.0600 
    242 H242       -8.9786  -18.4396  -57.0345 H         1 UNK         0.3800 
    243 H243       -7.3063  -18.7161  -57.4496 H         1 UNK         0.3800 
    244 H244       -6.2979  -19.9377  -53.5635 H         1 UNK         0.0800 
    245 H245       -6.6277  -18.3569  -52.9273 H         1 UNK         0.0800 
    246 H246       -5.0387  -17.7476  -51.0073 H         1 UNK         0.0800 
    247 H247       -4.9223  -16.5755  -52.3012 H         1 UNK         0.0800 
@<TRIPOS>BOND
     1    1    2 1    
     2    1  127 1    
     3    1  128 1    
     4    1  129 1    
     5    2    3 2    
     6    2    4 am   BACKBONE|DICT|INTERRES
     7    4    5 1    
     8    4  130 1    
     9    5    6 1    
    10    5   65 1    
    11    5  131 1    
    12    6    7 1    
    13    6  132 1    
    14    6  133 1    
    15    7    8 1    
    16    8    9 1    
    17    8  134 1    
    18    8  135 1    
    19    9   10 ar   
    20    9   14 ar   
    21   10   11 ar   
    22   10  136 1    
    23   11   12 ar   
    24   11  126 1    
    25   12   13 ar   
    26   12  137 1    
    27   13   14 ar   
    28   13   15 1    
    29   14  138 1    
    30   15   16 1    
    31   15  139 1    
    32   15  140 1    
    33   16   17 1    
    34   17   18 1    
    35   17  141 1    
    36   17  142 1    
    37   18   19 1    
    38   18   67 1    
    39   18  143 1    
    40   19   20 am   BACKBONE|DICT|INTERRES
    41   19  144 1    
    42   20   21 2    
    43   20   22 1    
    44   22   23 1    
    45   22   24 1    
    46   22  145 1    
    47   23  146 1    
    48   23  147 1    
    49   23  148 1    
    50   24   25 am   BACKBONE|DICT|INTERRES
    51   24  149 1    
    52   25   26 2    
    53   25   27 1    
    54   27   28 1    
    55   27   29 1    
    56   27  150 1    
    57   28  151 1    
    58   28  152 1    
    59   28  153 1    
    60   29   30 am   BACKBONE|DICT|INTERRES
    61   29  154 1    
    62   30   31 2    
    63   30   32 1    
    64   32   33 1    
    65   32   34 1    
    66   32  155 1    
    67   33  156 1    
    68   33  157 1    
    69   33  158 1    
    70   34   35 am   BACKBONE|DICT|INTERRES
    71   34  159 1    
    72   35   36 2    
    73   35   37 1    
    74   37   38 1    
    75   37   39 1    
    76   37  160 1    
    77   38  161 1    
    78   38  162 1    
    79   38  163 1    
    80   39   40 am   BACKBONE|DICT|INTERRES
    81   39  164 1    
    82   40   41 2    
    83   40   42 1    
    84   42   43 1    
    85   42   44 1    
    86   42  165 1    
    87   43  166 1    
    88   43  167 1    
    89   43  168 1    
    90   44   45 am   BACKBONE|DICT|INTERRES
    91   44  169 1    
    92   45   46 2    
    93   45   47 1    
    94   47   48 1    
    95   47   49 1    
    96   47  170 1    
    97   48  171 1    
    98   48  172 1    
    99   48  173 1    
   100   49   50 am   BACKBONE|DICT|INTERRES
   101   49  174 1    
   102   50   51 2    
   103   50   52 1    
   104   52   53 1    
   105   52   54 1    
   106   52  175 1    
   107   53  176 1    
   108   53  177 1    
   109   53  178 1    
   110   54   55 am   BACKBONE|DICT|INTERRES
   111   54  179 1    
   112   55   56 2    
   113   55   57 1    
   114   57   58 1    
   115   57   59 1    
   116   57  180 1    
   117   58  181 1    
   118   58  182 1    
   119   58  183 1    
   120   59   60 am   BACKBONE|DICT|INTERRES
   121   59  184 1    
   122   60   61 2    
   123   60   62 1    
   124   62   63 1    
   125   62   64 1    
   126   62  185 1    
   127   63  186 1    
   128   63  187 1    
   129   63  188 1    
   130   64   65 am   BACKBONE|DICT|INTERRES
   131   64  189 1    
   132   65   66 2    
   133   67   68 2    
   134   67   69 am   BACKBONE|DICT|INTERRES
   135   69   70 1    
   136   69  190 1    
   137   70   71 1    
   138   70   72 1    
   139   70  191 1    
   140   71  192 1    
   141   71  193 1    
   142   71  194 1    
   143   72   73 2    
   144   72   74 am   BACKBONE|DICT|INTERRES
   145   74   75 1    
   146   74  195 1    
   147   75   76 1    
   148   75   77 1    
   149   75  196 1    
   150   76  197 1    
   151   76  198 1    
   152   76  199 1    
   153   77   78 2    
   154   77   79 am   BACKBONE|DICT|INTERRES
   155   79   80 1    
   156   79  200 1    
   157   80   81 1    
   158   80   82 1    
   159   80  201 1    
   160   81  202 1    
   161   81  203 1    
   162   81  204 1    
   163   82   83 2    
   164   82   84 am   BACKBONE|DICT|INTERRES
   165   84   85 1    
   166   84  205 1    
   167   85   86 1    
   168   85   87 1    
   169   85  206 1    
   170   86  207 1    
   171   86  208 1    
   172   86  209 1    
   173   87   88 2    
   174   87   89 am   BACKBONE|DICT|INTERRES
   175   89   90 1    
   176   89  210 1    
   177   90   91 1    
   178   90   92 1    
   179   90  211 1    
   180   91  212 1    
   181   91  213 1    
   182   91  214 1    
   183   92   93 2    
   184   92   94 am   BACKBONE|DICT|INTERRES
   185   94   95 1    
   186   94  215 1    
   187   95   96 1    
   188   95   97 1    
   189   95  216 1    
   190   96  217 1    
   191   96  218 1    
   192   96  219 1    
   193   97   98 2    
   194   97   99 am   BACKBONE|DICT|INTERRES
   195   99  100 1    
   196   99  220 1    
   197  100  101 1    
   198  100  102 1    
   199  100  221 1    
   200  101  222 1    
   201  101  223 1    
   202  101  224 1    
   203  102  103 2    
   204  102  104 am   BACKBONE|DICT|INTERRES
   205  104  105 1    
   206  104  225 1    
   207  105  106 1    
   208  105  107 1    
   209  105  226 1    
   210  106  227 1    
   211  106  228 1    
   212  106  229 1    
   213  107  108 2    
   214  107  109 am   BACKBONE|DICT|INTERRES
   215  109  110 1    
   216  109  230 1    
   217  110  111 1    
   218  110  112 1    
   219  110  231 1    
   220  111  232 1    
   221  111  233 1    
   222  111  234 1    
   223  112  113 2    
   224  112  114 am   BACKBONE|DICT|INTERRES
   225  114  115 1    
   226  114  235 1    
   227  115  116 1    
   228  115  117 1    
   229  115  236 1    
   230  116  237 1    
   231  116  238 1    
   232  116  239 1    
   233  117  118 2    
   234  117  119 am   BACKBONE|DICT|INTERRES
   235  119  120 1    
   236  119  240 1    
   237  120  121 1    
   238  120  124 1    
   239  120  241 1    
   240  121  122 am   BACKBONE|DICT|INTERRES
   241  121  123 2    
   242  122  242 1    
   243  122  243 1    
   244  124  125 1    
   245  124  244 1    
   246  124  245 1    
   247  125  126 1    
   248  126  246 1    
   249  126  247 1    
@<TRIPOS>SUBSTRUCTURE
     1 UNK         1 GROUP             0       ****    0 ROOT    
