@<TRIPOS>MOLECULE
3R540
247   249    1
SMALL
USER_CHARGES


@<TRIPOS>ATOM
      1 CA         -4.4314  -15.1816  -44.4565 C.3       0 UNK        -0.1800 
      2 C          -3.9190  -13.9761  -45.2321 C.2       0 UNK         0.5000 
      3 O          -4.4951  -12.8938  -45.1278 O.2       0 UNK        -0.5000 
      4 N          -2.8421  -14.1584  -46.0090 N.am      1 UNK        -0.5000 
      5 CA         -2.2228  -13.1066  -46.8319 C.3       1 UNK         0.1400 
      6 C6         -1.3441  -13.6962  -47.9645 C.3       23 UNK        -0.0398 
      7 S7         -2.3522  -14.5262  -49.2391 S.3       23 UNK        -0.2404 
      8 C8         -2.2259  -16.2749  -48.7548 C.3       23 UNK        -0.0205 
      9 C9         -3.5455  -16.9908  -48.9904 C.ar      23 UNK        -0.0193 
     10 C10        -3.7484  -17.7647  -50.1366 C.ar      23 UNK        -0.1150 
     11 C11        -4.9652  -18.4225  -50.3538 C.ar      23 UNK        -0.0193 
     12 C12        -5.9791  -18.2989  -49.3947 C.ar      23 UNK        -0.1150 
     13 C13        -5.7835  -17.5391  -48.2392 C.ar      23 UNK        -0.0193 
     14 C14        -4.5686  -16.8803  -48.0481 C.ar      23 UNK        -0.1150 
     15 C15        -6.8663  -17.4727  -47.1740 C.3       23 UNK        -0.0205 
     16 S16        -7.0019  -19.0437  -46.2596 S.3       23 UNK        -0.2404 
     17 C17        -5.3235  -19.2251  -45.5627 C.3       23 UNK        -0.0398 
     18 CA         -4.3937  -20.1009  -46.4430 C.3       11 UNK         0.1400 
     19 N          -2.9774  -19.8276  -46.1824 N.am      11 UNK        -0.5000 
     20 C          -1.9714  -20.2424  -46.9651 C.2       10 UNK         0.5000 
     21 O          -2.1323  -20.8287  -48.0328 O.2       10 UNK        -0.5000 
     22 CA         -0.5419  -20.0177  -46.4475 C.3       10 UNK         0.1400 
     23 CB          0.0379  -18.6992  -46.9748 C.3       10 UNK        -0.1800 
     24 N          -0.4661  -20.0592  -44.9859 N.am      10 UNK        -0.5000 
     25 C          -0.5682  -21.1914  -44.2723 C.2       9 UNK         0.5000 
     26 O          -0.7005  -22.3039  -44.7797 O.2       9 UNK        -0.5000 
     27 CA         -0.5835  -21.0592  -42.7378 C.3       9 UNK         0.1400 
     28 CB          0.8497  -20.9896  -42.1902 C.3       9 UNK        -0.1800 
     29 N          -1.3345  -19.8936  -42.2723 N.am      9 UNK        -0.5000 
     30 C          -2.6368  -19.6723  -42.5022 C.2       8 UNK         0.5000 
     31 O          -3.3723  -20.4730  -43.0788 O.2       8 UNK        -0.5000 
     32 CA         -3.1957  -18.2994  -42.0771 C.3       8 UNK         0.1400 
     33 CB         -3.8686  -18.3943  -40.7007 C.3       8 UNK        -0.1800 
     34 N          -2.1848  -17.2353  -42.0496 N.am      8 UNK        -0.5000 
     35 C          -1.4758  -16.8214  -43.1091 C.2       7 UNK         0.5000 
     36 O          -1.6248  -17.2893  -44.2404 O.2       7 UNK        -0.5000 
     37 CA         -0.4090  -15.7349  -42.8783 C.3       7 UNK         0.1400 
     38 CB         -0.1560  -15.3951  -41.3969 C.3       7 UNK        -0.1800 
     39 N           0.8443  -16.1765  -43.4775 N.am      7 UNK        -0.5000 
     40 C           1.3088  -15.8291  -44.6814 C.2       6 UNK         0.5000 
     41 O           0.7991  -14.9607  -45.3933 O.2       6 UNK        -0.5000 
     42 CA          2.5756  -16.5817  -45.1318 C.3       6 UNK         0.1400 
     43 CB          2.9542  -16.3274  -46.6004 C.3       6 UNK        -0.1800 
     44 N           3.7109  -16.2600  -44.2680 N.am      6 UNK        -0.5000 
     45 C           3.9474  -16.8282  -43.0762 C.2       5 UNK         0.5000 
     46 O           3.2363  -17.7147  -42.5993 O.2       5 UNK        -0.5000 
     47 CA          5.1541  -16.3130  -42.2671 C.3       5 UNK         0.1400 
     48 CB          6.3856  -17.1954  -42.5199 C.3       5 UNK        -0.1800 
     49 N           5.4973  -14.9202  -42.5575 N.am      5 UNK        -0.5000 
     50 C           4.7399  -13.8624  -42.2387 C.2       4 UNK         0.5000 
     51 O           3.6785  -13.9436  -41.6184 O.2       4 UNK        -0.5000 
     52 CA          5.2234  -12.4773  -42.7138 C.3       4 UNK         0.1400 
     53 CB          6.7107  -12.4289  -43.1328 C.3       4 UNK        -0.1800 
     54 N           4.3620  -11.9688  -43.7838 N.am      4 UNK        -0.5000 
     55 C           4.1260  -12.5386  -44.9741 C.2       3 UNK         0.5000 
     56 O           4.6658  -13.5770  -45.3610 O.2       3 UNK        -0.5000 
     57 CA          3.0551  -11.8478  -45.8357 C.3       3 UNK         0.1400 
     58 CB          3.0384  -12.3202  -47.2997 C.3       3 UNK        -0.1800 
     59 N           1.7383  -12.0793  -45.2508 N.am      3 UNK        -0.5000 
     60 C           1.1799  -11.3318  -44.2911 C.2       2 UNK         0.5000 
     61 O           1.7329  -10.3474  -43.7963 O.2       2 UNK        -0.5000 
     62 CA         -0.2110  -11.7739  -43.7892 C.3       2 UNK         0.1400 
     63 CB         -1.0393  -10.6069  -43.2138 C.3       2 UNK        -0.1800 
     64 N          -0.9859  -12.5192  -44.7890 N.am      2 UNK        -0.5000 
     65 C          -1.4239  -12.0923  -45.9834 C.2       1 UNK         0.5000 
     66 O          -1.2298  -10.9588  -46.4241 O.2       1 UNK        -0.5000 
     67 C          -4.7123  -21.6048  -46.3129 C.2       11 UNK         0.5000 
     68 O          -5.4060  -22.1589  -47.1662 O.2       11 UNK        -0.5000 
     69 N          -4.1676  -22.2409  -45.2661 N.am      12 UNK        -0.5000 
     70 CA         -4.2799  -23.6769  -45.0171 C.3       12 UNK         0.1400 
     71 CB         -3.7708  -23.9866  -43.6007 C.3       12 UNK        -0.1800 
     72 C          -3.5360  -24.5237  -46.0673 C.2       12 UNK         0.5000 
     73 O          -4.0806  -25.5246  -46.5345 O.2       12 UNK        -0.5000 
     74 N          -2.3100  -24.1100  -46.4155 N.am      13 UNK        -0.5000 
     75 CA         -1.4584  -24.7749  -47.4013 C.3       13 UNK         0.1400 
     76 CB         -0.0245  -24.2505  -47.2556 C.3       13 UNK        -0.1800 
     77 C          -1.9560  -24.6052  -48.8479 C.2       13 UNK         0.5000 
     78 O          -1.9132  -25.5691  -49.6142 O.2       13 UNK        -0.5000 
     79 N          -2.4137  -23.3928  -49.1956 N.am      14 UNK        -0.5000 
     80 CA         -2.9392  -22.9849  -50.5000 C.3       14 UNK         0.1400 
     81 CB         -4.3278  -23.6232  -50.7275 C.3       14 UNK        -0.1800 
     82 C          -1.9203  -23.2526  -51.6274 C.2       14 UNK         0.5000 
     83 O          -0.8749  -22.5994  -51.6711 O.2       14 UNK        -0.5000 
     84 N          -2.2016  -24.2455  -52.4807 N.am      15 UNK        -0.5000 
     85 CA         -1.3261  -24.6977  -53.5614 C.3       15 UNK         0.1400 
     86 CB         -2.0604  -25.7607  -54.3910 C.3       15 UNK        -0.1800 
     87 C           0.0397  -25.2254  -53.0765 C.2       15 UNK         0.5000 
     88 O           1.0239  -25.0938  -53.8040 O.2       15 UNK        -0.5000 
     89 N           0.1031  -25.7594  -51.8463 N.am      16 UNK        -0.5000 
     90 CA          1.3457  -26.2160  -51.2148 C.3       16 UNK         0.1400 
     91 CB          1.0187  -27.1503  -50.0400 C.3       16 UNK        -0.1800 
     92 C           2.2664  -25.0598  -50.7695 C.2       16 UNK         0.5000 
     93 O           3.4635  -25.2850  -50.5916 O.2       16 UNK        -0.5000 
     94 N           1.7141  -23.8443  -50.6353 N.am      17 UNK        -0.5000 
     95 CA          2.4622  -22.6021  -50.4157 C.3       17 UNK         0.1400 
     96 CB          1.6871  -21.7096  -49.4289 C.3       17 UNK        -0.1800 
     97 C           2.7557  -21.8618  -51.7382 C.2       17 UNK         0.5000 
     98 O           3.2501  -20.7346  -51.6996 O.2       17 UNK        -0.5000 
     99 N           2.4405  -22.4958  -52.8794 N.am      18 UNK        -0.5000 
    100 CA         2.5553  -21.9881  -54.2505 C.3       18 UNK         0.1400 
    101 CB         4.0233  -21.6823  -54.6163 C.3       18 UNK        -0.1800 
    102 C          1.5985  -20.8165  -54.5584 C.2       18 UNK         0.5000 
    103 O          1.8443  -20.0596  -55.5000 O.2       18 UNK        -0.5000 
    104 N          0.5113  -20.7012  -53.7839 N.am      19 UNK        -0.5000 
    105 CA        -0.5968  -19.7848  -54.0379 C.3       19 UNK         0.1400 
    106 CB        -1.1851  -19.3345  -52.6873 C.3       19 UNK        -0.1800 
    107 C         -1.6538  -20.4656  -54.9313 C.2       19 UNK         0.5000 
    108 O         -1.4105  -21.5432  -55.4826 O.2       19 UNK        -0.5000 
    109 N         -2.8235  -19.8279  -55.0578 N.am      20 UNK        -0.5000 
    110 CA        -4.0113  -20.4095  -55.6835 C.3       20 UNK         0.1400 
    111 CB        -5.0781  -19.3138  -55.8318 C.3       20 UNK        -0.1800 
    112 C         -4.5610  -21.5964  -54.8671 C.2       20 UNK         0.5000 
    113 O         -4.3128  -21.6885  -53.6620 O.2       20 UNK        -0.5000 
    114 N         -5.3264  -22.4716  -55.5287 N.am      21 UNK        -0.5000 
    115 CA        -5.9655  -23.6494  -54.9382 C.3       21 UNK         0.1400 
    116 CB        -6.2768  -24.6568  -56.0594 C.3       21 UNK        -0.1800 
    117 C         -7.2114  -23.2760  -54.1045 C.2       21 UNK         0.5000 
    118 O         -8.3292  -23.6713  -54.4404 O.2       21 UNK        -0.5000 
    119 N         -6.9902  -22.4987  -53.0392 N.am      22 UNK        -0.5000 
    120 CA        -8.0130  -22.0040  -52.1025 C.3       22 UNK         0.1400 
    121 C         -8.6580  -23.0903  -51.1898 C.2       22 UNK         0.5000 
    122 N         -8.1242  -24.3032  -51.1093 N.am      22 UNK        -0.7600 
    123 O         -9.6697  -22.8268  -50.5456 O.2       22 UNK        -0.5000 
    124 C124       -7.4876  -20.8250  -51.2425 C.3       23 UNK        -0.0398 
    125 S125       -6.8386  -19.4342  -52.2371 S.3       23 UNK        -0.2404 
    126 C126       -5.1273  -19.2818  -51.6095 C.3       23 UNK        -0.0205 
    127 H127       -3.9521  -16.1036  -44.7817 H         1 UNK         0.0600 
    128 H128       -5.5059  -15.2932  -44.6003 H         1 UNK         0.0600 
    129 H129       -4.2410  -15.0530  -43.3911 H         1 UNK         0.0600 
    130 H130       -2.4012  -15.0659  -46.0472 H         1 UNK         0.3000 
    131 H131       -3.0265  -12.5354  -47.3027 H         1 UNK         0.0600 
    132 H132       -0.7907  -12.9033  -48.4715 H         1 UNK         0.0800 
    133 H133       -0.5915  -14.3809  -47.5713 H         1 UNK         0.0800 
    134 H134       -1.4210  -16.7487  -49.3186 H         1 UNK         0.0800 
    135 H135       -1.9568  -16.3618  -47.7021 H         1 UNK         0.0800 
    136 H136       -2.9522  -17.8546  -50.8601 H         1 UNK         0.1150 
    137 H137       -6.9204  -18.8104  -49.5191 H         1 UNK         0.1150 
    138 H138       -4.4126  -16.2897  -47.1590 H         1 UNK         0.1150 
    139 H139       -6.6745  -16.6597  -46.4723 H         1 UNK         0.0800 
    140 H140       -7.8248  -17.2511  -47.6454 H         1 UNK         0.0800 
    141 H141       -5.4107  -19.6313  -44.5540 H         1 UNK         0.0800 
    142 H142       -4.8977  -18.2296  -45.4396 H         1 UNK         0.0800 
    143 H143       -4.5626  -19.8411  -47.4885 H         1 UNK         0.0600 
    144 H144       -2.7504  -19.3607  -45.3163 H         1 UNK         0.3000 
    145 H145        0.0750  -20.8252  -46.8462 H         1 UNK         0.0600 
    146 H146        1.1060  -18.6453  -46.7733 H         1 UNK         0.0600 
    147 H147       -0.4403  -17.8306  -46.5239 H         1 UNK         0.0600 
    148 H148       -0.0860  -18.6215  -48.0559 H         1 UNK         0.0600 
    149 H149       -0.4456  -19.1696  -44.5053 H         1 UNK         0.3000 
    150 H150       -1.0651  -21.9514  -42.3323 H         1 UNK         0.0600 
    151 H151        1.4311  -21.8563  -42.5078 H         1 UNK         0.0600 
    152 H152        0.8556  -20.9782  -41.1002 H         1 UNK         0.0600 
    153 H153        1.3733  -20.0979  -42.5382 H         1 UNK         0.0600 
    154 H154       -0.8113  -19.1849  -41.7809 H         1 UNK         0.3000 
    155 H155       -3.9549  -18.0174  -42.8095 H         1 UNK         0.0600 
    156 H156       -4.6435  -19.1622  -40.6968 H         1 UNK         0.0600 
    157 H157       -4.3458  -17.4525  -40.4291 H         1 UNK         0.0600 
    158 H158       -3.1518  -18.6469  -39.9183 H         1 UNK         0.0600 
    159 H159       -2.0079  -16.8083  -41.1516 H         1 UNK         0.3000 
    160 H160       -0.7688  -14.8348  -43.3736 H         1 UNK         0.0600 
    161 H161        0.1700  -16.2664  -40.8272 H         1 UNK         0.0600 
    162 H162       -1.0502  -14.9913  -40.9205 H         1 UNK         0.0600 
    163 H163        0.6218  -14.6362  -41.3034 H         1 UNK         0.0600 
    164 H164        1.3734  -16.8711  -42.9618 H         1 UNK         0.3000 
    165 H165        2.3543  -17.6470  -45.0421 H         1 UNK         0.0600 
    166 H166        3.7150  -17.0336  -46.9325 H         1 UNK         0.0600 
    167 H167        2.0944  -16.4417  -47.2616 H         1 UNK         0.0600 
    168 H168        3.3515  -15.3271  -46.7485 H         1 UNK         0.0600 
    169 H169        4.2918  -15.4834  -44.5664 H         1 UNK         0.3000 
    170 H170        4.8939  -16.3846  -41.2089 H         1 UNK         0.0600 
    171 H171        6.7065  -17.1499  -43.5615 H         1 UNK         0.0600 
    172 H172        7.2253  -16.8901  -41.8952 H         1 UNK         0.0600 
    173 H173        6.1721  -18.2397  -42.2875 H         1 UNK         0.0600 
    174 H174        6.3386  -14.7626  -43.0932 H         1 UNK         0.3000 
    175 H175        5.0992  -11.8023  -41.8657 H         1 UNK         0.0600 
    176 H176        6.9211  -13.0431  -44.0086 H         1 UNK         0.0600 
    177 H177        7.0112  -11.4085  -43.3708 H         1 UNK         0.0600 
    178 H178        7.3568  -12.7711  -42.3234 H         1 UNK         0.0600 
    179 H179        3.7996  -11.1612  -43.5427 H         1 UNK         0.3000 
    180 H180        3.2790  -10.7789  -45.8423 H         1 UNK         0.0600 
    181 H181        2.4039  -11.6737  -47.9060 H         1 UNK         0.0600 
    182 H182        2.6544  -13.3340  -47.3976 H         1 UNK         0.0600 
    183 H183        4.0378  -12.2956  -47.7359 H         1 UNK         0.0600 
    184 H184        1.2627  -12.9296  -45.5333 H         1 UNK         0.3000 
    185 H185       -0.0199  -12.4707  -42.9723 H         1 UNK         0.0600 
    186 H186       -2.0120  -10.9503  -42.8617 H         1 UNK         0.0600 
    187 H187       -0.5323  -10.1472  -42.3647 H         1 UNK         0.0600 
    188 H188       -1.2077   -9.8254  -43.9552 H         1 UNK         0.0600 
    189 H189       -1.1670  -13.4862  -44.5682 H         1 UNK         0.3000 
    190 H190       -3.6584  -21.6959  -44.5768 H         1 UNK         0.3000 
    191 H191       -5.3378  -23.9436  -45.0623 H         1 UNK         0.0600 
    192 H192       -4.3393  -23.4381  -42.8493 H         1 UNK         0.0600 
    193 H193       -2.7198  -23.7216  -43.4819 H         1 UNK         0.0600 
    194 H194       -3.8698  -25.0488  -43.3739 H         1 UNK         0.0600 
    195 H195       -1.9040  -23.3158  -45.9295 H         1 UNK         0.3000 
    196 H196       -1.4495  -25.8445  -47.1808 H         1 UNK         0.0600 
    197 H197        0.3917  -24.5096  -46.2820 H         1 UNK         0.0600 
    198 H198        0.0012  -23.1665  -47.3489 H         1 UNK         0.0600 
    199 H199        0.6383  -24.6647  -48.0144 H         1 UNK         0.0600 
    200 H200       -2.3477  -22.6337  -48.5227 H         1 UNK         0.3000 
    201 H201       -3.0718  -21.9029  -50.4616 H         1 UNK         0.0600 
    202 H202       -5.0355  -23.2841  -49.9703 H         1 UNK         0.0600 
    203 H203       -4.2983  -24.7121  -50.6823 H         1 UNK         0.0600 
    204 H204       -4.7368  -23.3430  -51.6955 H         1 UNK         0.0600 
    205 H205       -3.0576  -24.7616  -52.3454 H         1 UNK         0.3000 
    206 H206       -1.1290  -23.8396  -54.2057 H         1 UNK         0.0600 
    207 H207       -2.3219  -26.6316  -53.7886 H         1 UNK         0.0600 
    208 H208       -2.9781  -25.3594  -54.8216 H         1 UNK         0.0600 
    209 H209       -1.4400  -26.1072  -55.2186 H         1 UNK         0.0600 
    210 H210       -0.7374  -25.7987  -51.2773 H         1 UNK         0.3000 
    211 H211        1.9017  -26.7998  -51.9516 H         1 UNK         0.0600 
    212 H212        0.4772  -26.6372  -49.2475 H         1 UNK         0.0600 
    213 H213        1.9304  -27.5567  -49.6005 H         1 UNK         0.0600 
    214 H214        0.4118  -27.9951  -50.3660 H         1 UNK         0.0600 
    215 H215        0.7281  -23.7281  -50.8396 H         1 UNK         0.3000 
    216 H216        3.4317  -22.8234  -49.9652 H         1 UNK         0.0600 
    217 H217        2.1528  -20.7293  -49.3212 H         1 UNK         0.0600 
    218 H218        1.6777  -22.1567  -48.4372 H         1 UNK         0.0600 
    219 H219        0.6552  -21.5488  -49.7422 H         1 UNK         0.0600 
    220 H220        2.0392  -23.4223  -52.8086 H         1 UNK         0.3000 
    221 H221        2.2284  -22.8060  -54.8938 H         1 UNK         0.0600 
    222 H222        4.4026  -20.8095  -54.0846 H         1 UNK         0.0600 
    223 H223        4.6721  -22.5268  -54.3837 H         1 UNK         0.0600 
    224 H224        4.1259  -21.4814  -55.6832 H         1 UNK         0.0600 
    225 H225        0.3510  -21.3925  -53.0612 H         1 UNK         0.3000 
    226 H226       -0.2315  -18.8998  -54.5627 H         1 UNK         0.0600 
    227 H227       -0.4028  -19.0058  -52.0027 H         1 UNK         0.0600 
    228 H228       -1.8650  -18.4935  -52.8215 H         1 UNK         0.0600 
    229 H229       -1.7427  -20.1335  -52.1978 H         1 UNK         0.0600 
    230 H230       -2.9581  -18.9557  -54.5699 H         1 UNK         0.3000 
    231 H231       -3.7363  -20.7702  -56.6769 H         1 UNK         0.0600 
    232 H232       -5.9804  -19.7029  -56.3051 H         1 UNK         0.0600 
    233 H233       -4.7166  -18.4931  -56.4516 H         1 UNK         0.0600 
    234 H234       -5.3687  -18.9005  -54.8657 H         1 UNK         0.0600 
    235 H235       -5.5178  -22.3088  -56.5067 H         1 UNK         0.3000 
    236 H236       -5.2561  -24.1267  -54.2587 H         1 UNK         0.0600 
    237 H237       -5.3685  -24.9550  -56.5836 H         1 UNK         0.0600 
    238 H238       -6.7287  -25.5639  -55.6562 H         1 UNK         0.0600 
    239 H239       -6.9681  -24.2426  -56.7944 H         1 UNK         0.0600 
    240 H240       -6.0451  -22.1555  -52.8999 H         1 UNK         0.3000 
    241 H241       -8.8301  -21.6158  -52.7135 H         1 UNK         0.0600 
    242 H242       -7.3022  -24.5393  -51.6390 H         1 UNK         0.3800 
    243 H243       -8.5567  -24.9953  -50.5181 H         1 UNK         0.3800 
    244 H244       -6.7190  -21.1763  -50.5516 H         1 UNK         0.0800 
    245 H245       -8.2921  -20.4287  -50.6204 H         1 UNK         0.0800 
    246 H246       -4.7131  -20.2716  -51.4172 H         1 UNK         0.0800 
    247 H247       -4.5264  -18.8563  -52.4139 H         1 UNK         0.0800 
@<TRIPOS>BOND
     1    1    2 1    
     2    1  127 1    
     3    1  128 1    
     4    1  129 1    
     5    2    3 2    
     6    2    4 am   BACKBONE|DICT|INTERRES
     7    4    5 1    
     8    4  130 1    
     9    5    6 1    
    10    5   65 1    
    11    5  131 1    
    12    6    7 1    
    13    6  132 1    
    14    6  133 1    
    15    7    8 1    
    16    8    9 1    
    17    8  134 1    
    18    8  135 1    
    19    9   10 ar   
    20    9   14 ar   
    21   10   11 ar   
    22   10  136 1    
    23   11   12 ar   
    24   11  126 1    
    25   12   13 ar   
    26   12  137 1    
    27   13   14 ar   
    28   13   15 1    
    29   14  138 1    
    30   15   16 1    
    31   15  139 1    
    32   15  140 1    
    33   16   17 1    
    34   17   18 1    
    35   17  141 1    
    36   17  142 1    
    37   18   19 1    
    38   18   67 1    
    39   18  143 1    
    40   19   20 am   BACKBONE|DICT|INTERRES
    41   19  144 1    
    42   20   21 2    
    43   20   22 1    
    44   22   23 1    
    45   22   24 1    
    46   22  145 1    
    47   23  146 1    
    48   23  147 1    
    49   23  148 1    
    50   24   25 am   BACKBONE|DICT|INTERRES
    51   24  149 1    
    52   25   26 2    
    53   25   27 1    
    54   27   28 1    
    55   27   29 1    
    56   27  150 1    
    57   28  151 1    
    58   28  152 1    
    59   28  153 1    
    60   29   30 am   BACKBONE|DICT|INTERRES
    61   29  154 1    
    62   30   31 2    
    63   30   32 1    
    64   32   33 1    
    65   32   34 1    
    66   32  155 1    
    67   33  156 1    
    68   33  157 1    
    69   33  158 1    
    70   34   35 am   BACKBONE|DICT|INTERRES
    71   34  159 1    
    72   35   36 2    
    73   35   37 1    
    74   37   38 1    
    75   37   39 1    
    76   37  160 1    
    77   38  161 1    
    78   38  162 1    
    79   38  163 1    
    80   39   40 am   BACKBONE|DICT|INTERRES
    81   39  164 1    
    82   40   41 2    
    83   40   42 1    
    84   42   43 1    
    85   42   44 1    
    86   42  165 1    
    87   43  166 1    
    88   43  167 1    
    89   43  168 1    
    90   44   45 am   BACKBONE|DICT|INTERRES
    91   44  169 1    
    92   45   46 2    
    93   45   47 1    
    94   47   48 1    
    95   47   49 1    
    96   47  170 1    
    97   48  171 1    
    98   48  172 1    
    99   48  173 1    
   100   49   50 am   BACKBONE|DICT|INTERRES
   101   49  174 1    
   102   50   51 2    
   103   50   52 1    
   104   52   53 1    
   105   52   54 1    
   106   52  175 1    
   107   53  176 1    
   108   53  177 1    
   109   53  178 1    
   110   54   55 am   BACKBONE|DICT|INTERRES
   111   54  179 1    
   112   55   56 2    
   113   55   57 1    
   114   57   58 1    
   115   57   59 1    
   116   57  180 1    
   117   58  181 1    
   118   58  182 1    
   119   58  183 1    
   120   59   60 am   BACKBONE|DICT|INTERRES
   121   59  184 1    
   122   60   61 2    
   123   60   62 1    
   124   62   63 1    
   125   62   64 1    
   126   62  185 1    
   127   63  186 1    
   128   63  187 1    
   129   63  188 1    
   130   64   65 am   BACKBONE|DICT|INTERRES
   131   64  189 1    
   132   65   66 2    
   133   67   68 2    
   134   67   69 am   BACKBONE|DICT|INTERRES
   135   69   70 1    
   136   69  190 1    
   137   70   71 1    
   138   70   72 1    
   139   70  191 1    
   140   71  192 1    
   141   71  193 1    
   142   71  194 1    
   143   72   73 2    
   144   72   74 am   BACKBONE|DICT|INTERRES
   145   74   75 1    
   146   74  195 1    
   147   75   76 1    
   148   75   77 1    
   149   75  196 1    
   150   76  197 1    
   151   76  198 1    
   152   76  199 1    
   153   77   78 2    
   154   77   79 am   BACKBONE|DICT|INTERRES
   155   79   80 1    
   156   79  200 1    
   157   80   81 1    
   158   80   82 1    
   159   80  201 1    
   160   81  202 1    
   161   81  203 1    
   162   81  204 1    
   163   82   83 2    
   164   82   84 am   BACKBONE|DICT|INTERRES
   165   84   85 1    
   166   84  205 1    
   167   85   86 1    
   168   85   87 1    
   169   85  206 1    
   170   86  207 1    
   171   86  208 1    
   172   86  209 1    
   173   87   88 2    
   174   87   89 am   BACKBONE|DICT|INTERRES
   175   89   90 1    
   176   89  210 1    
   177   90   91 1    
   178   90   92 1    
   179   90  211 1    
   180   91  212 1    
   181   91  213 1    
   182   91  214 1    
   183   92   93 2    
   184   92   94 am   BACKBONE|DICT|INTERRES
   185   94   95 1    
   186   94  215 1    
   187   95   96 1    
   188   95   97 1    
   189   95  216 1    
   190   96  217 1    
   191   96  218 1    
   192   96  219 1    
   193   97   98 2    
   194   97   99 am   BACKBONE|DICT|INTERRES
   195   99  100 1    
   196   99  220 1    
   197  100  101 1    
   198  100  102 1    
   199  100  221 1    
   200  101  222 1    
   201  101  223 1    
   202  101  224 1    
   203  102  103 2    
   204  102  104 am   BACKBONE|DICT|INTERRES
   205  104  105 1    
   206  104  225 1    
   207  105  106 1    
   208  105  107 1    
   209  105  226 1    
   210  106  227 1    
   211  106  228 1    
   212  106  229 1    
   213  107  108 2    
   214  107  109 am   BACKBONE|DICT|INTERRES
   215  109  110 1    
   216  109  230 1    
   217  110  111 1    
   218  110  112 1    
   219  110  231 1    
   220  111  232 1    
   221  111  233 1    
   222  111  234 1    
   223  112  113 2    
   224  112  114 am   BACKBONE|DICT|INTERRES
   225  114  115 1    
   226  114  235 1    
   227  115  116 1    
   228  115  117 1    
   229  115  236 1    
   230  116  237 1    
   231  116  238 1    
   232  116  239 1    
   233  117  118 2    
   234  117  119 am   BACKBONE|DICT|INTERRES
   235  119  120 1    
   236  119  240 1    
   237  120  121 1    
   238  120  124 1    
   239  120  241 1    
   240  121  122 am   BACKBONE|DICT|INTERRES
   241  121  123 2    
   242  122  242 1    
   243  122  243 1    
   244  124  125 1    
   245  124  244 1    
   246  124  245 1    
   247  125  126 1    
   248  126  246 1    
   249  126  247 1    
@<TRIPOS>SUBSTRUCTURE
     1 UNK         1 GROUP             0       ****    0 ROOT    
