@<TRIPOS>MOLECULE
3R540
247   249    1
SMALL
USER_CHARGES


@<TRIPOS>ATOM
      1 CA          4.7040   -8.7493  -47.8026 C.3       0 UNK        -0.1800 
      2 C           3.8459   -9.6884  -46.9690 C.2       0 UNK         0.5000 
      3 O           4.0279   -9.7710  -45.7551 O.2       0 UNK        -0.5000 
      4 N           2.8940  -10.3822  -47.6052 N.am      1 UNK        -0.5000 
      5 CA          2.0093  -11.3890  -46.9954 C.3       1 UNK         0.1400 
      6 C6          1.2651  -12.2221  -48.0643 C.3       23 UNK        -0.0398 
      7 S7          2.4380  -13.1448  -49.1170 S.3       23 UNK        -0.2404 
      8 C8          2.4189  -14.7831  -48.3198 C.3       23 UNK        -0.0205 
      9 C9          1.5540  -15.7862  -49.0728 C.ar      23 UNK        -0.0193 
     10 C10         0.1975  -15.5332  -49.3114 C.ar      23 UNK        -0.1150 
     11 C11        -0.5941  -16.4718  -49.9788 C.ar      23 UNK        -0.0193 
     12 C12        -0.0180  -17.6633  -50.4228 C.ar      23 UNK        -0.1150 
     13 C13         1.3288  -17.9382  -50.1754 C.ar      23 UNK        -0.0193 
     14 C14         2.1106  -16.9945  -49.5046 C.ar      23 UNK        -0.1150 
     15 C15         1.9288  -19.2664  -50.6120 C.3       23 UNK        -0.0205 
     16 S16         1.8868  -20.5001  -49.2717 S.3       23 UNK        -0.2404 
     17 C17         0.0904  -20.6561  -48.9978 C.3       23 UNK        -0.0398 
     18 CA         -0.2827  -21.8432  -48.0849 C.3       11 UNK         0.1400 
     19 N           0.2063  -21.6589  -46.7149 N.am      11 UNK        -0.5000 
     20 C           0.2927  -22.6385  -45.8060 C.2       10 UNK         0.5000 
     21 O           0.0071  -23.8120  -46.0400 O.2       10 UNK        -0.5000 
     22 CA          0.7342  -22.2373  -44.3867 C.3       10 UNK         0.1400 
     23 CB          2.2634  -22.1230  -44.2963 C.3       10 UNK        -0.1800 
     24 N           0.1124  -20.9904  -43.9384 N.am      10 UNK        -0.5000 
     25 C          -1.2013  -20.8437  -43.7129 C.2       9 UNK         0.5000 
     26 O          -2.0146  -21.7635  -43.8055 O.2       9 UNK        -0.5000 
     27 CA         -1.6995  -19.4303  -43.3563 C.3       9 UNK         0.1400 
     28 CB         -1.5332  -19.1600  -41.8538 C.3       9 UNK        -0.1800 
     29 N          -1.0335  -18.3742  -44.1199 N.am      9 UNK        -0.5000 
     30 C          -1.1053  -18.2282  -45.4506 C.2       8 UNK         0.5000 
     31 O          -1.7711  -18.9573  -46.1831 O.2       8 UNK        -0.5000 
     32 CA         -0.2375  -17.1223  -46.0774 C.3       8 UNK         0.1400 
     33 CB         -0.8944  -15.7419  -45.9253 C.3       8 UNK        -0.1800 
     34 N           1.1154  -17.0947  -45.5220 N.am      8 UNK        -0.5000 
     35 C           1.9857  -18.1103  -45.6209 C.2       7 UNK         0.5000 
     36 O           1.7484  -19.1618  -46.2126 O.2       7 UNK        -0.5000 
     37 CA          3.3152  -17.9502  -44.8682 C.3       7 UNK         0.1400 
     38 CB          4.3033  -17.0881  -45.6692 C.3       7 UNK        -0.1800 
     39 N           3.1071  -17.3774  -43.5377 N.am      7 UNK        -0.5000 
     40 C           2.5149  -18.0332  -42.5273 C.2       6 UNK         0.5000 
     41 O           2.1370  -19.2020  -42.6020 O.2       6 UNK        -0.5000 
     42 CA          2.2613  -17.2411  -41.2308 C.3       6 UNK         0.1400 
     43 CB          3.4927  -17.2946  -40.3149 C.3       6 UNK        -0.1800 
     44 N           1.9037  -15.8445  -41.4799 N.am      6 UNK        -0.5000 
     45 C           0.7945  -15.4413  -42.1163 C.2       5 UNK         0.5000 
     46 O          -0.0822  -16.2104  -42.5064 O.2       5 UNK        -0.5000 
     47 CA          0.6643  -13.9350  -42.4077 C.3       5 UNK         0.1400 
     48 CB         -0.1749  -13.2407  -41.3260 C.3       5 UNK        -0.1800 
     49 N           1.9564  -13.2574  -42.5194 N.am      5 UNK        -0.5000 
     50 C           2.8657  -13.4800  -43.4760 C.2       4 UNK         0.5000 
     51 O           2.7140  -14.3144  -44.3709 O.2       4 UNK        -0.5000 
     52 CA          4.1532  -12.6332  -43.3975 C.3       4 UNK         0.1400 
     53 CB          5.1142  -12.8959  -44.5712 C.3       4 UNK        -0.1800 
     54 N           3.8591  -11.2004  -43.3274 N.am      4 UNK        -0.5000 
     55 C           3.4823  -10.5288  -42.2299 C.2       3 UNK         0.5000 
     56 O           3.3462  -11.0555  -41.1248 O.2       3 UNK        -0.5000 
     57 CA          3.1494   -9.0400  -42.4109 C.3       3 UNK         0.1400 
     58 CB          4.4275   -8.2090  -42.6066 C.3       3 UNK        -0.1800 
     59 N           2.2659   -8.8587  -43.5607 N.am      3 UNK        -0.5000 
     60 C           0.9269   -8.8211  -43.4975 C.2       2 UNK         0.5000 
     61 O           0.2896   -8.8369  -42.4440 O.2       2 UNK        -0.5000 
     62 CA          0.1666   -8.7721  -44.8394 C.3       2 UNK         0.1400 
     63 CB         -0.0657   -7.3177  -45.2759 C.3       2 UNK        -0.1800 
     64 N           0.8689   -9.4867  -45.9063 N.am      2 UNK        -0.5000 
     65 C           1.0273  -10.8172  -45.9483 C.2       1 UNK         0.5000 
     66 O           0.4575  -11.5885  -45.1770 O.2       1 UNK        -0.5000 
     67 C          -1.8047  -22.1024  -48.1397 C.2       11 UNK         0.5000 
     68 O          -2.2568  -22.7998  -49.0449 O.2       11 UNK        -0.5000 
     69 N          -2.5723  -21.5454  -47.1908 N.am      12 UNK        -0.5000 
     70 CA         -4.0240  -21.7202  -47.0827 C.3       12 UNK         0.1400 
     71 CB         -4.5940  -20.7018  -46.0843 C.3       12 UNK        -0.1800 
     72 C          -4.4522  -23.1508  -46.6961 C.2       12 UNK         0.5000 
     73 O          -5.5762  -23.5494  -47.0100 O.2       12 UNK        -0.5000 
     74 N          -3.5587  -23.8997  -46.0356 N.am      13 UNK        -0.5000 
     75 CA         -3.7465  -25.3036  -45.6692 C.3       13 UNK         0.1400 
     76 CB         -2.5856  -25.7389  -44.7619 C.3       13 UNK        -0.1800 
     77 C          -3.8509  -26.2282  -46.8994 C.2       13 UNK         0.5000 
     78 O          -3.4133  -25.8620  -47.9925 O.2       13 UNK        -0.5000 
     79 N          -4.4321  -27.4187  -46.6913 N.am      14 UNK        -0.5000 
     80 CA         -4.6720  -28.4598  -47.7006 C.3       14 UNK         0.1400 
     81 CB         -3.3397  -29.0796  -48.1742 C.3       14 UNK        -0.1800 
     82 C          -5.5515  -27.9581  -48.8658 C.2       14 UNK         0.5000 
     83 O          -5.2304  -28.1909  -50.0325 O.2       14 UNK        -0.5000 
     84 N          -6.6323  -27.2446  -48.5116 N.am      15 UNK        -0.5000 
     85 CA         -7.5997  -26.6029  -49.4083 C.3       15 UNK         0.1400 
     86 CB         -8.4373  -27.6648  -50.1522 C.3       15 UNK        -0.1800 
     87 C          -6.9212  -25.5978  -50.3596 C.2       15 UNK         0.5000 
     88 O          -7.0205  -25.7350  -51.5808 O.2       15 UNK        -0.5000 
     89 N          -6.2010  -24.6299  -49.7719 N.am      16 UNK        -0.5000 
     90 CA         -5.4055  -23.6057  -50.4559 C.3       16 UNK         0.1400 
     91 CB         -6.3280  -22.6222  -51.2116 C.3       16 UNK        -0.1800 
     92 C          -4.3006  -24.2180  -51.3392 C.2       16 UNK         0.5000 
     93 O          -4.1401  -23.8100  -52.4904 O.2       16 UNK        -0.5000 
     94 N          -3.5911  -25.2170  -50.7929 N.am      17 UNK        -0.5000 
     95 CA         -2.5567  -26.0250  -51.4441 C.3       17 UNK         0.1400 
     96 CB         -1.2882  -25.1776  -51.6770 C.3       17 UNK        -0.1800 
     97 C          -3.0748  -26.7160  -52.7241 C.2       17 UNK         0.5000 
     98 O          -2.4232  -26.6565  -53.7670 O.2       17 UNK        -0.5000 
     99 N          -4.2659  -27.3241  -52.6185 N.am      18 UNK        -0.5000 
    100 CA        -5.0719  -27.8936  -53.7028 C.3       18 UNK         0.1400 
    101 CB        -4.3882  -29.1398  -54.3030 C.3       18 UNK        -0.1800 
    102 C         -5.4589  -26.8344  -54.7589 C.2       18 UNK         0.5000 
    103 O         -5.2783  -27.0532  -55.9585 O.2       18 UNK        -0.5000 
    104 N         -5.9822  -25.6995  -54.2723 N.am      19 UNK        -0.5000 
    105 CA        -6.4291  -24.5195  -55.0210 C.3       19 UNK         0.1400 
    106 CB        -7.6894  -24.8515  -55.8467 C.3       19 UNK        -0.1800 
    107 C         -5.3193  -23.8407  -55.8566 C.2       19 UNK         0.5000 
    108 O         -5.5966  -23.3205  -56.9394 O.2       19 UNK        -0.5000 
    109 N         -4.0862  -23.8476  -55.3370 N.am      20 UNK        -0.5000 
    110 CA        -2.9190  -23.2002  -55.9375 C.3       20 UNK         0.1400 
    111 CB        -1.7122  -24.1440  -55.8309 C.3       20 UNK        -0.1800 
    112 C         -2.5962  -21.8502  -55.2709 C.2       20 UNK         0.5000 
    113 O         -1.9978  -20.9910  -55.9208 O.2       20 UNK        -0.5000 
    114 N         -2.9766  -21.6834  -53.9965 N.am      21 UNK        -0.5000 
    115 CA        -2.7839  -20.4608  -53.2161 C.3       21 UNK         0.1400 
    116 CB        -2.6995  -20.8336  -51.7250 C.3       21 UNK        -0.1800 
    117 C         -3.8790  -19.4085  -53.4973 C.2       21 UNK         0.5000 
    118 O         -4.6851  -19.5705  -54.4165 O.2       21 UNK        -0.5000 
    119 N         -3.8704  -18.3314  -52.7015 N.am      22 UNK        -0.5000 
    120 CA        -4.7152  -17.1311  -52.8530 C.3       22 UNK         0.1400 
    121 C         -6.2521  -17.3526  -52.7149 C.2       22 UNK         0.5000 
    122 N         -6.7185  -18.4657  -52.1627 N.am      22 UNK        -0.7600 
    123 O         -7.0337  -16.4932  -53.1129 O.2       22 UNK        -0.5000 
    124 C124       -4.2672  -15.9782  -51.9111 C.3       23 UNK        -0.0398 
    125 S125       -2.4604  -15.6953  -51.8772 S.3       23 UNK        -0.2404 
    126 C126       -2.0810  -16.2327  -50.1799 C.3       23 UNK        -0.0205 
    127 H127        5.7529   -9.0353  -47.7257 H         1 UNK         0.0600 
    128 H128        4.6008   -7.7267  -47.4399 H         1 UNK         0.0600 
    129 H129        4.4214   -8.7688  -48.8553 H         1 UNK         0.0600 
    130 H130        2.7958  -10.2741  -48.6050 H         1 UNK         0.3000 
    131 H131        2.6468  -12.0779  -46.4397 H         1 UNK         0.0600 
    132 H132        0.6597  -11.5756  -48.7017 H         1 UNK         0.0800 
    133 H133        0.5706  -12.9223  -47.5981 H         1 UNK         0.0800 
    134 H134        3.4493  -15.1377  -48.2680 H         1 UNK         0.0800 
    135 H135        2.0794  -14.7086  -47.2857 H         1 UNK         0.0800 
    136 H136       -0.2480  -14.6119  -48.9672 H         1 UNK         0.1150 
    137 H137       -0.6263  -18.3905  -50.9397 H         1 UNK         0.1150 
    138 H138        3.1507  -17.2118  -49.3066 H         1 UNK         0.1150 
    139 H139        1.4009  -19.6566  -51.4836 H         1 UNK         0.0800 
    140 H140        2.9635  -19.1182  -50.9240 H         1 UNK         0.0800 
    141 H141       -0.3747  -20.7677  -49.9771 H         1 UNK         0.0800 
    142 H142       -0.2868  -19.7253  -48.5709 H         1 UNK         0.0800 
    143 H143        0.1972  -22.7368  -48.4905 H         1 UNK         0.0600 
    144 H144        0.5284  -20.7272  -46.4685 H         1 UNK         0.3000 
    145 H145        0.4173  -23.0306  -43.7062 H         1 UNK         0.0600 
    146 H146        2.7422  -23.0543  -44.6010 H         1 UNK         0.0600 
    147 H147        2.6496  -21.3313  -44.9380 H         1 UNK         0.0600 
    148 H148        2.5829  -21.9118  -43.2757 H         1 UNK         0.0600 
    149 H149        0.7294  -20.1992  -43.7923 H         1 UNK         0.3000 
    150 H150       -2.7644  -19.3855  -43.5922 H         1 UNK         0.0600 
    151 H151       -2.0466  -19.9181  -41.2610 H         1 UNK         0.0600 
    152 H152       -1.9526  -18.1922  -41.5785 H         1 UNK         0.0600 
    153 H153       -0.4839  -19.1661  -41.5580 H         1 UNK         0.0600 
    154 H154       -0.5057  -17.6904  -43.5831 H         1 UNK         0.3000 
    155 H155       -0.1483  -17.3441  -47.1421 H         1 UNK         0.0600 
    156 H156       -0.2757  -14.9570  -46.3590 H         1 UNK         0.0600 
    157 H157       -1.0700  -15.4872  -44.8805 H         1 UNK         0.0600 
    158 H158       -1.8584  -15.7156  -46.4345 H         1 UNK         0.0600 
    159 H159        1.3877  -16.2705  -45.0038 H         1 UNK         0.3000 
    160 H160        3.7551  -18.9428  -44.7487 H         1 UNK         0.0600 
    161 H161        3.9201  -16.0837  -45.8460 H         1 UNK         0.0600 
    162 H162        4.5033  -17.5348  -46.6440 H         1 UNK         0.0600 
    163 H163        5.2578  -16.9965  -45.1509 H         1 UNK         0.0600 
    164 H164        3.3345  -16.3997  -43.4237 H         1 UNK         0.3000 
    165 H165        1.4265  -17.7144  -40.7098 H         1 UNK         0.0600 
    166 H166        3.2971  -16.8029  -39.3618 H         1 UNK         0.0600 
    167 H167        3.7707  -18.3265  -40.0957 H         1 UNK         0.0600 
    168 H168        4.3573  -16.8115  -40.7718 H         1 UNK         0.0600 
    169 H169        2.5667  -15.1430  -41.1857 H         1 UNK         0.3000 
    170 H170        0.1479  -13.8281  -43.3639 H         1 UNK         0.0600 
    171 H171       -1.1571  -13.7064  -41.2348 H         1 UNK         0.0600 
    172 H172        0.3064  -13.2913  -40.3485 H         1 UNK         0.0600 
    173 H173       -0.3350  -12.1896  -41.5682 H         1 UNK         0.0600 
    174 H174        2.1686  -12.5490  -41.8250 H         1 UNK         0.3000 
    175 H175        4.6704  -12.9286  -42.4824 H         1 UNK         0.0600 
    176 H176        6.0362  -12.3255  -44.4579 H         1 UNK         0.0600 
    177 H177        5.3905  -13.9498  -44.6238 H         1 UNK         0.0600 
    178 H178        4.6732  -12.6249  -45.5296 H         1 UNK         0.0600 
    179 H179        3.9326  -10.6885  -44.2044 H         1 UNK         0.3000 
    180 H180        2.6580   -8.6886  -41.5011 H         1 UNK         0.0600 
    181 H181        4.9748   -8.5048  -43.5024 H         1 UNK         0.0600 
    182 H182        5.1013   -8.3257  -41.7569 H         1 UNK         0.0600 
    183 H183        4.1950   -7.1476  -42.6937 H         1 UNK         0.0600 
    184 H184        2.7106   -8.8991  -44.4705 H         1 UNK         0.3000 
    185 H185       -0.8064   -9.2450  -44.6899 H         1 UNK         0.0600 
    186 H186       -0.6082   -6.7627  -44.5094 H         1 UNK         0.0600 
    187 H187        0.8748   -6.7953  -45.4558 H         1 UNK         0.0600 
    188 H188       -0.6573   -7.2699  -46.1903 H         1 UNK         0.0600 
    189 H189        1.3620   -8.9256  -46.5854 H         1 UNK         0.3000 
    190 H190       -2.1441  -20.8998  -46.5355 H         1 UNK         0.3000 
    191 H191       -4.4575  -21.4975  -48.0585 H         1 UNK         0.0600 
    192 H192       -4.3753  -19.6797  -46.3929 H         1 UNK         0.0600 
    193 H193       -5.6787  -20.7913  -46.0121 H         1 UNK         0.0600 
    194 H194       -4.1875  -20.8470  -45.0840 H         1 UNK         0.0600 
    195 H195       -2.6510  -23.4990  -45.8439 H         1 UNK         0.3000 
    196 H196       -4.6779  -25.3759  -45.1041 H         1 UNK         0.0600 
    197 H197       -2.7506  -26.7419  -44.3669 H         1 UNK         0.0600 
    198 H198       -2.4742  -25.0681  -43.9094 H         1 UNK         0.0600 
    199 H199       -1.6392  -25.7545  -45.3028 H         1 UNK         0.0600 
    200 H200       -4.7596  -27.6356  -45.7600 H         1 UNK         0.3000 
    201 H201       -5.2424  -29.2476  -47.2066 H         1 UNK         0.0600 
    202 H202       -2.7540  -29.4450  -47.3309 H         1 UNK         0.0600 
    203 H203       -2.7274  -28.3621  -48.7208 H         1 UNK         0.0600 
    204 H204       -3.5174  -29.9274  -48.8368 H         1 UNK         0.0600 
    205 H205       -6.7851  -27.0894  -47.5252 H         1 UNK         0.3000 
    206 H206       -8.2798  -26.0262  -48.7797 H         1 UNK         0.0600 
    207 H207       -8.9310  -28.3384  -49.4519 H         1 UNK         0.0600 
    208 H208       -9.2158  -27.1943  -50.7538 H         1 UNK         0.0600 
    209 H209       -7.8273  -28.2691  -50.8244 H         1 UNK         0.0600 
    210 H210       -6.1481  -24.6029  -48.7593 H         1 UNK         0.3000 
    211 H211       -4.8859  -23.0416  -49.6852 H         1 UNK         0.0600 
    212 H212       -6.9127  -23.1215  -51.9831 H         1 UNK         0.0600 
    213 H213       -5.7630  -21.8322  -51.7036 H         1 UNK         0.0600 
    214 H214       -7.0261  -22.1403  -50.5273 H         1 UNK         0.0600 
    215 H215       -3.7534  -25.4440  -49.8144 H         1 UNK         0.3000 
    216 H216       -2.3015  -26.8218  -50.7444 H         1 UNK         0.0600 
    217 H217       -0.4820  -25.7822  -52.0934 H         1 UNK         0.0600 
    218 H218       -0.9260  -24.7527  -50.7407 H         1 UNK         0.0600 
    219 H219       -1.4714  -24.3525  -52.3654 H         1 UNK         0.0600 
    220 H220       -4.6986  -27.3615  -51.6987 H         1 UNK         0.3000 
    221 H221       -6.0055  -28.2215  -53.2432 H         1 UNK         0.0600 
    222 H222       -3.4627  -28.8878  -54.8213 H         1 UNK         0.0600 
    223 H223       -4.1515  -29.8695  -53.5288 H         1 UNK         0.0600 
    224 H224       -5.0417  -29.6320  -55.0240 H         1 UNK         0.0600 
    225 H225       -6.1206  -25.6436  -53.2657 H         1 UNK         0.3000 
    226 H226       -6.7190  -23.7849  -54.2695 H         1 UNK         0.0600 
    227 H227       -8.4621  -25.2995  -55.2220 H         1 UNK         0.0600 
    228 H228       -8.1160  -23.9516  -56.2910 H         1 UNK         0.0600 
    229 H229       -7.4696  -25.5452  -56.6588 H         1 UNK         0.0600 
    230 H230       -3.9629  -24.2427  -54.4098 H         1 UNK         0.3000 
    231 H231       -3.0991  -23.0099  -56.9975 H         1 UNK         0.0600 
    232 H232       -1.4378  -24.3294  -54.7925 H         1 UNK         0.0600 
    233 H233       -0.8397  -23.7207  -56.3299 H         1 UNK         0.0600 
    234 H234       -1.9215  -25.1065  -56.2981 H         1 UNK         0.0600 
    235 H235       -3.4739  -22.4384  -53.5308 H         1 UNK         0.3000 
    236 H236       -1.8285  -20.0148  -53.5001 H         1 UNK         0.0600 
    237 H237       -1.9762  -21.6336  -51.5651 H         1 UNK         0.0600 
    238 H238       -2.3851  -19.9880  -51.1145 H         1 UNK         0.0600 
    239 H239       -3.6550  -21.1745  -51.3331 H         1 UNK         0.0600 
    240 H240       -3.1680  -18.2682  -51.9816 H         1 UNK         0.3000 
    241 H241       -4.5595  -16.7869  -53.8772 H         1 UNK         0.0600 
    242 H242       -7.7141  -18.5991  -52.0812 H         1 UNK         0.3800 
    243 H243       -6.0869  -19.1828  -51.8480 H         1 UNK         0.3800 
    244 H244       -4.7391  -15.0438  -52.2201 H         1 UNK         0.0800 
    245 H245       -4.6193  -16.1615  -50.8942 H         1 UNK         0.0800 
    246 H246       -2.6195  -17.1539  -49.9517 H         1 UNK         0.0800 
    247 H247       -2.4469  -15.4832  -49.4763 H         1 UNK         0.0800 
@<TRIPOS>BOND
     1    1    2 1    
     2    1  127 1    
     3    1  128 1    
     4    1  129 1    
     5    2    3 2    
     6    2    4 am   BACKBONE|DICT|INTERRES
     7    4    5 1    
     8    4  130 1    
     9    5    6 1    
    10    5   65 1    
    11    5  131 1    
    12    6    7 1    
    13    6  132 1    
    14    6  133 1    
    15    7    8 1    
    16    8    9 1    
    17    8  134 1    
    18    8  135 1    
    19    9   10 ar   
    20    9   14 ar   
    21   10   11 ar   
    22   10  136 1    
    23   11   12 ar   
    24   11  126 1    
    25   12   13 ar   
    26   12  137 1    
    27   13   14 ar   
    28   13   15 1    
    29   14  138 1    
    30   15   16 1    
    31   15  139 1    
    32   15  140 1    
    33   16   17 1    
    34   17   18 1    
    35   17  141 1    
    36   17  142 1    
    37   18   19 1    
    38   18   67 1    
    39   18  143 1    
    40   19   20 am   BACKBONE|DICT|INTERRES
    41   19  144 1    
    42   20   21 2    
    43   20   22 1    
    44   22   23 1    
    45   22   24 1    
    46   22  145 1    
    47   23  146 1    
    48   23  147 1    
    49   23  148 1    
    50   24   25 am   BACKBONE|DICT|INTERRES
    51   24  149 1    
    52   25   26 2    
    53   25   27 1    
    54   27   28 1    
    55   27   29 1    
    56   27  150 1    
    57   28  151 1    
    58   28  152 1    
    59   28  153 1    
    60   29   30 am   BACKBONE|DICT|INTERRES
    61   29  154 1    
    62   30   31 2    
    63   30   32 1    
    64   32   33 1    
    65   32   34 1    
    66   32  155 1    
    67   33  156 1    
    68   33  157 1    
    69   33  158 1    
    70   34   35 am   BACKBONE|DICT|INTERRES
    71   34  159 1    
    72   35   36 2    
    73   35   37 1    
    74   37   38 1    
    75   37   39 1    
    76   37  160 1    
    77   38  161 1    
    78   38  162 1    
    79   38  163 1    
    80   39   40 am   BACKBONE|DICT|INTERRES
    81   39  164 1    
    82   40   41 2    
    83   40   42 1    
    84   42   43 1    
    85   42   44 1    
    86   42  165 1    
    87   43  166 1    
    88   43  167 1    
    89   43  168 1    
    90   44   45 am   BACKBONE|DICT|INTERRES
    91   44  169 1    
    92   45   46 2    
    93   45   47 1    
    94   47   48 1    
    95   47   49 1    
    96   47  170 1    
    97   48  171 1    
    98   48  172 1    
    99   48  173 1    
   100   49   50 am   BACKBONE|DICT|INTERRES
   101   49  174 1    
   102   50   51 2    
   103   50   52 1    
   104   52   53 1    
   105   52   54 1    
   106   52  175 1    
   107   53  176 1    
   108   53  177 1    
   109   53  178 1    
   110   54   55 am   BACKBONE|DICT|INTERRES
   111   54  179 1    
   112   55   56 2    
   113   55   57 1    
   114   57   58 1    
   115   57   59 1    
   116   57  180 1    
   117   58  181 1    
   118   58  182 1    
   119   58  183 1    
   120   59   60 am   BACKBONE|DICT|INTERRES
   121   59  184 1    
   122   60   61 2    
   123   60   62 1    
   124   62   63 1    
   125   62   64 1    
   126   62  185 1    
   127   63  186 1    
   128   63  187 1    
   129   63  188 1    
   130   64   65 am   BACKBONE|DICT|INTERRES
   131   64  189 1    
   132   65   66 2    
   133   67   68 2    
   134   67   69 am   BACKBONE|DICT|INTERRES
   135   69   70 1    
   136   69  190 1    
   137   70   71 1    
   138   70   72 1    
   139   70  191 1    
   140   71  192 1    
   141   71  193 1    
   142   71  194 1    
   143   72   73 2    
   144   72   74 am   BACKBONE|DICT|INTERRES
   145   74   75 1    
   146   74  195 1    
   147   75   76 1    
   148   75   77 1    
   149   75  196 1    
   150   76  197 1    
   151   76  198 1    
   152   76  199 1    
   153   77   78 2    
   154   77   79 am   BACKBONE|DICT|INTERRES
   155   79   80 1    
   156   79  200 1    
   157   80   81 1    
   158   80   82 1    
   159   80  201 1    
   160   81  202 1    
   161   81  203 1    
   162   81  204 1    
   163   82   83 2    
   164   82   84 am   BACKBONE|DICT|INTERRES
   165   84   85 1    
   166   84  205 1    
   167   85   86 1    
   168   85   87 1    
   169   85  206 1    
   170   86  207 1    
   171   86  208 1    
   172   86  209 1    
   173   87   88 2    
   174   87   89 am   BACKBONE|DICT|INTERRES
   175   89   90 1    
   176   89  210 1    
   177   90   91 1    
   178   90   92 1    
   179   90  211 1    
   180   91  212 1    
   181   91  213 1    
   182   91  214 1    
   183   92   93 2    
   184   92   94 am   BACKBONE|DICT|INTERRES
   185   94   95 1    
   186   94  215 1    
   187   95   96 1    
   188   95   97 1    
   189   95  216 1    
   190   96  217 1    
   191   96  218 1    
   192   96  219 1    
   193   97   98 2    
   194   97   99 am   BACKBONE|DICT|INTERRES
   195   99  100 1    
   196   99  220 1    
   197  100  101 1    
   198  100  102 1    
   199  100  221 1    
   200  101  222 1    
   201  101  223 1    
   202  101  224 1    
   203  102  103 2    
   204  102  104 am   BACKBONE|DICT|INTERRES
   205  104  105 1    
   206  104  225 1    
   207  105  106 1    
   208  105  107 1    
   209  105  226 1    
   210  106  227 1    
   211  106  228 1    
   212  106  229 1    
   213  107  108 2    
   214  107  109 am   BACKBONE|DICT|INTERRES
   215  109  110 1    
   216  109  230 1    
   217  110  111 1    
   218  110  112 1    
   219  110  231 1    
   220  111  232 1    
   221  111  233 1    
   222  111  234 1    
   223  112  113 2    
   224  112  114 am   BACKBONE|DICT|INTERRES
   225  114  115 1    
   226  114  235 1    
   227  115  116 1    
   228  115  117 1    
   229  115  236 1    
   230  116  237 1    
   231  116  238 1    
   232  116  239 1    
   233  117  118 2    
   234  117  119 am   BACKBONE|DICT|INTERRES
   235  119  120 1    
   236  119  240 1    
   237  120  121 1    
   238  120  124 1    
   239  120  241 1    
   240  121  122 am   BACKBONE|DICT|INTERRES
   241  121  123 2    
   242  122  242 1    
   243  122  243 1    
   244  124  125 1    
   245  124  244 1    
   246  124  245 1    
   247  125  126 1    
   248  126  246 1    
   249  126  247 1    
@<TRIPOS>SUBSTRUCTURE
     1 UNK         1 GROUP             0       ****    0 ROOT    
