@<TRIPOS>MOLECULE
3R540
247   249    1
SMALL
USER_CHARGES


@<TRIPOS>ATOM
      1 CA         -3.9740  -12.7030  -51.5263 C.3       0 UNK        -0.1800 
      2 C          -2.8645  -13.6383  -51.0657 C.2       0 UNK         0.5000 
      3 O          -1.7847  -13.6414  -51.6563 O.2       0 UNK        -0.5000 
      4 N          -3.1304  -14.4292  -50.0186 N.am      1 UNK        -0.5000 
      5 CA         -2.1790  -15.3539  -49.3938 C.3       1 UNK         0.1400 
      6 C6         -2.8663  -16.2574  -48.3418 C.3       23 UNK        -0.0398 
      7 S7         -3.9953  -17.4601  -49.1193 S.3       23 UNK        -0.2404 
      8 C8         -3.0265  -18.9937  -48.9682 C.3       23 UNK        -0.0205 
      9 C9         -1.7050  -18.9280  -49.7170 C.ar      23 UNK        -0.0193 
     10 C10        -1.6969  -18.9333  -51.1131 C.ar      23 UNK        -0.1150 
     11 C11        -0.4915  -18.8576  -51.8143 C.ar      23 UNK        -0.0193 
     12 C12         0.7136  -18.8061  -51.1109 C.ar      23 UNK        -0.1150 
     13 C13         0.7208  -18.8106  -49.7136 C.ar      23 UNK        -0.0193 
     14 C14        -0.4935  -18.8621  -49.0205 C.ar      23 UNK        -0.1150 
     15 C15         2.0447  -18.7326  -48.9688 C.3       23 UNK        -0.0205 
     16 S16         2.6004  -20.3609  -48.3822 S.3       23 UNK        -0.2404 
     17 C17         1.9103  -20.3754  -46.6955 C.3       23 UNK        -0.0398 
     18 CA          1.3753  -21.7543  -46.2567 C.3       11 UNK         0.1400 
     19 N           1.2133  -21.7990  -44.8051 N.am      11 UNK        -0.5000 
     20 C           1.3749  -22.8872  -44.0439 C.2       10 UNK         0.5000 
     21 O           1.7260  -23.9839  -44.4786 O.2       10 UNK        -0.5000 
     22 CA          1.0796  -22.7197  -42.5401 C.3       10 UNK         0.1400 
     23 CB          2.3509  -22.2925  -41.7915 C.3       10 UNK        -0.1800 
     24 N           0.0172  -21.7494  -42.2634 N.am      10 UNK        -0.5000 
     25 C          -1.2621  -21.9000  -42.6327 C.2       9 UNK         0.5000 
     26 O          -1.6871  -22.8811  -43.2436 O.2       9 UNK        -0.5000 
     27 CA         -2.2186  -20.7401  -42.3021 C.3       9 UNK         0.1400 
     28 CB         -2.7349  -20.8684  -40.8614 C.3       9 UNK        -0.1800 
     29 N          -1.6539  -19.4007  -42.4846 N.am      9 UNK        -0.5000 
     30 C          -1.0364  -18.9102  -43.5670 C.2       8 UNK         0.5000 
     31 O          -0.7618  -19.5872  -44.5568 O.2       8 UNK        -0.5000 
     32 CA         -0.6319  -17.4225  -43.5510 C.3       8 UNK         0.1400 
     33 CB         -1.7133  -16.5480  -44.2104 C.3       8 UNK        -0.1800 
     34 N          -0.2385  -16.8914  -42.2384 N.am      8 UNK        -0.5000 
     35 C          -0.9686  -16.7376  -41.1224 C.2       7 UNK         0.5000 
     36 O          -2.1660  -17.0173  -41.0509 O.2       7 UNK        -0.5000 
     37 CA         -0.2351  -16.2113  -39.8703 C.3       7 UNK         0.1400 
     38 CB         -0.8491  -16.7396  -38.5568 C.3       7 UNK        -0.1800 
     39 N           1.2139  -16.4404  -39.8965 N.am      7 UNK        -0.5000 
     40 C           1.8668  -17.6149  -39.9181 C.2       6 UNK         0.5000 
     41 O           1.3020  -18.7097  -39.8925 O.2       6 UNK        -0.5000 
     42 CA          3.4064  -17.5557  -40.0214 C.3       6 UNK         0.1400 
     43 CB          3.9425  -18.6071  -41.0092 C.3       6 UNK        -0.1800 
     44 N           3.8574  -16.2336  -40.4603 N.am      6 UNK        -0.5000 
     45 C           4.4008  -15.2894  -39.6801 C.2       5 UNK         0.5000 
     46 O           4.6697  -15.4571  -38.4904 O.2       5 UNK        -0.5000 
     47 CA          4.6637  -13.9120  -40.3278 C.3       5 UNK         0.1400 
     48 CB          6.1336  -13.7951  -40.7586 C.3       5 UNK        -0.1800 
     49 N           3.8070  -13.6321  -41.4847 N.am      5 UNK        -0.5000 
     50 C           2.4751  -13.4814  -41.4423 C.2       4 UNK         0.5000 
     51 O           1.8233  -13.4968  -40.3985 O.2       4 UNK        -0.5000 
     52 CA          1.7380  -13.3675  -42.7932 C.3       4 UNK         0.1400 
     53 CB          1.5073  -11.8946  -43.1600 C.3       4 UNK        -0.1800 
     54 N           2.4175  -14.0403  -43.9067 N.am      4 UNK        -0.5000 
     55 C           2.7133  -15.3469  -43.9576 C.2       3 UNK         0.5000 
     56 O           2.4601  -16.1324  -43.0417 O.2       3 UNK        -0.5000 
     57 CA          3.4386  -15.8363  -45.2263 C.3       3 UNK         0.1400 
     58 CB          3.4705  -17.3746  -45.3382 C.3       3 UNK        -0.1800 
     59 N           2.9230  -15.2210  -46.4566 N.am      3 UNK        -0.5000 
     60 C           1.7051  -15.3859  -46.9944 C.2       2 UNK         0.5000 
     61 O           0.8245  -16.0882  -46.4929 O.2       2 UNK        -0.5000 
     62 CA          1.4485  -14.6581  -48.3319 C.3       2 UNK         0.1400 
     63 CB          2.5966  -14.8632  -49.3382 C.3       2 UNK        -0.1800 
     64 N           0.2116  -15.1293  -48.9512 N.am      2 UNK        -0.5000 
     65 C          -0.9988  -14.5989  -48.7497 C.2       1 UNK         0.5000 
     66 O          -1.2091  -13.5863  -48.0764 O.2       1 UNK        -0.5000 
     67 C           0.0516  -22.1286  -46.9514 C.2       11 UNK         0.5000 
     68 O           0.0702  -22.8727  -47.9317 O.2       11 UNK        -0.5000 
     69 N          -1.0817  -21.6725  -46.3947 N.am      12 UNK        -0.5000 
     70 CA         -2.4367  -21.9918  -46.8492 C.3       12 UNK         0.1400 
     71 CB         -3.4692  -21.2571  -45.9817 C.3       12 UNK        -0.1800 
     72 C          -2.7326  -23.4999  -46.8571 C.2       12 UNK         0.5000 
     73 O          -3.4026  -23.9717  -47.7730 O.2       12 UNK        -0.5000 
     74 N          -2.1892  -24.2310  -45.8751 N.am      13 UNK        -0.5000 
     75 CA         -2.2527  -25.6898  -45.7844 C.3       13 UNK         0.1400 
     76 CB         -1.6411  -26.1323  -44.4466 C.3       13 UNK        -0.1800 
     77 C          -1.5633  -26.4163  -46.9583 C.2       13 UNK         0.5000 
     78 O          -2.0115  -27.4975  -47.3410 O.2       13 UNK        -0.5000 
     79 N          -0.5026  -25.8139  -47.5139 N.am      14 UNK        -0.5000 
     80 CA          0.2230  -26.3257  -48.6763 C.3       14 UNK         0.1400 
     81 CB          1.6921  -25.8804  -48.5986 C.3       14 UNK        -0.1800 
     82 C          -0.4217  -25.8611  -49.9939 C.2       14 UNK         0.5000 
     83 O          -0.5227  -26.6520  -50.9323 O.2       14 UNK        -0.5000 
     84 N          -0.8548  -24.5933  -50.0386 N.am      15 UNK        -0.5000 
     85 CA         -1.4928  -23.9633  -51.1980 C.3       15 UNK         0.1400 
     86 CB         -1.4801  -22.4390  -51.0009 C.3       15 UNK        -0.1800 
     87 C          -2.9320  -24.4500  -51.4644 C.2       15 UNK         0.5000 
     88 O          -3.4270  -24.2663  -52.5758 O.2       15 UNK        -0.5000 
     89 N          -3.5721  -25.0380  -50.4430 N.am      16 UNK        -0.5000 
     90 CA         -4.9896  -25.4073  -50.3656 C.3       16 UNK         0.1400 
     91 CB         -5.3779  -26.4383  -51.4465 C.3       16 UNK        -0.1800 
     92 C          -5.8986  -24.1601  -50.3371 C.2       16 UNK         0.5000 
     93 O          -6.9433  -24.1332  -50.9907 O.2       16 UNK        -0.5000 
     94 N          -5.4677  -23.1575  -49.5557 N.am      17 UNK        -0.5000 
     95 CA         -6.0867  -21.8483  -49.3382 C.3       17 UNK         0.1400 
     96 CB         -7.3487  -21.9998  -48.4602 C.3       17 UNK        -0.1800 
     97 C          -6.3117  -21.0851  -50.6626 C.2       17 UNK         0.5000 
     98 O          -5.3589  -20.9137  -51.4250 O.2       17 UNK        -0.5000 
     99 N          -7.5517  -20.6349  -50.9011 N.am      18 UNK        -0.5000 
    100 CA        -8.1145  -20.0341  -52.1185 C.3       18 UNK         0.1400 
    101 CB        -8.0439  -21.0268  -53.2948 C.3       18 UNK        -0.1800 
    102 C         -7.5506  -18.6647  -52.5462 C.2       18 UNK         0.5000 
    103 O         -8.2972  -17.8825  -53.1351 O.2       18 UNK        -0.5000 
    104 N         -6.2566  -18.4105  -52.3086 N.am      19 UNK        -0.5000 
    105 CA        -5.4414  -17.2564  -52.7251 C.3       19 UNK         0.1400 
    106 CB        -5.9996  -15.9288  -52.1819 C.3       19 UNK        -0.1800 
    107 C         -5.1961  -17.1856  -54.2473 C.2       19 UNK         0.5000 
    108 O         -4.0753  -16.9069  -54.6701 O.2       19 UNK        -0.5000 
    109 N         -6.2143  -17.5201  -55.0515 N.am      20 UNK        -0.5000 
    110 CA        -6.1426  -17.7196  -56.5031 C.3       20 UNK         0.1400 
    111 CB        -7.5596  -17.9722  -57.0384 C.3       20 UNK        -0.1800 
    112 C         -5.1969  -18.8681  -56.9154 C.2       20 UNK         0.5000 
    113 O         -4.7034  -18.8783  -58.0443 O.2       20 UNK        -0.5000 
    114 N         -4.9163  -19.7795  -55.9710 N.am      21 UNK        -0.5000 
    115 CA        -3.9304  -20.8586  -56.0562 C.3       21 UNK         0.1400 
    116 CB        -3.9694  -21.6589  -54.7449 C.3       21 UNK        -0.1800 
    117 C         -2.4902  -20.3846  -56.3450 C.2       21 UNK         0.5000 
    118 O         -1.6815  -21.1852  -56.8161 O.2       21 UNK        -0.5000 
    119 N         -2.1942  -19.1037  -56.0787 N.am      22 UNK        -0.5000 
    120 CA        -0.9272  -18.4506  -56.4397 C.3       22 UNK         0.1400 
    121 C         -0.7403  -18.2431  -57.9748 C.2       22 UNK         0.5000 
    122 N         -1.7765  -18.3501  -58.8009 N.am      22 UNK        -0.7600 
    123 O          0.3717  -17.9817  -58.4254 O.2       22 UNK        -0.5000 
    124 C124       -0.7417  -17.0968  -55.7038 C.3       23 UNK        -0.0398 
    125 S125       -0.7723  -17.0816  -53.8723 S.3       23 UNK        -0.2404 
    126 C126       -0.4986  -18.7977  -53.3300 C.3       23 UNK        -0.0205 
    127 H127       -4.9016  -12.8727  -50.9788 H         1 UNK         0.0600 
    128 H128       -4.1741  -12.8508  -52.5876 H         1 UNK         0.0600 
    129 H129       -3.6749  -11.6654  -51.3768 H         1 UNK         0.0600 
    130 H130       -4.0333  -14.3703  -49.5715 H         1 UNK         0.3000 
    131 H131       -1.7780  -15.9893  -50.1871 H         1 UNK         0.0600 
    132 H132       -2.1283  -16.7994  -47.7475 H         1 UNK         0.0800 
    133 H133       -3.4329  -15.6560  -47.6290 H         1 UNK         0.0800 
    134 H134       -2.8580  -19.1973  -47.9118 H         1 UNK         0.0800 
    135 H135       -3.6122  -19.8242  -49.3608 H         1 UNK         0.0800 
    136 H136       -2.6319  -18.9758  -51.6539 H         1 UNK         0.1150 
    137 H137        1.6466  -18.7488  -51.6537 H         1 UNK         0.1150 
    138 H138       -0.4980  -18.8502  -47.9402 H         1 UNK         0.1150 
    139 H139        2.8177  -18.3294  -49.6242 H         1 UNK         0.0800 
    140 H140        1.9682  -18.0379  -48.1334 H         1 UNK         0.0800 
    141 H141        2.7277  -20.0861  -46.0346 H         1 UNK         0.0800 
    142 H142        1.1471  -19.6060  -46.5760 H         1 UNK         0.0800 
    143 H143        2.1162  -22.5039  -46.5440 H         1 UNK         0.0600 
    144 H144        0.8464  -20.9602  -44.3731 H         1 UNK         0.3000 
    145 H145        0.7600  -23.6899  -42.1538 H         1 UNK         0.0600 
    146 H146        2.1732  -22.2182  -40.7184 H         1 UNK         0.0600 
    147 H147        3.1533  -23.0166  -41.9389 H         1 UNK         0.0600 
    148 H148        2.7138  -21.3248  -42.1397 H         1 UNK         0.0600 
    149 H149        0.2794  -20.9091  -41.7670 H         1 UNK         0.3000 
    150 H150       -3.0757  -20.8164  -42.9705 H         1 UNK         0.0600 
    151 H151       -3.1831  -21.8483  -40.6905 H         1 UNK         0.0600 
    152 H152       -3.4993  -20.1207  -40.6487 H         1 UNK         0.0600 
    153 H153       -1.9318  -20.7411  -40.1342 H         1 UNK         0.0600 
    154 H154       -1.8602  -18.7279  -41.7519 H         1 UNK         0.3000 
    155 H155        0.2620  -17.3522  -44.1709 H         1 UNK         0.0600 
    156 H156       -1.3826  -15.5125  -44.2922 H         1 UNK         0.0600 
    157 H157       -2.6499  -16.5627  -43.6530 H         1 UNK         0.0600 
    158 H158       -1.9286  -16.8977  -45.2207 H         1 UNK         0.0600 
    159 H159        0.7466  -16.6512  -42.1835 H         1 UNK         0.3000 
    160 H160       -0.3694  -15.1291  -39.8812 H         1 UNK         0.0600 
    161 H161       -0.8300  -17.8287  -38.5088 H         1 UNK         0.0600 
    162 H162       -1.8895  -16.4279  -38.4573 H         1 UNK         0.0600 
    163 H163       -0.3136  -16.3553  -37.6887 H         1 UNK         0.0600 
    164 H164        1.7697  -15.5946  -39.9351 H         1 UNK         0.3000 
    165 H165        3.8050  -17.7845  -39.0314 H         1 UNK         0.0600 
    166 H166        3.5002  -18.4928  -41.9996 H         1 UNK         0.0600 
    167 H167        5.0249  -18.5340  -41.1146 H         1 UNK         0.0600 
    168 H168        3.7206  -19.6169  -40.6628 H         1 UNK         0.0600 
    169 H169        3.6258  -16.0024  -41.4207 H         1 UNK         0.3000 
    170 H170        4.4660  -13.1506  -39.5705 H         1 UNK         0.0600 
    171 H171        6.8032  -13.9683  -39.9150 H         1 UNK         0.0600 
    172 H172        6.3852  -14.5220  -41.5319 H         1 UNK         0.0600 
    173 H173        6.3536  -12.8004  -41.1467 H         1 UNK         0.0600 
    174 H174        4.2606  -13.6035  -42.3858 H         1 UNK         0.3000 
    175 H175        0.7634  -13.8449  -42.6700 H         1 UNK         0.0600 
    176 H176        2.4483  -11.3701  -43.3305 H         1 UNK         0.0600 
    177 H177        0.9022  -11.8028  -44.0622 H         1 UNK         0.0600 
    178 H178        0.9790  -11.3708  -42.3620 H         1 UNK         0.0600 
    179 H179        2.6575  -13.4648  -44.7005 H         1 UNK         0.3000 
    180 H180        4.4714  -15.4989  -45.1291 H         1 UNK         0.0600 
    181 H181        2.4667  -17.7982  -45.3239 H         1 UNK         0.0600 
    182 H182        4.0189  -17.8153  -44.5050 H         1 UNK         0.0600 
    183 H183        3.9608  -17.6966  -46.2568 H         1 UNK         0.0600 
    184 H184        3.5780  -14.6269  -46.9456 H         1 UNK         0.3000 
    185 H185        1.3692  -13.5906  -48.1170 H         1 UNK         0.0600 
    186 H186        2.3643  -14.3976  -50.2964 H         1 UNK         0.0600 
    187 H187        3.5253  -14.4129  -48.9871 H         1 UNK         0.0600 
    188 H188        2.7908  -15.9193  -49.5228 H         1 UNK         0.0600 
    189 H189        0.2836  -15.9847  -49.4829 H         1 UNK         0.3000 
    190 H190       -1.0086  -21.0273  -45.6112 H         1 UNK         0.3000 
    191 H191       -2.5241  -21.6311  -47.8741 H         1 UNK         0.0600 
    192 H192       -3.2176  -20.2054  -45.8480 H         1 UNK         0.0600 
    193 H193       -4.4594  -21.3031  -46.4358 H         1 UNK         0.0600 
    194 H194       -3.5498  -21.7086  -44.9940 H         1 UNK         0.0600 
    195 H195       -1.7172  -23.7479  -45.1179 H         1 UNK         0.3000 
    196 H196       -3.3060  -25.9776  -45.7924 H         1 UNK         0.0600 
    197 H197       -1.6821  -27.2166  -44.3354 H         1 UNK         0.0600 
    198 H198       -2.1808  -25.6987  -43.6043 H         1 UNK         0.0600 
    199 H199       -0.5959  -25.8308  -44.3643 H         1 UNK         0.0600 
    200 H200       -0.2287  -24.8994  -47.1788 H         1 UNK         0.3000 
    201 H201        0.2065  -27.4177  -48.6609 H         1 UNK         0.0600 
    202 H202        2.1625  -26.2352  -47.6815 H         1 UNK         0.0600 
    203 H203        1.7923  -24.7951  -48.6269 H         1 UNK         0.0600 
    204 H204        2.2647  -26.2831  -49.4350 H         1 UNK         0.0600 
    205 H205       -0.6692  -23.9905  -49.2405 H         1 UNK         0.3000 
    206 H206       -0.8977  -24.1972  -52.0831 H         1 UNK         0.0600 
    207 H207       -0.4678  -22.0634  -50.8478 H         1 UNK         0.0600 
    208 H208       -1.8880  -21.9277  -51.8740 H         1 UNK         0.0600 
    209 H209       -2.0798  -22.1410  -50.1412 H         1 UNK         0.0600 
    210 H210       -3.0796  -25.0704  -49.5585 H         1 UNK         0.3000 
    211 H211       -5.1166  -25.8927  -49.3968 H         1 UNK         0.0600 
    212 H212       -5.3721  -26.0057  -52.4471 H         1 UNK         0.0600 
    213 H213       -6.3816  -26.8255  -51.2684 H         1 UNK         0.0600 
    214 H214       -4.6962  -27.2888  -51.4432 H         1 UNK         0.0600 
    215 H215       -4.6102  -23.3278  -49.0373 H         1 UNK         0.3000 
    216 H216       -5.3656  -21.2614  -48.7701 H         1 UNK         0.0600 
    217 H217       -7.1107  -22.5118  -47.5276 H         1 UNK         0.0600 
    218 H218       -8.1294  -22.5755  -48.9592 H         1 UNK         0.0600 
    219 H219       -7.7645  -21.0285  -48.1894 H         1 UNK         0.0600 
    220 H220       -8.2327  -20.8024  -50.1739 H         1 UNK         0.3000 
    221 H221       -9.1700  -19.8689  -51.8965 H         1 UNK         0.0600 
    222 H222       -7.0148  -21.2443  -53.5807 H         1 UNK         0.0600 
    223 H223       -8.5255  -21.9716  -53.0420 H         1 UNK         0.0600 
    224 H224       -8.5498  -20.6292  -54.1757 H         1 UNK         0.0600 
    225 H225       -5.7361  -19.1742  -51.8819 H         1 UNK         0.3000 
    226 H226       -4.4641  -17.4072  -52.2640 H         1 UNK         0.0600 
    227 H227       -5.3303  -15.1051  -52.4276 H         1 UNK         0.0600 
    228 H228       -6.9752  -15.6866  -52.6030 H         1 UNK         0.0600 
    229 H229       -6.0971  -15.9575  -51.0967 H         1 UNK         0.0600 
    230 H230       -7.1107  -17.6962  -54.6065 H         1 UNK         0.3000 
    231 H231       -5.7589  -16.8006  -56.9505 H         1 UNK         0.0600 
    232 H232       -7.5519  -18.1020  -58.1215 H         1 UNK         0.0600 
    233 H233       -8.2200  -17.1334  -56.8171 H         1 UNK         0.0600 
    234 H234       -7.9997  -18.8699  -56.6019 H         1 UNK         0.0600 
    235 H235       -5.3746  -19.6726  -55.0792 H         1 UNK         0.3000 
    236 H236       -4.2278  -21.5161  -56.8753 H         1 UNK         0.0600 
    237 H237       -3.7341  -21.0344  -53.8817 H         1 UNK         0.0600 
    238 H238       -3.2470  -22.4760  -54.7621 H         1 UNK         0.0600 
    239 H239       -4.9501  -22.1041  -54.5782 H         1 UNK         0.0600 
    240 H240       -2.9026  -18.5023  -55.6761 H         1 UNK         0.3000 
    241 H241       -0.1166  -19.1122  -56.1302 H         1 UNK         0.0600 
    242 H242       -1.6347  -18.2157  -59.7895 H         1 UNK         0.3800 
    243 H243       -2.7055  -18.5634  -58.4552 H         1 UNK         0.3800 
    244 H244       -1.5072  -16.3937  -56.0374 H         1 UNK         0.0800 
    245 H245        0.2111  -16.6496  -55.9930 H         1 UNK         0.0800 
    246 H246        0.4439  -19.1700  -53.7336 H         1 UNK         0.0800 
    247 H247       -1.2859  -19.4536  -53.6972 H         1 UNK         0.0800 
@<TRIPOS>BOND
     1    1    2 1    
     2    1  127 1    
     3    1  128 1    
     4    1  129 1    
     5    2    3 2    
     6    2    4 am   BACKBONE|DICT|INTERRES
     7    4    5 1    
     8    4  130 1    
     9    5    6 1    
    10    5   65 1    
    11    5  131 1    
    12    6    7 1    
    13    6  132 1    
    14    6  133 1    
    15    7    8 1    
    16    8    9 1    
    17    8  134 1    
    18    8  135 1    
    19    9   10 ar   
    20    9   14 ar   
    21   10   11 ar   
    22   10  136 1    
    23   11   12 ar   
    24   11  126 1    
    25   12   13 ar   
    26   12  137 1    
    27   13   14 ar   
    28   13   15 1    
    29   14  138 1    
    30   15   16 1    
    31   15  139 1    
    32   15  140 1    
    33   16   17 1    
    34   17   18 1    
    35   17  141 1    
    36   17  142 1    
    37   18   19 1    
    38   18   67 1    
    39   18  143 1    
    40   19   20 am   BACKBONE|DICT|INTERRES
    41   19  144 1    
    42   20   21 2    
    43   20   22 1    
    44   22   23 1    
    45   22   24 1    
    46   22  145 1    
    47   23  146 1    
    48   23  147 1    
    49   23  148 1    
    50   24   25 am   BACKBONE|DICT|INTERRES
    51   24  149 1    
    52   25   26 2    
    53   25   27 1    
    54   27   28 1    
    55   27   29 1    
    56   27  150 1    
    57   28  151 1    
    58   28  152 1    
    59   28  153 1    
    60   29   30 am   BACKBONE|DICT|INTERRES
    61   29  154 1    
    62   30   31 2    
    63   30   32 1    
    64   32   33 1    
    65   32   34 1    
    66   32  155 1    
    67   33  156 1    
    68   33  157 1    
    69   33  158 1    
    70   34   35 am   BACKBONE|DICT|INTERRES
    71   34  159 1    
    72   35   36 2    
    73   35   37 1    
    74   37   38 1    
    75   37   39 1    
    76   37  160 1    
    77   38  161 1    
    78   38  162 1    
    79   38  163 1    
    80   39   40 am   BACKBONE|DICT|INTERRES
    81   39  164 1    
    82   40   41 2    
    83   40   42 1    
    84   42   43 1    
    85   42   44 1    
    86   42  165 1    
    87   43  166 1    
    88   43  167 1    
    89   43  168 1    
    90   44   45 am   BACKBONE|DICT|INTERRES
    91   44  169 1    
    92   45   46 2    
    93   45   47 1    
    94   47   48 1    
    95   47   49 1    
    96   47  170 1    
    97   48  171 1    
    98   48  172 1    
    99   48  173 1    
   100   49   50 am   BACKBONE|DICT|INTERRES
   101   49  174 1    
   102   50   51 2    
   103   50   52 1    
   104   52   53 1    
   105   52   54 1    
   106   52  175 1    
   107   53  176 1    
   108   53  177 1    
   109   53  178 1    
   110   54   55 am   BACKBONE|DICT|INTERRES
   111   54  179 1    
   112   55   56 2    
   113   55   57 1    
   114   57   58 1    
   115   57   59 1    
   116   57  180 1    
   117   58  181 1    
   118   58  182 1    
   119   58  183 1    
   120   59   60 am   BACKBONE|DICT|INTERRES
   121   59  184 1    
   122   60   61 2    
   123   60   62 1    
   124   62   63 1    
   125   62   64 1    
   126   62  185 1    
   127   63  186 1    
   128   63  187 1    
   129   63  188 1    
   130   64   65 am   BACKBONE|DICT|INTERRES
   131   64  189 1    
   132   65   66 2    
   133   67   68 2    
   134   67   69 am   BACKBONE|DICT|INTERRES
   135   69   70 1    
   136   69  190 1    
   137   70   71 1    
   138   70   72 1    
   139   70  191 1    
   140   71  192 1    
   141   71  193 1    
   142   71  194 1    
   143   72   73 2    
   144   72   74 am   BACKBONE|DICT|INTERRES
   145   74   75 1    
   146   74  195 1    
   147   75   76 1    
   148   75   77 1    
   149   75  196 1    
   150   76  197 1    
   151   76  198 1    
   152   76  199 1    
   153   77   78 2    
   154   77   79 am   BACKBONE|DICT|INTERRES
   155   79   80 1    
   156   79  200 1    
   157   80   81 1    
   158   80   82 1    
   159   80  201 1    
   160   81  202 1    
   161   81  203 1    
   162   81  204 1    
   163   82   83 2    
   164   82   84 am   BACKBONE|DICT|INTERRES
   165   84   85 1    
   166   84  205 1    
   167   85   86 1    
   168   85   87 1    
   169   85  206 1    
   170   86  207 1    
   171   86  208 1    
   172   86  209 1    
   173   87   88 2    
   174   87   89 am   BACKBONE|DICT|INTERRES
   175   89   90 1    
   176   89  210 1    
   177   90   91 1    
   178   90   92 1    
   179   90  211 1    
   180   91  212 1    
   181   91  213 1    
   182   91  214 1    
   183   92   93 2    
   184   92   94 am   BACKBONE|DICT|INTERRES
   185   94   95 1    
   186   94  215 1    
   187   95   96 1    
   188   95   97 1    
   189   95  216 1    
   190   96  217 1    
   191   96  218 1    
   192   96  219 1    
   193   97   98 2    
   194   97   99 am   BACKBONE|DICT|INTERRES
   195   99  100 1    
   196   99  220 1    
   197  100  101 1    
   198  100  102 1    
   199  100  221 1    
   200  101  222 1    
   201  101  223 1    
   202  101  224 1    
   203  102  103 2    
   204  102  104 am   BACKBONE|DICT|INTERRES
   205  104  105 1    
   206  104  225 1    
   207  105  106 1    
   208  105  107 1    
   209  105  226 1    
   210  106  227 1    
   211  106  228 1    
   212  106  229 1    
   213  107  108 2    
   214  107  109 am   BACKBONE|DICT|INTERRES
   215  109  110 1    
   216  109  230 1    
   217  110  111 1    
   218  110  112 1    
   219  110  231 1    
   220  111  232 1    
   221  111  233 1    
   222  111  234 1    
   223  112  113 2    
   224  112  114 am   BACKBONE|DICT|INTERRES
   225  114  115 1    
   226  114  235 1    
   227  115  116 1    
   228  115  117 1    
   229  115  236 1    
   230  116  237 1    
   231  116  238 1    
   232  116  239 1    
   233  117  118 2    
   234  117  119 am   BACKBONE|DICT|INTERRES
   235  119  120 1    
   236  119  240 1    
   237  120  121 1    
   238  120  124 1    
   239  120  241 1    
   240  121  122 am   BACKBONE|DICT|INTERRES
   241  121  123 2    
   242  122  242 1    
   243  122  243 1    
   244  124  125 1    
   245  124  244 1    
   246  124  245 1    
   247  125  126 1    
   248  126  246 1    
   249  126  247 1    
@<TRIPOS>SUBSTRUCTURE
     1 UNK         1 GROUP             0       ****    0 ROOT    
