@<TRIPOS>MOLECULE
3R540
247   249    1
SMALL
USER_CHARGES


@<TRIPOS>ATOM
      1 CA         -1.9035   -9.8887  -48.6854 C.3       0 UNK        -0.1800 
      2 C          -1.9264  -11.3286  -48.1944 C.2       0 UNK         0.5000 
      3 O          -0.9335  -12.0418  -48.3344 O.2       0 UNK        -0.5000 
      4 N          -3.0476  -11.7557  -47.5997 N.am      1 UNK        -0.5000 
      5 CA         -3.2798  -13.1294  -47.1275 C.3       1 UNK         0.1400 
      6 C6         -4.7745  -13.3923  -46.8079 C.3       23 UNK        -0.0398 
      7 S7         -5.8732  -13.0864  -48.2371 S.3       23 UNK        -0.2404 
      8 C8         -6.0464  -14.7566  -48.9483 C.3       23 UNK        -0.0205 
      9 C9         -4.7044  -15.3134  -49.3955 C.ar      23 UNK        -0.0193 
     10 C10        -4.1043  -14.8475  -50.5694 C.ar      23 UNK        -0.1150 
     11 C11        -2.8394  -15.3060  -50.9482 C.ar      23 UNK        -0.0193 
     12 C12        -2.1771  -16.2381  -50.1458 C.ar      23 UNK        -0.1150 
     13 C13        -2.7764  -16.7240  -48.9827 C.ar      23 UNK        -0.0193 
     14 C14        -4.0418  -16.2637  -48.6128 C.ar      23 UNK        -0.1150 
     15 C15        -2.0530  -17.7456  -48.1286 C.3       23 UNK        -0.0205 
     16 S16        -2.5080  -19.4294  -48.6377 S.3       23 UNK        -0.2404 
     17 C17        -3.1520  -20.1458  -47.0925 C.3       23 UNK        -0.0398 
     18 CA         -2.7269  -21.6236  -46.9467 C.3       11 UNK         0.1400 
     19 N          -1.2979  -21.7935  -46.6754 N.am      11 UNK        -0.5000 
     20 C          -0.6554  -22.9663  -46.7605 C.2       10 UNK         0.5000 
     21 O          -1.1832  -23.9977  -47.1742 O.2       10 UNK        -0.5000 
     22 CA          0.8016  -23.0143  -46.2676 C.3       10 UNK         0.1400 
     23 CB          1.7738  -22.5988  -47.3805 C.3       10 UNK        -0.1800 
     24 N           1.0273  -22.1950  -45.0755 N.am      10 UNK        -0.5000 
     25 C           0.4643  -22.4330  -43.8820 C.2       9 UNK         0.5000 
     26 O          -0.2790  -23.3867  -43.6567 O.2       9 UNK        -0.5000 
     27 CA          0.7417  -21.4200  -42.7578 C.3       9 UNK         0.1400 
     28 CB          2.1127  -21.6816  -42.1171 C.3       9 UNK        -0.1800 
     29 N           0.6626  -20.0314  -43.2096 N.am      9 UNK        -0.5000 
     30 C          -0.4429  -19.4455  -43.6921 C.2       8 UNK         0.5000 
     31 O          -1.5356  -20.0061  -43.7778 O.2       8 UNK        -0.5000 
     32 CA         -0.2857  -18.0106  -44.2285 C.3       8 UNK         0.1400 
     33 CB         -0.2300  -16.9953  -43.0780 C.3       8 UNK        -0.1800 
     34 N           0.8940  -17.8551  -45.0807 N.am      8 UNK        -0.5000 
     35 C           1.1148  -18.5534  -46.2044 C.2       7 UNK         0.5000 
     36 O           0.3354  -19.3895  -46.6579 O.2       7 UNK        -0.5000 
     37 CA          2.4614  -18.3221  -46.9053 C.3       7 UNK         0.1400 
     38 CB          2.4549  -17.0031  -47.6935 C.3       7 UNK        -0.1800 
     39 N           3.5698  -18.3351  -45.9506 N.am      7 UNK        -0.5000 
     40 C           3.9721  -19.4264  -45.2819 C.2       6 UNK         0.5000 
     41 O           3.4805  -20.5440  -45.4345 O.2       6 UNK        -0.5000 
     42 CA          5.0811  -19.2258  -44.2343 C.3       6 UNK         0.1400 
     43 CB          6.4652  -19.2308  -44.9004 C.3       6 UNK        -0.1800 
     44 N           4.9132  -17.9891  -43.4710 N.am      6 UNK        -0.5000 
     45 C           3.8945  -17.7452  -42.6339 C.2       5 UNK         0.5000 
     46 O           2.9996  -18.5525  -42.3896 O.2       5 UNK        -0.5000 
     47 CA          3.8437  -16.3436  -42.0018 C.3       5 UNK         0.1400 
     48 CB          4.6740  -16.3014  -40.7105 C.3       5 UNK        -0.1800 
     49 N           4.3050  -15.2944  -42.9141 N.am      5 UNK        -0.5000 
     50 C           3.6794  -14.9530  -44.0470 C.2       4 UNK         0.5000 
     51 O           2.6466  -15.4936  -44.4546 O.2       4 UNK        -0.5000 
     52 CA          4.3330  -13.8478  -44.8818 C.3       4 UNK         0.1400 
     53 CB          5.1918  -14.4420  -46.0102 C.3       4 UNK        -0.1800 
     54 N           3.2694  -13.0296  -45.4445 N.am      4 UNK        -0.5000 
     55 C           3.3242  -11.7071  -45.6336 C.2       3 UNK         0.5000 
     56 O           4.3422  -11.0336  -45.4672 O.2       3 UNK        -0.5000 
     57 CA          2.0166  -11.0100  -46.0611 C.3       3 UNK         0.1400 
     58 CB          1.9989  -10.7995  -47.5825 C.3       3 UNK        -0.1800 
     59 N           0.8024  -11.7274  -45.6510 N.am      3 UNK        -0.5000 
     60 C           0.4139  -11.9001  -44.3764 C.2       2 UNK         0.5000 
     61 O           1.0295  -11.4357  -43.4157 O.2       2 UNK        -0.5000 
     62 CA         -0.8670  -12.7222  -44.1374 C.3       2 UNK         0.1400 
     63 CB         -1.5707  -12.3670  -42.8150 C.3       2 UNK        -0.1800 
     64 N          -1.8062  -12.5499  -45.2429 N.am      2 UNK        -0.5000 
     65 C          -2.3884  -13.5382  -45.9328 C.2       1 UNK         0.5000 
     66 O          -2.2415  -14.7325  -45.6707 O.2       1 UNK        -0.5000 
     67 C          -3.5931  -22.3460  -45.8982 C.2       11 UNK         0.5000 
     68 O          -4.5151  -23.0655  -46.2842 O.2       11 UNK        -0.5000 
     69 N          -3.2777  -22.1584  -44.6090 N.am      12 UNK        -0.5000 
     70 CA         -3.9973  -22.7542  -43.4811 C.3       12 UNK         0.1400 
     71 CB         -3.4854  -22.1427  -42.1682 C.3       12 UNK        -0.1800 
     72 C          -3.9057  -24.2904  -43.4322 C.2       12 UNK         0.5000 
     73 O          -4.8963  -24.9440  -43.1027 O.2       12 UNK        -0.5000 
     74 N          -2.7337  -24.8351  -43.7744 N.am      13 UNK        -0.5000 
     75 CA         -2.4478  -26.2629  -43.8204 C.3       13 UNK         0.1400 
     76 CB         -1.6201  -26.6409  -42.5779 C.3       13 UNK        -0.1800 
     77 C          -1.7155  -26.5794  -45.1401 C.2       13 UNK         0.5000 
     78 O          -0.4878  -26.6685  -45.1392 O.2       13 UNK        -0.5000 
     79 N          -2.4136  -26.7273  -46.2747 N.am      14 UNK        -0.5000 
     80 CA         -3.8625  -26.6471  -46.4736 C.3       14 UNK         0.1400 
     81 CB         -4.5135  -28.0069  -46.1389 C.3       14 UNK        -0.1800 
     82 C          -4.1789  -26.1933  -47.9133 C.2       14 UNK         0.5000 
     83 O          -5.1546  -26.6641  -48.5002 O.2       14 UNK        -0.5000 
     84 N          -3.3367  -25.3181  -48.4838 N.am      15 UNK        -0.5000 
     85 CA         -3.4396  -24.8610  -49.8736 C.3       15 UNK         0.1400 
     86 CB         -2.1441  -24.1378  -50.2706 C.3       15 UNK        -0.1800 
     87 C          -4.6573  -23.9611  -50.1570 C.2       15 UNK         0.5000 
     88 O          -5.0981  -23.8989  -51.3045 O.2       15 UNK        -0.5000 
     89 N          -5.1620  -23.2644  -49.1257 N.am      16 UNK        -0.5000 
     90 CA         -6.3498  -22.3977  -49.1232 C.3       16 UNK         0.1400 
     91 CB         -7.6202  -23.2671  -49.2175 C.3       16 UNK        -0.1800 
     92 C          -6.3423  -21.2650  -50.1779 C.2       16 UNK         0.5000 
     93 O          -7.4109  -20.7777  -50.5495 O.2       16 UNK        -0.5000 
     94 N          -5.1463  -20.8899  -50.6597 N.am      17 UNK        -0.5000 
     95 CA         -4.8736  -19.9681  -51.7709 C.3       17 UNK         0.1400 
     96 CB         -5.3597  -18.5425  -51.4356 C.3       17 UNK        -0.1800 
     97 C          -5.4014  -20.4598  -53.1412 C.2       17 UNK         0.5000 
     98 O          -5.4695  -19.6704  -54.0856 O.2       17 UNK        -0.5000 
     99 N          -5.7641  -21.7465  -53.2482 N.am      18 UNK        -0.5000 
    100 CA        -6.4125  -22.3541  -54.4097 C.3       18 UNK         0.1400 
    101 CB        -7.2822  -23.5300  -53.9295 C.3       18 UNK        -0.1800 
    102 C         -5.3784  -22.7714  -55.4710 C.2       18 UNK         0.5000 
    103 O         -5.1572  -23.9640  -55.6884 O.2       18 UNK        -0.5000 
    104 N         -4.7430  -21.7655  -56.0896 N.am      19 UNK        -0.5000 
    105 CA        -3.6810  -21.8698  -57.1021 C.3       19 UNK         0.1400 
    106 CB        -4.2034  -22.5413  -58.3896 C.3       19 UNK        -0.1800 
    107 C         -2.3836  -22.5199  -56.5695 C.2       19 UNK         0.5000 
    108 O         -1.5929  -23.0612  -57.3441 O.2       19 UNK        -0.5000 
    109 N         -2.1819  -22.4287  -55.2530 N.am      20 UNK        -0.5000 
    110 CA        -1.0196  -22.8808  -54.5046 C.3       20 UNK         0.1400 
    111 CB        -1.2128  -24.3450  -54.0785 C.3       20 UNK        -0.1800 
    112 C         -0.8803  -21.9480  -53.2954 C.2       20 UNK         0.5000 
    113 O         -1.8830  -21.3743  -52.8586 O.2       20 UNK        -0.5000 
    114 N          0.3559  -21.7731  -52.8081 N.am      21 UNK        -0.5000 
    115 CA         0.8013  -20.8634  -51.7365 C.3       21 UNK         0.1400 
    116 CB         0.1150  -21.1844  -50.3965 C.3       21 UNK        -0.1800 
    117 C          0.6884  -19.3633  -52.0891 C.2       21 UNK         0.5000 
    118 O          1.6319  -18.6110  -51.8456 O.2       21 UNK        -0.5000 
    119 N         -0.4353  -18.9679  -52.6956 N.am      22 UNK        -0.5000 
    120 CA        -0.6770  -17.6498  -53.3006 C.3       22 UNK         0.1400 
    121 C          0.0490  -17.4413  -54.6657 C.2       22 UNK         0.5000 
    122 N          0.5168  -18.4877  -55.3370 N.am      22 UNK        -0.7600 
    123 O          0.2210  -16.3115  -55.1133 O.2       22 UNK        -0.5000 
    124 C124       -2.2046  -17.3901  -53.3922 C.3       23 UNK        -0.0398 
    125 S125       -2.7135  -15.6619  -53.7086 S.3       23 UNK        -0.2404 
    126 C126       -2.1744  -14.7778  -52.2088 C.3       23 UNK        -0.0205 
    127 H127       -1.1912   -9.3044  -48.1033 H         1 UNK         0.0600 
    128 H128       -2.8826   -9.4167  -48.6000 H         1 UNK         0.0600 
    129 H129       -1.6008   -9.8544  -49.7319 H         1 UNK         0.0600 
    130 H130       -3.8367  -11.1298  -47.5197 H         1 UNK         0.3000 
    131 H131       -2.9842  -13.7866  -47.9452 H         1 UNK         0.0600 
    132 H132       -4.9249  -14.4168  -46.4630 H         1 UNK         0.0800 
    133 H133       -5.1026  -12.7508  -45.9884 H         1 UNK         0.0800 
    134 H134       -6.7234  -14.7119  -49.8026 H         1 UNK         0.0800 
    135 H135       -6.5175  -15.4169  -48.2185 H         1 UNK         0.0800 
    136 H136       -4.6131  -14.1117  -51.1763 H         1 UNK         0.1150 
    137 H137       -1.1971  -16.5950  -50.4286 H         1 UNK         0.1150 
    138 H138       -4.4997  -16.6328  -47.7060 H         1 UNK         0.1150 
    139 H139       -0.9749  -17.6242  -48.2365 H         1 UNK         0.0800 
    140 H140       -2.2744  -17.5682  -47.0760 H         1 UNK         0.0800 
    141 H141       -4.2388  -20.0482  -47.1246 H         1 UNK         0.0800 
    142 H142       -2.8138  -19.5713  -46.2293 H         1 UNK         0.0800 
    143 H143       -2.9306  -22.1122  -47.8996 H         1 UNK         0.0600 
    144 H144       -0.7750  -20.9619  -46.4138 H         1 UNK         0.3000 
    145 H145        1.0193  -24.0511  -46.0018 H         1 UNK         0.0600 
    146 H146        2.8094  -22.7219  -47.0638 H         1 UNK         0.0600 
    147 H147        1.6325  -23.2121  -48.2709 H         1 UNK         0.0600 
    148 H148        1.6348  -21.5572  -47.6689 H         1 UNK         0.0600 
    149 H149        1.6590  -21.4075  -45.1784 H         1 UNK         0.3000 
    150 H150       -0.0215  -21.5608  -41.9900 H         1 UNK         0.0600 
    151 H151        2.2752  -21.0323  -41.2567 H         1 UNK         0.0600 
    152 H152        2.1908  -22.7115  -41.7667 H         1 UNK         0.0600 
    153 H153        2.9261  -21.5109  -42.8230 H         1 UNK         0.0600 
    154 H154        1.5155  -19.4832  -43.1336 H         1 UNK         0.3000 
    155 H155       -1.1628  -17.7840  -44.8378 H         1 UNK         0.0600 
    156 H156        0.6239  -17.1704  -42.4240 H         1 UNK         0.0600 
    157 H157       -1.1309  -17.0505  -42.4659 H         1 UNK         0.0600 
    158 H158       -0.1556  -15.9774  -43.4577 H         1 UNK         0.0600 
    159 H159        1.5800  -17.1659  -44.7896 H         1 UNK         0.3000 
    160 H160        2.6141  -19.1380  -47.6152 H         1 UNK         0.0600 
    161 H161        2.2946  -16.1406  -47.0463 H         1 UNK         0.0600 
    162 H162        1.6594  -17.0029  -48.4401 H         1 UNK         0.0600 
    163 H163        3.3958  -16.8560  -48.2237 H         1 UNK         0.0600 
    164 H164        3.9947  -17.4473  -45.7316 H         1 UNK         0.3000 
    165 H165        5.0346  -20.0638  -43.5356 H         1 UNK         0.0600 
    166 H166        7.2603  -19.1677  -44.1573 H         1 UNK         0.0600 
    167 H167        6.6222  -20.1506  -45.4653 H         1 UNK         0.0600 
    168 H168        6.5845  -18.3960  -45.5922 H         1 UNK         0.0600 
    169 H169        5.6057  -17.2684  -43.6089 H         1 UNK         0.3000 
    170 H170        2.8034  -16.1335  -41.7449 H         1 UNK         0.0600 
    171 H171        4.3370  -17.0627  -40.0055 H         1 UNK         0.0600 
    172 H172        5.7325  -16.4789  -40.9042 H         1 UNK         0.0600 
    173 H173        4.5803  -15.3360  -40.2128 H         1 UNK         0.0600 
    174 H174        5.1479  -14.8052  -42.6486 H         1 UNK         0.3000 
    175 H175        4.9622  -13.2410  -44.2270 H         1 UNK         0.0600 
    176 H176        4.5962  -15.0453  -46.6957 H         1 UNK         0.0600 
    177 H177        5.6728  -13.6555  -46.5921 H         1 UNK         0.0600 
    178 H178        5.9814  -15.0785  -45.6094 H         1 UNK         0.0600 
    179 H179        2.3875  -13.5101  -45.5644 H         1 UNK         0.3000 
    180 H180        2.0028  -10.0279  -45.5839 H         1 UNK         0.0600 
    181 H181        1.9473  -11.7477  -48.1190 H         1 UNK         0.0600 
    182 H182        2.8974  -10.2800  -47.9181 H         1 UNK         0.0600 
    183 H183        1.1459  -10.1939  -47.8866 H         1 UNK         0.0600 
    184 H184        0.2410  -12.1233  -46.3956 H         1 UNK         0.3000 
    185 H185       -0.5418  -13.7616  -44.0791 H         1 UNK         0.0600 
    186 H186       -0.9161  -12.5412  -41.9603 H         1 UNK         0.0600 
    187 H187       -1.8754  -11.3202  -42.7916 H         1 UNK         0.0600 
    188 H188       -2.4609  -12.9789  -42.6679 H         1 UNK         0.0600 
    189 H189       -1.9760  -11.5989  -45.5395 H         1 UNK         0.3000 
    190 H190       -2.5192  -21.5228  -44.3734 H         1 UNK         0.3000 
    191 H191       -5.0519  -22.4918  -43.5874 H         1 UNK         0.0600 
    192 H192       -3.6282  -21.0621  -42.1542 H         1 UNK         0.0600 
    193 H193       -4.0197  -22.5528  -41.3103 H         1 UNK         0.0600 
    194 H194       -2.4236  -22.3419  -42.0206 H         1 UNK         0.0600 
    195 H195       -1.9474  -24.2256  -43.9898 H         1 UNK         0.3000 
    196 H196       -3.3681  -26.8436  -43.7811 H         1 UNK         0.0600 
    197 H197       -1.3502  -27.6974  -42.5948 H         1 UNK         0.0600 
    198 H198       -2.1844  -26.4633  -41.6623 H         1 UNK         0.0600 
    199 H199       -0.6966  -26.0634  -42.5160 H         1 UNK         0.0600 
    200 H200       -1.8903  -26.8889  -47.1233 H         1 UNK         0.3000 
    201 H201       -4.2866  -25.8826  -45.8237 H         1 UNK         0.0600 
    202 H202       -4.2745  -28.3501  -45.1340 H         1 UNK         0.0600 
    203 H203       -4.1883  -28.7825  -46.8334 H         1 UNK         0.0600 
    204 H204       -5.6005  -27.9452  -46.2027 H         1 UNK         0.0600 
    205 H205       -2.5622  -24.9408  -47.9389 H         1 UNK         0.3000 
    206 H206       -3.5380  -25.7434  -50.5094 H         1 UNK         0.0600 
    207 H207       -1.2763  -24.7889  -50.1660 H         1 UNK         0.0600 
    208 H208       -2.1840  -23.8104  -51.3081 H         1 UNK         0.0600 
    209 H209       -1.9728  -23.2507  -49.6634 H         1 UNK         0.0600 
    210 H210       -4.7475  -23.4081  -48.2100 H         1 UNK         0.3000 
    211 H211       -6.3598  -21.9013  -48.1520 H         1 UNK         0.0600 
    212 H212       -7.7048  -23.7495  -50.1921 H         1 UNK         0.0600 
    213 H213       -8.5208  -22.6709  -49.0664 H         1 UNK         0.0600 
    214 H214       -7.6197  -24.0479  -48.4567 H         1 UNK         0.0600 
    215 H215       -4.3330  -21.3595  -50.2897 H         1 UNK         0.3000 
    216 H216       -3.7887  -19.9239  -51.8610 H         1 UNK         0.0600 
    217 H217       -5.0348  -17.8236  -52.1880 H         1 UNK         0.0600 
    218 H218       -4.9594  -18.2103  -50.4789 H         1 UNK         0.0600 
    219 H219       -6.4465  -18.4814  -51.3838 H         1 UNK         0.0600 
    220 H220       -5.6042  -22.3662  -52.4590 H         1 UNK         0.3000 
    221 H221       -7.0798  -21.6222  -54.8699 H         1 UNK         0.0600 
    222 H222       -6.6836  -24.3124  -53.4618 H         1 UNK         0.0600 
    223 H223       -8.0241  -23.1993  -53.2023 H         1 UNK         0.0600 
    224 H224       -7.8213  -23.9824  -54.7626 H         1 UNK         0.0600 
    225 H225       -4.9725  -20.8249  -55.7851 H         1 UNK         0.3000 
    226 H226       -3.4128  -20.8438  -57.3577 H         1 UNK         0.0600 
    227 H227       -5.1152  -22.0603  -58.7436 H         1 UNK         0.0600 
    228 H228       -3.4691  -22.4711  -59.1928 H         1 UNK         0.0600 
    229 H229       -4.4184  -23.5993  -58.2380 H         1 UNK         0.0600 
    230 H230       -2.8607  -21.9353  -54.6871 H         1 UNK         0.3000 
    231 H231       -0.1236  -22.7896  -55.1221 H         1 UNK         0.0600 
    232 H232       -2.1548  -24.4878  -53.5480 H         1 UNK         0.0600 
    233 H233       -0.4067  -24.6770  -53.4232 H         1 UNK         0.0600 
    234 H234       -1.2210  -25.0053  -54.9457 H         1 UNK         0.0600 
    235 H235        1.1060  -22.2831  -53.2541 H         1 UNK         0.3000 
    236 H236        1.8657  -21.0650  -51.6051 H         1 UNK         0.0600 
    237 H237       -0.9653  -21.0639  -50.4537 H         1 UNK         0.0600 
    238 H238        0.3175  -22.2093  -50.0883 H         1 UNK         0.0600 
    239 H239        0.4716  -20.5259  -49.6032 H         1 UNK         0.0600 
    240 H240       -1.1535  -19.6746  -52.8290 H         1 UNK         0.3000 
    241 H241       -0.2491  -16.9129  -52.6211 H         1 UNK         0.0600 
    242 H242        0.4125  -19.4207  -54.9762 H         1 UNK         0.3800 
    243 H243        0.9966  -18.3378  -56.2109 H         1 UNK         0.3800 
    244 H244       -2.6461  -18.0195  -54.1668 H         1 UNK         0.0800 
    245 H245       -2.6823  -17.7026  -52.4642 H         1 UNK         0.0800 
    246 H246       -2.4138  -13.7199  -52.3259 H         1 UNK         0.0800 
    247 H247       -1.0886  -14.8250  -52.1194 H         1 UNK         0.0800 
@<TRIPOS>BOND
     1    1    2 1    
     2    1  127 1    
     3    1  128 1    
     4    1  129 1    
     5    2    3 2    
     6    2    4 am   BACKBONE|DICT|INTERRES
     7    4    5 1    
     8    4  130 1    
     9    5    6 1    
    10    5   65 1    
    11    5  131 1    
    12    6    7 1    
    13    6  132 1    
    14    6  133 1    
    15    7    8 1    
    16    8    9 1    
    17    8  134 1    
    18    8  135 1    
    19    9   10 ar   
    20    9   14 ar   
    21   10   11 ar   
    22   10  136 1    
    23   11   12 ar   
    24   11  126 1    
    25   12   13 ar   
    26   12  137 1    
    27   13   14 ar   
    28   13   15 1    
    29   14  138 1    
    30   15   16 1    
    31   15  139 1    
    32   15  140 1    
    33   16   17 1    
    34   17   18 1    
    35   17  141 1    
    36   17  142 1    
    37   18   19 1    
    38   18   67 1    
    39   18  143 1    
    40   19   20 am   BACKBONE|DICT|INTERRES
    41   19  144 1    
    42   20   21 2    
    43   20   22 1    
    44   22   23 1    
    45   22   24 1    
    46   22  145 1    
    47   23  146 1    
    48   23  147 1    
    49   23  148 1    
    50   24   25 am   BACKBONE|DICT|INTERRES
    51   24  149 1    
    52   25   26 2    
    53   25   27 1    
    54   27   28 1    
    55   27   29 1    
    56   27  150 1    
    57   28  151 1    
    58   28  152 1    
    59   28  153 1    
    60   29   30 am   BACKBONE|DICT|INTERRES
    61   29  154 1    
    62   30   31 2    
    63   30   32 1    
    64   32   33 1    
    65   32   34 1    
    66   32  155 1    
    67   33  156 1    
    68   33  157 1    
    69   33  158 1    
    70   34   35 am   BACKBONE|DICT|INTERRES
    71   34  159 1    
    72   35   36 2    
    73   35   37 1    
    74   37   38 1    
    75   37   39 1    
    76   37  160 1    
    77   38  161 1    
    78   38  162 1    
    79   38  163 1    
    80   39   40 am   BACKBONE|DICT|INTERRES
    81   39  164 1    
    82   40   41 2    
    83   40   42 1    
    84   42   43 1    
    85   42   44 1    
    86   42  165 1    
    87   43  166 1    
    88   43  167 1    
    89   43  168 1    
    90   44   45 am   BACKBONE|DICT|INTERRES
    91   44  169 1    
    92   45   46 2    
    93   45   47 1    
    94   47   48 1    
    95   47   49 1    
    96   47  170 1    
    97   48  171 1    
    98   48  172 1    
    99   48  173 1    
   100   49   50 am   BACKBONE|DICT|INTERRES
   101   49  174 1    
   102   50   51 2    
   103   50   52 1    
   104   52   53 1    
   105   52   54 1    
   106   52  175 1    
   107   53  176 1    
   108   53  177 1    
   109   53  178 1    
   110   54   55 am   BACKBONE|DICT|INTERRES
   111   54  179 1    
   112   55   56 2    
   113   55   57 1    
   114   57   58 1    
   115   57   59 1    
   116   57  180 1    
   117   58  181 1    
   118   58  182 1    
   119   58  183 1    
   120   59   60 am   BACKBONE|DICT|INTERRES
   121   59  184 1    
   122   60   61 2    
   123   60   62 1    
   124   62   63 1    
   125   62   64 1    
   126   62  185 1    
   127   63  186 1    
   128   63  187 1    
   129   63  188 1    
   130   64   65 am   BACKBONE|DICT|INTERRES
   131   64  189 1    
   132   65   66 2    
   133   67   68 2    
   134   67   69 am   BACKBONE|DICT|INTERRES
   135   69   70 1    
   136   69  190 1    
   137   70   71 1    
   138   70   72 1    
   139   70  191 1    
   140   71  192 1    
   141   71  193 1    
   142   71  194 1    
   143   72   73 2    
   144   72   74 am   BACKBONE|DICT|INTERRES
   145   74   75 1    
   146   74  195 1    
   147   75   76 1    
   148   75   77 1    
   149   75  196 1    
   150   76  197 1    
   151   76  198 1    
   152   76  199 1    
   153   77   78 2    
   154   77   79 am   BACKBONE|DICT|INTERRES
   155   79   80 1    
   156   79  200 1    
   157   80   81 1    
   158   80   82 1    
   159   80  201 1    
   160   81  202 1    
   161   81  203 1    
   162   81  204 1    
   163   82   83 2    
   164   82   84 am   BACKBONE|DICT|INTERRES
   165   84   85 1    
   166   84  205 1    
   167   85   86 1    
   168   85   87 1    
   169   85  206 1    
   170   86  207 1    
   171   86  208 1    
   172   86  209 1    
   173   87   88 2    
   174   87   89 am   BACKBONE|DICT|INTERRES
   175   89   90 1    
   176   89  210 1    
   177   90   91 1    
   178   90   92 1    
   179   90  211 1    
   180   91  212 1    
   181   91  213 1    
   182   91  214 1    
   183   92   93 2    
   184   92   94 am   BACKBONE|DICT|INTERRES
   185   94   95 1    
   186   94  215 1    
   187   95   96 1    
   188   95   97 1    
   189   95  216 1    
   190   96  217 1    
   191   96  218 1    
   192   96  219 1    
   193   97   98 2    
   194   97   99 am   BACKBONE|DICT|INTERRES
   195   99  100 1    
   196   99  220 1    
   197  100  101 1    
   198  100  102 1    
   199  100  221 1    
   200  101  222 1    
   201  101  223 1    
   202  101  224 1    
   203  102  103 2    
   204  102  104 am   BACKBONE|DICT|INTERRES
   205  104  105 1    
   206  104  225 1    
   207  105  106 1    
   208  105  107 1    
   209  105  226 1    
   210  106  227 1    
   211  106  228 1    
   212  106  229 1    
   213  107  108 2    
   214  107  109 am   BACKBONE|DICT|INTERRES
   215  109  110 1    
   216  109  230 1    
   217  110  111 1    
   218  110  112 1    
   219  110  231 1    
   220  111  232 1    
   221  111  233 1    
   222  111  234 1    
   223  112  113 2    
   224  112  114 am   BACKBONE|DICT|INTERRES
   225  114  115 1    
   226  114  235 1    
   227  115  116 1    
   228  115  117 1    
   229  115  236 1    
   230  116  237 1    
   231  116  238 1    
   232  116  239 1    
   233  117  118 2    
   234  117  119 am   BACKBONE|DICT|INTERRES
   235  119  120 1    
   236  119  240 1    
   237  120  121 1    
   238  120  124 1    
   239  120  241 1    
   240  121  122 am   BACKBONE|DICT|INTERRES
   241  121  123 2    
   242  122  242 1    
   243  122  243 1    
   244  124  125 1    
   245  124  244 1    
   246  124  245 1    
   247  125  126 1    
   248  126  246 1    
   249  126  247 1    
@<TRIPOS>SUBSTRUCTURE
     1 UNK         1 GROUP             0       ****    0 ROOT    
