@<TRIPOS>MOLECULE
3R540
247   249    1
SMALL
USER_CHARGES


@<TRIPOS>ATOM
      1 CA          6.7123  -18.5043  -48.1789 C.3       0 UNK        -0.1800 
      2 C           6.0347  -17.5368  -47.2192 C.2       0 UNK         0.5000 
      3 O           6.3635  -17.5184  -46.0332 O.2       0 UNK        -0.5000 
      4 N           5.0829  -16.7444  -47.7266 N.am      1 UNK        -0.5000 
      5 CA          4.3577  -15.7093  -46.9862 C.3       1 UNK         0.1400 
      6 C6          3.0637  -15.2381  -47.7166 C.3       23 UNK        -0.0398 
      7 S7          3.1987  -15.0942  -49.5375 S.3       23 UNK        -0.2404 
      8 C8          2.3249  -16.5978  -50.0973 C.3       23 UNK        -0.0205 
      9 C9          0.9222  -16.2995  -50.6139 C.ar      23 UNK        -0.0193 
     10 C10         0.6348  -16.4326  -51.9773 C.ar      23 UNK        -0.1150 
     11 C11        -0.6518  -16.1883  -52.4697 C.ar      23 UNK        -0.0193 
     12 C12        -1.6516  -15.7857  -51.5776 C.ar      23 UNK        -0.1150 
     13 C13        -1.3859  -15.6643  -50.2117 C.ar      23 UNK        -0.0193 
     14 C14        -0.0964  -15.9200  -49.7341 C.ar      23 UNK        -0.1150 
     15 C15        -2.5043  -15.2615  -49.2635 C.3       23 UNK        -0.0205 
     16 S16        -3.4539  -16.7103  -48.6961 S.3       23 UNK        -0.2404 
     17 C17        -2.3403  -17.3946  -47.4246 C.3       23 UNK        -0.0398 
     18 CA         -1.5803  -18.6655  -47.8780 C.3       11 UNK         0.1400 
     19 N          -0.3806  -18.9005  -47.0731 N.am      11 UNK        -0.5000 
     20 C           0.5297  -19.8581  -47.2979 C.2       10 UNK         0.5000 
     21 O           0.4892  -20.6343  -48.2499 O.2       10 UNK        -0.5000 
     22 CA          1.6537  -20.0077  -46.2606 C.3       10 UNK         0.1400 
     23 CB          2.7675  -18.9893  -46.5230 C.3       10 UNK        -0.1800 
     24 N           1.1773  -19.8776  -44.8836 N.am      10 UNK        -0.5000 
     25 C           0.3222  -20.7314  -44.3019 C.2       9 UNK         0.5000 
     26 O          -0.1501  -21.7191  -44.8662 O.2       9 UNK        -0.5000 
     27 CA         -0.1041  -20.4113  -42.8593 C.3       9 UNK         0.1400 
     28 CB          1.0210  -20.7520  -41.8704 C.3       9 UNK        -0.1800 
     29 N          -0.5040  -19.0159  -42.6848 N.am      9 UNK        -0.5000 
     30 C          -1.5493  -18.4395  -43.2954 C.2       8 UNK         0.5000 
     31 O          -2.3079  -19.0287  -44.0677 O.2       8 UNK        -0.5000 
     32 CA         -1.7442  -16.9317  -43.0430 C.3       8 UNK         0.1400 
     33 CB         -2.3548  -16.6787  -41.6568 C.3       8 UNK        -0.1800 
     34 N          -0.5058  -16.1613  -43.1858 N.am      8 UNK        -0.5000 
     35 C           0.2319  -16.1284  -44.3038 C.2       7 UNK         0.5000 
     36 O          -0.0368  -16.7500  -45.3272 O.2       7 UNK        -0.5000 
     37 CA          1.5183  -15.3004  -44.2749 C.3       7 UNK         0.1400 
     38 CB          1.2106  -13.8075  -44.4385 C.3       7 UNK        -0.1800 
     39 N           2.3332  -15.5632  -43.0901 N.am      7 UNK        -0.5000 
     40 C           2.8696  -16.7616  -42.8093 C.2       6 UNK         0.5000 
     41 O           2.8157  -17.7312  -43.5655 O.2       6 UNK        -0.5000 
     42 CA          3.5155  -16.9230  -41.4248 C.3       6 UNK         0.1400 
     43 CB          4.9399  -16.3467  -41.4062 C.3       6 UNK        -0.1800 
     44 N           2.7024  -16.3074  -40.3750 N.am      6 UNK        -0.5000 
     45 C           1.4885  -16.7504  -40.0115 C.2       5 UNK         0.5000 
     46 O           0.9533  -17.7484  -40.4939 O.2       5 UNK        -0.5000 
     47 CA          0.7242  -15.9292  -38.9574 C.3       5 UNK         0.1400 
     48 CB          1.0192  -16.4590  -37.5464 C.3       5 UNK        -0.1800 
     49 N           1.0216  -14.4979  -39.0061 N.am      5 UNK        -0.5000 
     50 C           0.7288  -13.6819  -40.0279 C.2       4 UNK         0.5000 
     51 O           0.1531  -14.0588  -41.0520 O.2       4 UNK        -0.5000 
     52 CA          1.1499  -12.1994  -39.8837 C.3       4 UNK         0.1400 
     53 CB          2.0447  -11.9192  -38.6545 C.3       4 UNK        -0.1800 
     54 N           1.7903  -11.6464  -41.0832 N.am      4 UNK        -0.5000 
     55 C           2.8316  -12.1555  -41.7572 C.2       3 UNK         0.5000 
     56 O           3.3294  -13.2568  -41.5144 O.2       3 UNK        -0.5000 
     57 CA          3.3687  -11.2776  -42.9096 C.3       3 UNK         0.1400 
     58 CB          3.9972   -9.9722  -42.3784 C.3       3 UNK        -0.1800 
     59 N           4.2913  -11.9750  -43.8185 N.am      3 UNK        -0.5000 
     60 C           5.5250  -12.4379  -43.5671 C.2       2 UNK         0.5000 
     61 O           6.1146  -12.3042  -42.4935 O.2       2 UNK        -0.5000 
     62 CA          6.2013  -13.1826  -44.7330 C.3       2 UNK         0.1400 
     63 CB          7.5082  -13.8917  -44.3240 C.3       2 UNK        -0.1800 
     64 N           5.2798  -14.1553  -45.3242 N.am      2 UNK        -0.5000 
     65 C           5.2960  -14.5426  -46.6069 C.2       1 UNK         0.5000 
     66 O           6.0206  -14.0366  -47.4669 O.2       1 UNK        -0.5000 
     67 C          -2.4951  -19.9035  -47.8897 C.2       11 UNK         0.5000 
     68 O          -2.8693  -20.3601  -48.9673 O.2       11 UNK        -0.5000 
     69 N          -2.7861  -20.4597  -46.7035 N.am      12 UNK        -0.5000 
     70 CA         -3.5887  -21.6728  -46.5368 C.3       12 UNK         0.1400 
     71 CB         -3.8342  -21.9247  -45.0418 C.3       12 UNK        -0.1800 
     72 C          -2.9592  -22.9088  -47.2063 C.2       12 UNK         0.5000 
     73 O          -3.6631  -23.6509  -47.8951 O.2       12 UNK        -0.5000 
     74 N          -1.6429  -23.0841  -47.0213 N.am      13 UNK        -0.5000 
     75 CA         -0.8540  -24.1579  -47.6255 C.3       13 UNK         0.1400 
     76 CB          0.5613  -24.1559  -47.0284 C.3       13 UNK        -0.1800 
     77 C          -0.7996  -24.0704  -49.1614 C.2       13 UNK         0.5000 
     78 O          -0.9569  -25.0923  -49.8303 O.2       13 UNK        -0.5000 
     79 N          -0.6017  -22.8549  -49.6902 N.am      14 UNK        -0.5000 
     80 CA         -0.5953  -22.5650  -51.1233 C.3       14 UNK         0.1400 
     81 CB         -0.0544  -21.1460  -51.3581 C.3       14 UNK        -0.1800 
     82 C          -1.9839  -22.7247  -51.7643 C.2       14 UNK         0.5000 
     83 O          -2.0786  -23.2280  -52.8830 O.2       14 UNK        -0.5000 
     84 N          -3.0308  -22.2864  -51.0522 N.am      15 UNK        -0.5000 
     85 CA         -4.4223  -22.3553  -51.4894 C.3       15 UNK         0.1400 
     86 CB         -5.2920  -21.4775  -50.5773 C.3       15 UNK        -0.1800 
     87 C          -4.9795  -23.7816  -51.5416 C.2       15 UNK         0.5000 
     88 O          -5.7896  -24.0673  -52.4239 O.2       15 UNK        -0.5000 
     89 N          -4.5612  -24.6311  -50.5910 N.am      16 UNK        -0.5000 
     90 CA         -4.9818  -26.0256  -50.4184 C.3       16 UNK         0.1400 
     91 CB         -4.4534  -26.8945  -51.5794 C.3       16 UNK        -0.1800 
     92 C          -6.5088  -26.1348  -50.2267 C.2       16 UNK         0.5000 
     93 O          -7.1835  -26.8398  -50.9775 O.2       16 UNK        -0.5000 
     94 N          -7.0288  -25.3635  -49.2589 N.am      17 UNK        -0.5000 
     95 CA         -8.4571  -25.1620  -48.9708 C.3       17 UNK         0.1400 
     96 CB         -9.1159  -26.4666  -48.4744 C.3       17 UNK        -0.1800 
     97 C          -9.2131  -24.5081  -50.1507 C.2       17 UNK         0.5000 
     98 O         -10.3634  -24.8526  -50.4247 O.2       17 UNK        -0.5000 
     99 N          -8.5240  -23.5780  -50.8286 N.am      18 UNK        -0.5000 
    100 CA        -8.9414  -22.7980  -52.0010 C.3       18 UNK         0.1400 
    101 CB       -10.1997  -21.9585  -51.6989 C.3       18 UNK        -0.1800 
    102 C         -9.0750  -23.6093  -53.3069 C.2       18 UNK         0.5000 
    103 O         -9.5304  -23.0555  -54.3086 O.2       18 UNK        -0.5000 
    104 N         -8.6415  -24.8778  -53.3103 N.am      19 UNK        -0.5000 
    105 CA        -8.6506  -25.7521  -54.4849 C.3       19 UNK         0.1400 
    106 CB        -8.4065  -27.2013  -54.0396 C.3       19 UNK        -0.1800 
    107 C         -7.6205  -25.3425  -55.5555 C.2       19 UNK         0.5000 
    108 O         -7.8587  -25.5786  -56.7406 O.2       19 UNK        -0.5000 
    109 N         -6.5057  -24.7383  -55.1247 N.am      20 UNK        -0.5000 
    110 CA        -5.3988  -24.3002  -55.9770 C.3       20 UNK         0.1400 
    111 CB        -4.0938  -24.8822  -55.4079 C.3       20 UNK        -0.1800 
    112 C         -5.3175  -22.7649  -56.0935 C.2       20 UNK         0.5000 
    113 O         -4.3341  -22.2615  -56.6414 O.2       20 UNK        -0.5000 
    114 N         -6.3290  -22.0484  -55.5740 N.am      21 UNK        -0.5000 
    115 CA        -6.4349  -20.5885  -55.4358 C.3       21 UNK         0.1400 
    116 CB        -6.4548  -19.8794  -56.8064 C.3       21 UNK        -0.1800 
    117 C         -5.3570  -20.0377  -54.4832 C.2       21 UNK         0.5000 
    118 O         -5.6517  -19.8139  -53.3108 O.2       21 UNK        -0.5000 
    119 N         -4.1277  -19.9072  -54.9879 N.am      22 UNK        -0.5000 
    120 CA        -2.8747  -19.8090  -54.2276 C.3       22 UNK         0.1400 
    121 C         -1.6356  -20.2168  -55.0785 C.2       22 UNK         0.5000 
    122 N         -1.7907  -21.0264  -56.1217 N.am      22 UNK        -0.7600 
    123 O         -0.5131  -19.8095  -54.7960 O.2       22 UNK        -0.5000 
    124 C124       -2.7074  -18.5071  -53.3984 C.3       23 UNK        -0.0398 
    125 S125       -2.6119  -16.9666  -54.3761 S.3       23 UNK        -0.2404 
    126 C126       -0.9309  -16.3666  -53.9646 C.3       23 UNK        -0.0205 
    127 H127        6.5611  -19.5307  -47.8445 H         1 UNK         0.0600 
    128 H128        7.7841  -18.3095  -48.2137 H         1 UNK         0.0600 
    129 H129        6.3169  -18.4150  -49.1912 H         1 UNK         0.0600 
    130 H130        4.8919  -16.7666  -48.7180 H         1 UNK         0.3000 
    131 H131        4.0487  -16.1771  -46.0501 H         1 UNK         0.0600 
    132 H132        2.2524  -15.9293  -47.4907 H         1 UNK         0.0800 
    133 H133        2.7223  -14.2781  -47.3253 H         1 UNK         0.0800 
    134 H134        2.2689  -17.3386  -49.2988 H         1 UNK         0.0800 
    135 H135        2.9222  -17.0605  -50.8843 H         1 UNK         0.0800 
    136 H136        1.4158  -16.7373  -52.6599 H         1 UNK         0.1150 
    137 H137       -2.6495  -15.5839  -51.9398 H         1 UNK         0.1150 
    138 H138        0.1146  -15.8271  -48.6785 H         1 UNK         0.1150 
    139 H139       -2.1084  -14.7068  -48.4115 H         1 UNK         0.0800 
    140 H140       -3.1854  -14.5781  -49.7729 H         1 UNK         0.0800 
    141 H141       -2.9075  -17.5751  -46.5098 H         1 UNK         0.0800 
    142 H142       -1.6303  -16.6108  -47.1733 H         1 UNK         0.0800 
    143 H143       -1.2337  -18.5075  -48.9016 H         1 UNK         0.0600 
    144 H144       -0.2471  -18.2751  -46.2808 H         1 UNK         0.3000 
    145 H145        2.0776  -21.0075  -46.3741 H         1 UNK         0.0600 
    146 H146        3.6188  -19.1564  -45.8629 H         1 UNK         0.0600 
    147 H147        3.1312  -19.0579  -47.5489 H         1 UNK         0.0600 
    148 H148        2.4143  -17.9722  -46.3606 H         1 UNK         0.0600 
    149 H149        1.5360  -19.0905  -44.3519 H         1 UNK         0.3000 
    150 H150       -0.9667  -21.0373  -42.6219 H         1 UNK         0.0600 
    151 H151        1.3375  -21.7901  -41.9791 H         1 UNK         0.0600 
    152 H152        0.6920  -20.6179  -40.8398 H         1 UNK         0.0600 
    153 H153        1.8975  -20.1212  -42.0246 H         1 UNK         0.0600 
    154 H154        0.0597  -18.4605  -42.0465 H         1 UNK         0.3000 
    155 H155       -2.4451  -16.5606  -43.7935 H         1 UNK         0.0600 
    156 H156       -1.7112  -17.0485  -40.8591 H         1 UNK         0.0600 
    157 H157       -3.3177  -17.1813  -41.5590 H         1 UNK         0.0600 
    158 H158       -2.5228  -15.6150  -41.4864 H         1 UNK         0.0600 
    159 H159       -0.2166  -15.5963  -42.3939 H         1 UNK         0.3000 
    160 H160        2.0981  -15.6092  -45.1400 H         1 UNK         0.0600 
    161 H161        2.1142  -13.2480  -44.6623 H         1 UNK         0.0600 
    162 H162        0.7496  -13.3840  -43.5470 H         1 UNK         0.0600 
    163 H163        0.5244  -13.6390  -45.2699 H         1 UNK         0.0600 
    164 H164        2.4275  -14.8166  -42.4082 H         1 UNK         0.3000 
    165 H165        3.5833  -17.9924  -41.2139 H         1 UNK         0.0600 
    166 H166        5.4181  -16.5109  -40.4406 H         1 UNK         0.0600 
    167 H167        5.5622  -16.8270  -42.1625 H         1 UNK         0.0600 
    168 H168        4.9534  -15.2759  -41.6078 H         1 UNK         0.0600 
    169 H169        3.0503  -15.4492  -39.9714 H         1 UNK         0.3000 
    170 H170       -0.3427  -16.0542  -39.1507 H         1 UNK         0.0600 
    171 H171        0.7832  -17.5215  -37.4715 H         1 UNK         0.0600 
    172 H172        2.0702  -16.3367  -37.2814 H         1 UNK         0.0600 
    173 H173        0.4204  -15.9412  -36.7969 H         1 UNK         0.0600 
    174 H174        1.4983  -14.1098  -38.2052 H         1 UNK         0.3000 
    175 H175        0.2223  -11.6415  -39.7493 H         1 UNK         0.0600 
    176 H176        2.9831  -12.4739  -38.7000 H         1 UNK         0.0600 
    177 H177        2.2945  -10.8600  -38.5898 H         1 UNK         0.0600 
    178 H178        1.5412  -12.1794  -37.7227 H         1 UNK         0.0600 
    179 H179        1.4109  -10.7641  -41.3961 H         1 UNK         0.3000 
    180 H180        2.5074  -11.0038  -43.5209 H         1 UNK         0.0600 
    181 H181        4.8072  -10.1659  -41.6748 H         1 UNK         0.0600 
    182 H182        3.2589   -9.3615  -41.8579 H         1 UNK         0.0600 
    183 H183        4.3974   -9.3672  -43.1921 H         1 UNK         0.0600 
    184 H184        3.9254  -12.1454  -44.7438 H         1 UNK         0.3000 
    185 H185        6.4468  -12.4194  -45.4745 H         1 UNK         0.0600 
    186 H186        8.2266  -13.1849  -43.9071 H         1 UNK         0.0600 
    187 H187        7.3261  -14.6615  -43.5731 H         1 UNK         0.0600 
    188 H188        7.9856  -14.3678  -45.1807 H         1 UNK         0.0600 
    189 H189        4.6608  -14.6133  -44.6699 H         1 UNK         0.3000 
    190 H190       -2.4369  -20.0268  -45.8540 H         1 UNK         0.3000 
    191 H191       -4.5551  -21.4969  -47.0136 H         1 UNK         0.0600 
    192 H192       -2.8996  -22.0637  -44.4972 H         1 UNK         0.0600 
    193 H193       -4.4410  -22.8181  -44.8896 H         1 UNK         0.0600 
    194 H194       -4.3641  -21.0890  -44.5843 H         1 UNK         0.0600 
    195 H195       -1.1446  -22.4439  -46.4094 H         1 UNK         0.3000 
    196 H196       -1.3299  -25.1055  -47.3646 H         1 UNK         0.0600 
    197 H197        1.1652  -24.9602  -47.4502 H         1 UNK         0.0600 
    198 H198        0.5331  -24.3017  -45.9484 H         1 UNK         0.0600 
    199 H199        1.0796  -23.2170  -47.2248 H         1 UNK         0.0600 
    200 H200       -0.4268  -22.0673  -49.0706 H         1 UNK         0.3000 
    201 H201        0.0811  -23.2714  -51.6089 H         1 UNK         0.0600 
    202 H202        0.9542  -21.0371  -50.9594 H         1 UNK         0.0600 
    203 H203       -0.6837  -20.3895  -50.8871 H         1 UNK         0.0600 
    204 H204       -0.0058  -20.9188  -52.4225 H         1 UNK         0.0600 
    205 H205       -2.8611  -21.8083  -50.1703 H         1 UNK         0.3000 
    206 H206       -4.4760  -21.9661  -52.5042 H         1 UNK         0.0600 
    207 H207       -4.9671  -20.4375  -50.6125 H         1 UNK         0.0600 
    208 H208       -6.3345  -21.4902  -50.8898 H         1 UNK         0.0600 
    209 H209       -5.2518  -21.8078  -49.5388 H         1 UNK         0.0600 
    210 H210       -3.9425  -24.2700  -49.8721 H         1 UNK         0.3000 
    211 H211       -4.5203  -26.3820  -49.4964 H         1 UNK         0.0600 
    212 H212       -4.6786  -27.9481  -51.4111 H         1 UNK         0.0600 
    213 H213       -3.3713  -26.8035  -51.6754 H         1 UNK         0.0600 
    214 H214       -4.8975  -26.6145  -52.5354 H         1 UNK         0.0600 
    215 H215       -6.3872  -24.8152  -48.7017 H         1 UNK         0.3000 
    216 H216       -8.5033  -24.4434  -48.1512 H         1 UNK         0.0600 
    217 H217      -10.1305  -26.2804  -48.1204 H         1 UNK         0.0600 
    218 H218       -8.5580  -26.8986  -47.6437 H         1 UNK         0.0600 
    219 H219       -9.1799  -27.2172  -49.2625 H         1 UNK         0.0600 
    220 H220       -7.5715  -23.4223  -50.5352 H         1 UNK         0.3000 
    221 H221       -8.1302  -22.0953  -52.1921 H         1 UNK         0.0600 
    222 H222      -11.0872  -22.5812  -51.5848 H         1 UNK         0.0600 
    223 H223      -10.0763  -21.3767  -50.7855 H         1 UNK         0.0600 
    224 H224      -10.4019  -21.2524  -52.5052 H         1 UNK         0.0600 
    225 H225       -8.2371  -25.2580  -52.4643 H         1 UNK         0.3000 
    226 H226       -9.6423  -25.6988  -54.9389 H         1 UNK         0.0600 
    227 H227       -9.1308  -27.5123  -53.2864 H         1 UNK         0.0600 
    228 H228       -8.4957  -27.8882  -54.8820 H         1 UNK         0.0600 
    229 H229       -7.4085  -27.3283  -53.6185 H         1 UNK         0.0600 
    230 H230       -6.3848  -24.5787  -54.1258 H         1 UNK         0.3000 
    231 H231       -5.5211  -24.6840  -56.9915 H         1 UNK         0.0600 
    232 H232       -4.1388  -25.9700  -55.3534 H         1 UNK         0.0600 
    233 H233       -3.8923  -24.5074  -54.4046 H         1 UNK         0.0600 
    234 H234       -3.2375  -24.6248  -56.0323 H         1 UNK         0.0600 
    235 H235       -7.0871  -22.5736  -55.1612 H         1 UNK         0.3000 
    236 H236       -7.3990  -20.3990  -54.9607 H         1 UNK         0.0600 
    237 H237       -5.5466  -20.0489  -57.3844 H         1 UNK         0.0600 
    238 H238       -7.2963  -20.2225  -57.4082 H         1 UNK         0.0600 
    239 H239       -6.5645  -18.8015  -56.6820 H         1 UNK         0.0600 
    240 H240       -4.0024  -20.1310  -55.9659 H         1 UNK         0.3000 
    241 H241       -2.9249  -20.6076  -53.4910 H         1 UNK         0.0600 
    242 H242       -2.6813  -21.4702  -56.3328 H         1 UNK         0.3800 
    243 H243       -0.9781  -21.2798  -56.6607 H         1 UNK         0.3800 
    244 H244       -1.8252  -18.5999  -52.7638 H         1 UNK         0.0800 
    245 H245       -3.5378  -18.4012  -52.7002 H         1 UNK         0.0800 
    246 H246       -0.2102  -17.0622  -54.3973 H         1 UNK         0.0800 
    247 H247       -0.7719  -15.4094  -54.4621 H         1 UNK         0.0800 
@<TRIPOS>BOND
     1    1    2 1    
     2    1  127 1    
     3    1  128 1    
     4    1  129 1    
     5    2    3 2    
     6    2    4 am   BACKBONE|DICT|INTERRES
     7    4    5 1    
     8    4  130 1    
     9    5    6 1    
    10    5   65 1    
    11    5  131 1    
    12    6    7 1    
    13    6  132 1    
    14    6  133 1    
    15    7    8 1    
    16    8    9 1    
    17    8  134 1    
    18    8  135 1    
    19    9   10 ar   
    20    9   14 ar   
    21   10   11 ar   
    22   10  136 1    
    23   11   12 ar   
    24   11  126 1    
    25   12   13 ar   
    26   12  137 1    
    27   13   14 ar   
    28   13   15 1    
    29   14  138 1    
    30   15   16 1    
    31   15  139 1    
    32   15  140 1    
    33   16   17 1    
    34   17   18 1    
    35   17  141 1    
    36   17  142 1    
    37   18   19 1    
    38   18   67 1    
    39   18  143 1    
    40   19   20 am   BACKBONE|DICT|INTERRES
    41   19  144 1    
    42   20   21 2    
    43   20   22 1    
    44   22   23 1    
    45   22   24 1    
    46   22  145 1    
    47   23  146 1    
    48   23  147 1    
    49   23  148 1    
    50   24   25 am   BACKBONE|DICT|INTERRES
    51   24  149 1    
    52   25   26 2    
    53   25   27 1    
    54   27   28 1    
    55   27   29 1    
    56   27  150 1    
    57   28  151 1    
    58   28  152 1    
    59   28  153 1    
    60   29   30 am   BACKBONE|DICT|INTERRES
    61   29  154 1    
    62   30   31 2    
    63   30   32 1    
    64   32   33 1    
    65   32   34 1    
    66   32  155 1    
    67   33  156 1    
    68   33  157 1    
    69   33  158 1    
    70   34   35 am   BACKBONE|DICT|INTERRES
    71   34  159 1    
    72   35   36 2    
    73   35   37 1    
    74   37   38 1    
    75   37   39 1    
    76   37  160 1    
    77   38  161 1    
    78   38  162 1    
    79   38  163 1    
    80   39   40 am   BACKBONE|DICT|INTERRES
    81   39  164 1    
    82   40   41 2    
    83   40   42 1    
    84   42   43 1    
    85   42   44 1    
    86   42  165 1    
    87   43  166 1    
    88   43  167 1    
    89   43  168 1    
    90   44   45 am   BACKBONE|DICT|INTERRES
    91   44  169 1    
    92   45   46 2    
    93   45   47 1    
    94   47   48 1    
    95   47   49 1    
    96   47  170 1    
    97   48  171 1    
    98   48  172 1    
    99   48  173 1    
   100   49   50 am   BACKBONE|DICT|INTERRES
   101   49  174 1    
   102   50   51 2    
   103   50   52 1    
   104   52   53 1    
   105   52   54 1    
   106   52  175 1    
   107   53  176 1    
   108   53  177 1    
   109   53  178 1    
   110   54   55 am   BACKBONE|DICT|INTERRES
   111   54  179 1    
   112   55   56 2    
   113   55   57 1    
   114   57   58 1    
   115   57   59 1    
   116   57  180 1    
   117   58  181 1    
   118   58  182 1    
   119   58  183 1    
   120   59   60 am   BACKBONE|DICT|INTERRES
   121   59  184 1    
   122   60   61 2    
   123   60   62 1    
   124   62   63 1    
   125   62   64 1    
   126   62  185 1    
   127   63  186 1    
   128   63  187 1    
   129   63  188 1    
   130   64   65 am   BACKBONE|DICT|INTERRES
   131   64  189 1    
   132   65   66 2    
   133   67   68 2    
   134   67   69 am   BACKBONE|DICT|INTERRES
   135   69   70 1    
   136   69  190 1    
   137   70   71 1    
   138   70   72 1    
   139   70  191 1    
   140   71  192 1    
   141   71  193 1    
   142   71  194 1    
   143   72   73 2    
   144   72   74 am   BACKBONE|DICT|INTERRES
   145   74   75 1    
   146   74  195 1    
   147   75   76 1    
   148   75   77 1    
   149   75  196 1    
   150   76  197 1    
   151   76  198 1    
   152   76  199 1    
   153   77   78 2    
   154   77   79 am   BACKBONE|DICT|INTERRES
   155   79   80 1    
   156   79  200 1    
   157   80   81 1    
   158   80   82 1    
   159   80  201 1    
   160   81  202 1    
   161   81  203 1    
   162   81  204 1    
   163   82   83 2    
   164   82   84 am   BACKBONE|DICT|INTERRES
   165   84   85 1    
   166   84  205 1    
   167   85   86 1    
   168   85   87 1    
   169   85  206 1    
   170   86  207 1    
   171   86  208 1    
   172   86  209 1    
   173   87   88 2    
   174   87   89 am   BACKBONE|DICT|INTERRES
   175   89   90 1    
   176   89  210 1    
   177   90   91 1    
   178   90   92 1    
   179   90  211 1    
   180   91  212 1    
   181   91  213 1    
   182   91  214 1    
   183   92   93 2    
   184   92   94 am   BACKBONE|DICT|INTERRES
   185   94   95 1    
   186   94  215 1    
   187   95   96 1    
   188   95   97 1    
   189   95  216 1    
   190   96  217 1    
   191   96  218 1    
   192   96  219 1    
   193   97   98 2    
   194   97   99 am   BACKBONE|DICT|INTERRES
   195   99  100 1    
   196   99  220 1    
   197  100  101 1    
   198  100  102 1    
   199  100  221 1    
   200  101  222 1    
   201  101  223 1    
   202  101  224 1    
   203  102  103 2    
   204  102  104 am   BACKBONE|DICT|INTERRES
   205  104  105 1    
   206  104  225 1    
   207  105  106 1    
   208  105  107 1    
   209  105  226 1    
   210  106  227 1    
   211  106  228 1    
   212  106  229 1    
   213  107  108 2    
   214  107  109 am   BACKBONE|DICT|INTERRES
   215  109  110 1    
   216  109  230 1    
   217  110  111 1    
   218  110  112 1    
   219  110  231 1    
   220  111  232 1    
   221  111  233 1    
   222  111  234 1    
   223  112  113 2    
   224  112  114 am   BACKBONE|DICT|INTERRES
   225  114  115 1    
   226  114  235 1    
   227  115  116 1    
   228  115  117 1    
   229  115  236 1    
   230  116  237 1    
   231  116  238 1    
   232  116  239 1    
   233  117  118 2    
   234  117  119 am   BACKBONE|DICT|INTERRES
   235  119  120 1    
   236  119  240 1    
   237  120  121 1    
   238  120  124 1    
   239  120  241 1    
   240  121  122 am   BACKBONE|DICT|INTERRES
   241  121  123 2    
   242  122  242 1    
   243  122  243 1    
   244  124  125 1    
   245  124  244 1    
   246  124  245 1    
   247  125  126 1    
   248  126  246 1    
   249  126  247 1    
@<TRIPOS>SUBSTRUCTURE
     1 UNK         1 GROUP             0       ****    0 ROOT    
