@<TRIPOS>MOLECULE
3R540
247   249    1
SMALL
USER_CHARGES


@<TRIPOS>ATOM
      1 CA         -4.9733  -16.4228  -51.1483 C.3       0 UNK        -0.1800 
      2 C          -4.7086  -15.4471  -50.0123 C.2       0 UNK         0.5000 
      3 O          -5.6486  -14.8560  -49.4820 O.2       0 UNK        -0.5000 
      4 N          -3.4330  -15.2746  -49.6394 N.am      1 UNK        -0.5000 
      5 CA         -2.9905  -14.3604  -48.5776 C.3       1 UNK         0.1400 
      6 C6         -1.5234  -13.9029  -48.7846 C.3       23 UNK        -0.0398 
      7 S7         -0.2639  -15.2064  -48.5767 S.3       23 UNK        -0.2404 
      8 C8          0.0201  -15.7718  -50.2807 C.3       23 UNK        -0.0205 
      9 C9          0.9072  -17.0076  -50.3001 C.ar      23 UNK        -0.0193 
     10 C10         2.2829  -16.8838  -50.5040 C.ar      23 UNK        -0.1150 
     11 C11         3.1016  -18.0161  -50.5317 C.ar      23 UNK        -0.0193 
     12 C12         2.5342  -19.2808  -50.3559 C.ar      23 UNK        -0.1150 
     13 C13         1.1606  -19.4230  -50.1394 C.ar      23 UNK        -0.0193 
     14 C14         0.3535  -18.2785  -50.1172 C.ar      23 UNK        -0.1150 
     15 C15         0.5595  -20.8133  -49.9520 C.3       23 UNK        -0.0205 
     16 S16        -0.4147  -20.9328  -48.4223 S.3       23 UNK        -0.2404 
     17 C17        -0.5965  -22.7393  -48.1657 C.3       23 UNK        -0.0398 
     18 CA         -0.1419  -23.2329  -46.7563 C.3       11 UNK         0.1400 
     19 N           1.2073  -22.7880  -46.4124 N.am      11 UNK        -0.5000 
     20 C           2.3219  -23.3094  -46.9325 C.2       10 UNK         0.5000 
     21 O           2.3277  -24.3405  -47.6071 O.2       10 UNK        -0.5000 
     22 CA          3.6499  -22.5597  -46.7262 C.3       10 UNK         0.1400 
     23 CB          3.8947  -21.6075  -47.9081 C.3       10 UNK        -0.1800 
     24 N           3.7500  -21.7853  -45.4825 N.am      10 UNK        -0.5000 
     25 C           4.8407  -21.7926  -44.6983 C.2       9 UNK         0.5000 
     26 O           5.7538  -22.6110  -44.8233 O.2       9 UNK        -0.5000 
     27 CA          4.9991  -20.6944  -43.6242 C.3       9 UNK         0.1400 
     28 CB          6.1531  -19.7498  -43.9999 C.3       9 UNK        -0.1800 
     29 N           3.8051  -19.8802  -43.4270 N.am      9 UNK        -0.5000 
     30 C           2.8094  -20.1645  -42.5802 C.2       8 UNK         0.5000 
     31 O           2.8015  -21.1446  -41.8348 O.2       8 UNK        -0.5000 
     32 CA          1.6042  -19.2008  -42.5866 C.3       8 UNK         0.1400 
     33 CB          1.7545  -18.1473  -41.4807 C.3       8 UNK        -0.1800 
     34 N           1.3779  -18.5272  -43.8724 N.am      8 UNK        -0.5000 
     35 C           1.1826  -19.1576  -45.0387 C.2       7 UNK         0.5000 
     36 O           1.2009  -20.3800  -45.1546 O.2       7 UNK        -0.5000 
     37 CA          0.9796  -18.2998  -46.2921 C.3       7 UNK         0.1400 
     38 CB         -0.4921  -17.8905  -46.4322 C.3       7 UNK        -0.1800 
     39 N           1.8480  -17.1270  -46.3014 N.am      7 UNK        -0.5000 
     40 C           3.1560  -17.1695  -46.5916 C.2       6 UNK         0.5000 
     41 O           3.7562  -18.1924  -46.9204 O.2       6 UNK        -0.5000 
     42 CA          3.9374  -15.8520  -46.4369 C.3       6 UNK         0.1400 
     43 CB          3.7323  -14.9445  -47.6591 C.3       6 UNK        -0.1800 
     44 N           3.5667  -15.1196  -45.2262 N.am      6 UNK        -0.5000 
     45 C           3.7660  -15.5589  -43.9752 C.2       5 UNK         0.5000 
     46 O           4.3370  -16.6146  -43.7003 O.2       5 UNK        -0.5000 
     47 CA          3.2039  -14.6818  -42.8389 C.3       5 UNK         0.1400 
     48 CB          4.2688  -13.6857  -42.3558 C.3       5 UNK        -0.1800 
     49 N           1.9825  -13.9477  -43.1884 N.am      5 UNK        -0.5000 
     50 C           0.8310  -14.5036  -43.5896 C.2       4 UNK         0.5000 
     51 O           0.6875  -15.7115  -43.7929 O.2       4 UNK        -0.5000 
     52 CA         -0.3296  -13.5284  -43.8632 C.3       4 UNK         0.1400 
     53 CB         -0.2309  -12.9898  -45.2960 C.3       4 UNK        -0.1800 
     54 N          -1.6441  -14.1451  -43.6824 N.am      4 UNK        -0.5000 
     55 C          -2.1224  -14.6068  -42.5180 C.2       3 UNK         0.5000 
     56 O          -1.5201  -14.5087  -41.4474 O.2       3 UNK        -0.5000 
     57 CA         -3.5174  -15.2635  -42.5320 C.3       3 UNK         0.1400 
     58 CB         -4.5631  -14.3184  -41.9193 C.3       3 UNK        -0.1800 
     59 N          -3.9681  -15.6528  -43.8683 N.am      3 UNK        -0.5000 
     60 C          -3.5342  -16.7241  -44.5429 C.2       2 UNK         0.5000 
     61 O          -2.7181  -17.5258  -44.0922 O.2       2 UNK        -0.5000 
     62 CA         -4.1467  -16.9667  -45.9379 C.3       2 UNK         0.1400 
     63 CB         -5.6761  -16.7742  -45.9461 C.3       2 UNK        -0.1800 
     64 N          -3.5483  -16.2089  -47.0453 N.am      2 UNK        -0.5000 
     65 C          -3.2958  -14.8932  -47.1533 C.2       1 UNK         0.5000 
     66 O          -3.3473  -14.0967  -46.2160 O.2       1 UNK        -0.5000 
     67 C          -1.1103  -22.8665  -45.6128 C.2       11 UNK         0.5000 
     68 O          -1.3285  -23.6828  -44.7159 O.2       11 UNK        -0.5000 
     69 N          -1.6734  -21.6517  -45.6757 N.am      12 UNK        -0.5000 
     70 CA         -2.6632  -21.0159  -44.7985 C.3       12 UNK         0.1400 
     71 CB         -2.1287  -20.8331  -43.3683 C.3       12 UNK        -0.1800 
     72 C          -4.0440  -21.6913  -44.8078 C.2       12 UNK         0.5000 
     73 O          -5.0357  -21.0307  -45.1256 O.2       12 UNK        -0.5000 
     74 N          -4.0783  -22.9889  -44.4842 N.am      13 UNK        -0.5000 
     75 CA         -5.2683  -23.8369  -44.4293 C.3       13 UNK         0.1400 
     76 CB         -4.8472  -25.2522  -44.0077 C.3       13 UNK        -0.1800 
     77 C          -6.0298  -23.8809  -45.7657 C.2       13 UNK         0.5000 
     78 O          -5.4039  -23.8389  -46.8276 O.2       13 UNK        -0.5000 
     79 N          -7.3653  -23.9587  -45.6787 N.am      14 UNK        -0.5000 
     80 CA         -8.3168  -23.9682  -46.7973 C.3       14 UNK         0.1400 
     81 CB         -8.2176  -25.2940  -47.5813 C.3       14 UNK        -0.1800 
     82 C          -8.1904  -22.7219  -47.7004 C.2       14 UNK         0.5000 
     83 O          -8.2340  -22.8425  -48.9252 O.2       14 UNK        -0.5000 
     84 N          -8.0030  -21.5521  -47.0677 N.am      15 UNK        -0.5000 
     85 CA         -7.7814  -20.2388  -47.6842 C.3       15 UNK         0.1400 
     86 CB         -9.0601  -19.7449  -48.3925 C.3       15 UNK        -0.1800 
     87 C          -6.5478  -20.2456  -48.6075 C.2       15 UNK         0.5000 
     88 O          -6.6656  -19.9908  -49.8076 O.2       15 UNK        -0.5000 
     89 N          -5.3916  -20.5931  -48.0241 N.am      16 UNK        -0.5000 
     90 CA         -4.1007  -20.7740  -48.6956 C.3       16 UNK         0.1400 
     91 CB         -3.5565  -19.4239  -49.2099 C.3       16 UNK        -0.1800 
     92 C          -4.1491  -21.8628  -49.7878 C.2       16 UNK         0.5000 
     93 O          -3.6958  -21.6345  -50.9098 O.2       16 UNK        -0.5000 
     94 N          -4.7281  -23.0204  -49.4356 N.am      17 UNK        -0.5000 
     95 CA         -4.9460  -24.1954  -50.2844 C.3       17 UNK         0.1400 
     96 CB         -3.6064  -24.9117  -50.5522 C.3       17 UNK        -0.1800 
     97 C          -5.7349  -23.8608  -51.5687 C.2       17 UNK         0.5000 
     98 O          -5.3029  -24.2048  -52.6694 O.2       17 UNK        -0.5000 
     99 N          -6.8678  -23.1652  -51.3900 N.am      18 UNK        -0.5000 
    100 CA        -7.7353  -22.5960  -52.4250 C.3       18 UNK         0.1400 
    101 CB        -8.4130  -23.7067  -53.2548 C.3       18 UNK        -0.1800 
    102 C         -7.0034  -21.5430  -53.2842 C.2       18 UNK         0.5000 
    103 O         -7.0768  -21.5807  -54.5141 O.2       18 UNK        -0.5000 
    104 N         -6.3111  -20.6212  -52.5996 N.am      19 UNK        -0.5000 
    105 CA        -5.5233  -19.5089  -53.1355 C.3       19 UNK         0.1400 
    106 CB        -6.4480  -18.4418  -53.7562 C.3       19 UNK        -0.1800 
    107 C         -4.3800  -19.9439  -54.0764 C.2       19 UNK         0.5000 
    108 O         -4.1156  -19.2818  -55.0823 O.2       19 UNK        -0.5000 
    109 N         -3.6911  -21.0335  -53.7191 N.am      20 UNK        -0.5000 
    110 CA        -2.5326  -21.5712  -54.4309 C.3       20 UNK         0.1400 
    111 CB        -2.4982  -23.0972  -54.2435 C.3       20 UNK        -0.1800 
    112 C         -1.2413  -20.8812  -53.9499 C.2       20 UNK         0.5000 
    113 O         -0.3453  -21.5371  -53.4149 O.2       20 UNK        -0.5000 
    114 N         -1.1892  -19.5537  -54.1182 N.am      21 UNK        -0.5000 
    115 CA        -0.0780  -18.6982  -53.7068 C.3       21 UNK         0.1400 
    116 CB        -0.5132  -17.2284  -53.8098 C.3       21 UNK        -0.1800 
    117 C          1.2097  -18.9528  -54.5112 C.2       21 UNK         0.5000 
    118 O          1.1432  -19.3858  -55.6646 O.2       21 UNK        -0.5000 
    119 N          2.3571  -18.6570  -53.8886 N.am      22 UNK        -0.5000 
    120 CA         3.6979  -18.8505  -54.4656 C.3       22 UNK         0.1400 
    121 C          4.0890  -17.8741  -55.6174 C.2       22 UNK         0.5000 
    122 N          3.3339  -16.8146  -55.8819 N.am      22 UNK        -0.7600 
    123 O          5.0915  -18.0917  -56.2928 O.2       22 UNK        -0.5000 
    124 C124        4.7885  -18.9262  -53.3644 C.3       23 UNK        -0.0398 
    125 S125        5.0254  -17.3718  -52.4283 S.3       23 UNK        -0.2404 
    126 C126        4.6017  -17.8670  -50.7287 C.3       23 UNK        -0.0205 
    127 H127       -5.3936  -15.8950  -52.0042 H         1 UNK         0.0600 
    128 H128       -5.6908  -17.1792  -50.8295 H         1 UNK         0.0600 
    129 H129       -4.0618  -16.9255  -51.4724 H         1 UNK         0.0600 
    130 H130       -2.7014  -15.7815  -50.1134 H         1 UNK         0.3000 
    131 H131       -3.5949  -13.4556  -48.6743 H         1 UNK         0.0600 
    132 H132       -1.4123  -13.4591  -49.7749 H         1 UNK         0.0800 
    133 H133       -1.2906  -13.0979  -48.0867 H         1 UNK         0.0800 
    134 H134        0.4769  -14.9661  -50.8574 H         1 UNK         0.0800 
    135 H135       -0.9288  -15.9990  -50.7655 H         1 UNK         0.0800 
    136 H136        2.7197  -15.9044  -50.6396 H         1 UNK         0.1150 
    137 H137        3.1670  -20.1562  -50.3801 H         1 UNK         0.1150 
    138 H138       -0.7089  -18.3759  -49.9560 H         1 UNK         0.1150 
    139 H139       -0.0832  -21.0470  -50.8010 H         1 UNK         0.0800 
    140 H140        1.3467  -21.5683  -49.9337 H         1 UNK         0.0800 
    141 H141       -0.0193  -23.2619  -48.9292 H         1 UNK         0.0800 
    142 H142       -1.6340  -23.0203  -48.3523 H         1 UNK         0.0800 
    143 H143       -0.1381  -24.3248  -46.7866 H         1 UNK         0.0600 
    144 H144        1.2509  -21.9280  -45.8651 H         1 UNK         0.3000 
    145 H145        4.4251  -23.3278  -46.7565 H         1 UNK         0.0600 
    146 H146        3.8324  -22.1341  -48.8612 H         1 UNK         0.0600 
    147 H147        3.1580  -20.8031  -47.9246 H         1 UNK         0.0600 
    148 H148        4.8830  -21.1510  -47.8519 H         1 UNK         0.0600 
    149 H149        3.0055  -21.1224  -45.2943 H         1 UNK         0.3000 
    150 H150        5.2592  -21.1896  -42.6863 H         1 UNK         0.0600 
    151 H151        7.0893  -20.2964  -44.1190 H         1 UNK         0.0600 
    152 H152        6.3136  -18.9969  -43.2278 H         1 UNK         0.0600 
    153 H153        5.9537  -19.2282  -44.9374 H         1 UNK         0.0600 
    154 H154        3.7362  -19.0362  -43.9805 H         1 UNK         0.3000 
    155 H155        0.7177  -19.7951  -42.3656 H         1 UNK         0.0600 
    156 H156        0.9188  -17.4469  -41.4792 H         1 UNK         0.0600 
    157 H157        2.6758  -17.5785  -41.5989 H         1 UNK         0.0600 
    158 H158        1.7876  -18.6185  -40.4977 H         1 UNK         0.0600 
    159 H159        1.2895  -17.5142  -43.8515 H         1 UNK         0.3000 
    160 H160        1.2371  -18.9217  -47.1511 H         1 UNK         0.0600 
    161 H161       -0.7229  -16.9952  -45.8548 H         1 UNK         0.0600 
    162 H162       -1.1597  -18.6816  -46.0955 H         1 UNK         0.0600 
    163 H163       -0.7467  -17.7042  -47.4725 H         1 UNK         0.0600 
    164 H164        1.4422  -16.2609  -45.9779 H         1 UNK         0.3000 
    165 H165        4.9990  -16.0992  -46.3685 H         1 UNK         0.0600 
    166 H166        4.3212  -14.0310  -47.5769 H         1 UNK         0.0600 
    167 H167        4.0451  -15.4483  -48.5729 H         1 UNK         0.0600 
    168 H168        2.6865  -14.6608  -47.7824 H         1 UNK         0.0600 
    169 H169        3.0897  -14.2398  -45.3530 H         1 UNK         0.3000 
    170 H170        2.9577  -15.3400  -42.0051 H         1 UNK         0.0600 
    171 H171        5.1834  -14.2033  -42.0630 H         1 UNK         0.0600 
    172 H172        4.5322  -12.9687  -43.1343 H         1 UNK         0.0600 
    173 H173        3.9220  -13.1269  -41.4864 H         1 UNK         0.0600 
    174 H174        2.0199  -12.9458  -43.0678 H         1 UNK         0.3000 
    175 H175       -0.2551  -12.6912  -43.1662 H         1 UNK         0.0600 
    176 H176       -1.0424  -12.2963  -45.5175 H         1 UNK         0.0600 
    177 H177        0.7069  -12.4567  -45.4566 H         1 UNK         0.0600 
    178 H178       -0.2751  -13.8024  -46.0196 H         1 UNK         0.0600 
    179 H179       -2.2122  -14.2593  -44.5149 H         1 UNK         0.3000 
    180 H180       -3.4617  -16.1594  -41.9100 H         1 UNK         0.0600 
    181 H181       -4.6693  -13.4038  -42.5041 H         1 UNK         0.0600 
    182 H182       -4.2838  -14.0293  -40.9053 H         1 UNK         0.0600 
    183 H183       -5.5412  -14.7964  -41.8613 H         1 UNK         0.0600 
    184 H184       -4.5913  -15.0131  -44.3405 H         1 UNK         0.3000 
    185 H185       -3.9627  -18.0181  -46.1622 H         1 UNK         0.0600 
    186 H186       -6.1472  -17.3251  -45.1308 H         1 UNK         0.0600 
    187 H187       -5.9584  -15.7256  -45.8467 H         1 UNK         0.0600 
    188 H188       -6.1084  -17.1428  -46.8767 H         1 UNK         0.0600 
    189 H189       -3.4263  -16.7384  -47.8947 H         1 UNK         0.3000 
    190 H190       -1.3807  -21.0833  -46.4610 H         1 UNK         0.3000 
    191 H191       -2.8194  -20.0189  -45.2089 H         1 UNK         0.0600 
    192 H192       -1.2505  -20.1914  -43.3733 H         1 UNK         0.0600 
    193 H193       -2.8723  -20.3510  -42.7325 H         1 UNK         0.0600 
    194 H194       -1.8572  -21.7789  -42.8997 H         1 UNK         0.0600 
    195 H195       -3.1848  -23.4447  -44.3232 H         1 UNK         0.3000 
    196 H196       -5.9281  -23.4240  -43.6637 H         1 UNK         0.0600 
    197 H197       -5.7113  -25.9135  -43.9316 H         1 UNK         0.0600 
    198 H198       -4.3572  -25.2450  -43.0339 H         1 UNK         0.0600 
    199 H199       -4.1565  -25.6947  -44.7271 H         1 UNK         0.0600 
    200 H200       -7.7829  -23.9890  -44.7587 H         1 UNK         0.3000 
    201 H201       -9.3142  -23.9212  -46.3579 H         1 UNK         0.0600 
    202 H202       -8.3540  -26.1511  -46.9221 H         1 UNK         0.0600 
    203 H203       -7.2524  -25.4035  -48.0747 H         1 UNK         0.0600 
    204 H204       -8.9875  -25.3532  -48.3515 H         1 UNK         0.0600 
    205 H205       -7.9421  -21.5730  -46.0594 H         1 UNK         0.3000 
    206 H206       -7.5612  -19.5421  -46.8739 H         1 UNK         0.0600 
    207 H207       -9.9050  -19.7161  -47.7047 H         1 UNK         0.0600 
    208 H208       -8.9228  -18.7354  -48.7817 H         1 UNK         0.0600 
    209 H209       -9.3342  -20.3831  -49.2332 H         1 UNK         0.0600 
    210 H210       -5.4061  -20.8138  -47.0320 H         1 UNK         0.3000 
    211 H211       -3.4094  -21.1428  -47.9389 H         1 UNK         0.0600 
    212 H212       -4.2531  -18.9352  -49.8880 H         1 UNK         0.0600 
    213 H213       -2.6256  -19.5589  -49.7582 H         1 UNK         0.0600 
    214 H214       -3.3494  -18.7453  -48.3855 H         1 UNK         0.0600 
    215 H215       -5.0592  -23.1262  -48.4780 H         1 UNK         0.3000 
    216 H216       -5.5732  -24.8788  -49.7115 H         1 UNK         0.0600 
    217 H217       -3.7556  -25.8178  -51.1403 H         1 UNK         0.0600 
    218 H218       -3.1279  -25.2066  -49.6183 H         1 UNK         0.0600 
    219 H219       -2.9083  -24.2766  -51.0965 H         1 UNK         0.0600 
    220 H220       -7.1607  -22.9590  -50.4366 H         1 UNK         0.3000 
    221 H221       -8.5228  -22.0595  -51.8936 H         1 UNK         0.0600 
    222 H222       -7.6944  -24.2618  -53.8583 H         1 UNK         0.0600 
    223 H223       -8.9314  -24.4175  -52.6113 H         1 UNK         0.0600 
    224 H224       -9.1533  -23.2857  -53.9358 H         1 UNK         0.0600 
    225 H225       -6.3434  -20.6606  -51.5836 H         1 UNK         0.3000 
    226 H226       -5.0328  -19.0607  -52.2724 H         1 UNK         0.0600 
    227 H227       -7.2101  -18.1215  -53.0457 H         1 UNK         0.0600 
    228 H228       -5.8842  -17.5545  -54.0461 H         1 UNK         0.0600 
    229 H229       -6.9537  -18.8143  -54.6474 H         1 UNK         0.0600 
    230 H230       -3.8939  -21.4560  -52.8159 H         1 UNK         0.3000 
    231 H231       -2.6327  -21.3729  -55.5000 H         1 UNK         0.0600 
    232 H232       -2.4058  -23.3683  -53.1920 H         1 UNK         0.0600 
    233 H233       -1.6555  -23.5400  -54.7755 H         1 UNK         0.0600 
    234 H234       -3.4064  -23.5607  -54.6292 H         1 UNK         0.0600 
    235 H235       -1.9671  -19.1046  -54.5845 H         1 UNK         0.3000 
    236 H236        0.1313  -18.9280  -52.6649 H         1 UNK         0.0600 
    237 H237       -1.3944  -17.0348  -53.1978 H         1 UNK         0.0600 
    238 H238        0.2751  -16.5601  -53.4607 H         1 UNK         0.0600 
    239 H239       -0.7500  -16.9511  -54.8377 H         1 UNK         0.0600 
    240 H240        2.3353  -18.2828  -52.9501 H         1 UNK         0.3000 
    241 H241        3.6818  -19.8349  -54.9377 H         1 UNK         0.0600 
    242 H242        3.5938  -16.1942  -56.6325 H         1 UNK         0.3800 
    243 H243        2.5098  -16.6251  -55.3359 H         1 UNK         0.3800 
    244 H244        4.5491  -19.7350  -52.6732 H         1 UNK         0.0800 
    245 H245        5.7479  -19.2018  -53.8054 H         1 UNK         0.0800 
    246 H246        4.9757  -17.1088  -50.0402 H         1 UNK         0.0800 
    247 H247        5.1257  -18.7888  -50.4708 H         1 UNK         0.0800 
@<TRIPOS>BOND
     1    1    2 1    
     2    1  127 1    
     3    1  128 1    
     4    1  129 1    
     5    2    3 2    
     6    2    4 am   BACKBONE|DICT|INTERRES
     7    4    5 1    
     8    4  130 1    
     9    5    6 1    
    10    5   65 1    
    11    5  131 1    
    12    6    7 1    
    13    6  132 1    
    14    6  133 1    
    15    7    8 1    
    16    8    9 1    
    17    8  134 1    
    18    8  135 1    
    19    9   10 ar   
    20    9   14 ar   
    21   10   11 ar   
    22   10  136 1    
    23   11   12 ar   
    24   11  126 1    
    25   12   13 ar   
    26   12  137 1    
    27   13   14 ar   
    28   13   15 1    
    29   14  138 1    
    30   15   16 1    
    31   15  139 1    
    32   15  140 1    
    33   16   17 1    
    34   17   18 1    
    35   17  141 1    
    36   17  142 1    
    37   18   19 1    
    38   18   67 1    
    39   18  143 1    
    40   19   20 am   BACKBONE|DICT|INTERRES
    41   19  144 1    
    42   20   21 2    
    43   20   22 1    
    44   22   23 1    
    45   22   24 1    
    46   22  145 1    
    47   23  146 1    
    48   23  147 1    
    49   23  148 1    
    50   24   25 am   BACKBONE|DICT|INTERRES
    51   24  149 1    
    52   25   26 2    
    53   25   27 1    
    54   27   28 1    
    55   27   29 1    
    56   27  150 1    
    57   28  151 1    
    58   28  152 1    
    59   28  153 1    
    60   29   30 am   BACKBONE|DICT|INTERRES
    61   29  154 1    
    62   30   31 2    
    63   30   32 1    
    64   32   33 1    
    65   32   34 1    
    66   32  155 1    
    67   33  156 1    
    68   33  157 1    
    69   33  158 1    
    70   34   35 am   BACKBONE|DICT|INTERRES
    71   34  159 1    
    72   35   36 2    
    73   35   37 1    
    74   37   38 1    
    75   37   39 1    
    76   37  160 1    
    77   38  161 1    
    78   38  162 1    
    79   38  163 1    
    80   39   40 am   BACKBONE|DICT|INTERRES
    81   39  164 1    
    82   40   41 2    
    83   40   42 1    
    84   42   43 1    
    85   42   44 1    
    86   42  165 1    
    87   43  166 1    
    88   43  167 1    
    89   43  168 1    
    90   44   45 am   BACKBONE|DICT|INTERRES
    91   44  169 1    
    92   45   46 2    
    93   45   47 1    
    94   47   48 1    
    95   47   49 1    
    96   47  170 1    
    97   48  171 1    
    98   48  172 1    
    99   48  173 1    
   100   49   50 am   BACKBONE|DICT|INTERRES
   101   49  174 1    
   102   50   51 2    
   103   50   52 1    
   104   52   53 1    
   105   52   54 1    
   106   52  175 1    
   107   53  176 1    
   108   53  177 1    
   109   53  178 1    
   110   54   55 am   BACKBONE|DICT|INTERRES
   111   54  179 1    
   112   55   56 2    
   113   55   57 1    
   114   57   58 1    
   115   57   59 1    
   116   57  180 1    
   117   58  181 1    
   118   58  182 1    
   119   58  183 1    
   120   59   60 am   BACKBONE|DICT|INTERRES
   121   59  184 1    
   122   60   61 2    
   123   60   62 1    
   124   62   63 1    
   125   62   64 1    
   126   62  185 1    
   127   63  186 1    
   128   63  187 1    
   129   63  188 1    
   130   64   65 am   BACKBONE|DICT|INTERRES
   131   64  189 1    
   132   65   66 2    
   133   67   68 2    
   134   67   69 am   BACKBONE|DICT|INTERRES
   135   69   70 1    
   136   69  190 1    
   137   70   71 1    
   138   70   72 1    
   139   70  191 1    
   140   71  192 1    
   141   71  193 1    
   142   71  194 1    
   143   72   73 2    
   144   72   74 am   BACKBONE|DICT|INTERRES
   145   74   75 1    
   146   74  195 1    
   147   75   76 1    
   148   75   77 1    
   149   75  196 1    
   150   76  197 1    
   151   76  198 1    
   152   76  199 1    
   153   77   78 2    
   154   77   79 am   BACKBONE|DICT|INTERRES
   155   79   80 1    
   156   79  200 1    
   157   80   81 1    
   158   80   82 1    
   159   80  201 1    
   160   81  202 1    
   161   81  203 1    
   162   81  204 1    
   163   82   83 2    
   164   82   84 am   BACKBONE|DICT|INTERRES
   165   84   85 1    
   166   84  205 1    
   167   85   86 1    
   168   85   87 1    
   169   85  206 1    
   170   86  207 1    
   171   86  208 1    
   172   86  209 1    
   173   87   88 2    
   174   87   89 am   BACKBONE|DICT|INTERRES
   175   89   90 1    
   176   89  210 1    
   177   90   91 1    
   178   90   92 1    
   179   90  211 1    
   180   91  212 1    
   181   91  213 1    
   182   91  214 1    
   183   92   93 2    
   184   92   94 am   BACKBONE|DICT|INTERRES
   185   94   95 1    
   186   94  215 1    
   187   95   96 1    
   188   95   97 1    
   189   95  216 1    
   190   96  217 1    
   191   96  218 1    
   192   96  219 1    
   193   97   98 2    
   194   97   99 am   BACKBONE|DICT|INTERRES
   195   99  100 1    
   196   99  220 1    
   197  100  101 1    
   198  100  102 1    
   199  100  221 1    
   200  101  222 1    
   201  101  223 1    
   202  101  224 1    
   203  102  103 2    
   204  102  104 am   BACKBONE|DICT|INTERRES
   205  104  105 1    
   206  104  225 1    
   207  105  106 1    
   208  105  107 1    
   209  105  226 1    
   210  106  227 1    
   211  106  228 1    
   212  106  229 1    
   213  107  108 2    
   214  107  109 am   BACKBONE|DICT|INTERRES
   215  109  110 1    
   216  109  230 1    
   217  110  111 1    
   218  110  112 1    
   219  110  231 1    
   220  111  232 1    
   221  111  233 1    
   222  111  234 1    
   223  112  113 2    
   224  112  114 am   BACKBONE|DICT|INTERRES
   225  114  115 1    
   226  114  235 1    
   227  115  116 1    
   228  115  117 1    
   229  115  236 1    
   230  116  237 1    
   231  116  238 1    
   232  116  239 1    
   233  117  118 2    
   234  117  119 am   BACKBONE|DICT|INTERRES
   235  119  120 1    
   236  119  240 1    
   237  120  121 1    
   238  120  124 1    
   239  120  241 1    
   240  121  122 am   BACKBONE|DICT|INTERRES
   241  121  123 2    
   242  122  242 1    
   243  122  243 1    
   244  124  125 1    
   245  124  244 1    
   246  124  245 1    
   247  125  126 1    
   248  126  246 1    
   249  126  247 1    
@<TRIPOS>SUBSTRUCTURE
     1 UNK         1 GROUP             0       ****    0 ROOT    
