@<TRIPOS>MOLECULE
3R540
247   249    1
SMALL
USER_CHARGES


@<TRIPOS>ATOM
      1 CA         -4.0326  -10.9168  -49.0242 C.3       0 UNK        -0.1800 
      2 C          -2.9521  -11.9650  -49.2475 C.2       0 UNK         0.5000 
      3 O          -2.4401  -12.0906  -50.3597 O.2       0 UNK        -0.5000 
      4 N          -2.6035  -12.7166  -48.1952 N.am      1 UNK        -0.5000 
      5 CA         -1.5973  -13.7871  -48.2245 C.3       1 UNK         0.1400 
      6 C6         -1.7767  -14.7828  -47.0481 C.3       23 UNK        -0.0398 
      7 S7         -3.4420  -15.5325  -46.8845 S.3       23 UNK        -0.2404 
      8 C8         -3.9134  -16.0474  -48.5740 C.3       23 UNK        -0.0205 
      9 C9         -3.3066  -17.3839  -48.9859 C.ar      23 UNK        -0.0193 
     10 C10        -4.1298  -18.4990  -49.1748 C.ar      23 UNK        -0.1150 
     11 C11        -3.5926  -19.7160  -49.6038 C.ar      23 UNK        -0.0193 
     12 C12        -2.2140  -19.8237  -49.8007 C.ar      23 UNK        -0.1150 
     13 C13        -1.3706  -18.7291  -49.5833 C.ar      23 UNK        -0.0193 
     14 C14        -1.9316  -17.5064  -49.2073 C.ar      23 UNK        -0.1150 
     15 C15         0.1424  -18.8297  -49.7646 C.3       23 UNK        -0.0205 
     16 S16         0.8569  -20.4324  -49.2622 S.3       23 UNK        -0.2404 
     17 C17         0.6312  -20.3890  -47.4525 C.3       23 UNK        -0.0398 
     18 CA          0.1743  -21.7474  -46.8619 C.3       11 UNK         0.1400 
     19 N           0.5361  -21.8652  -45.4456 N.am      11 UNK        -0.5000 
     20 C           0.3890  -22.9661  -44.6944 C.2       10 UNK         0.5000 
     21 O          -0.0402  -24.0370  -45.1222 O.2       10 UNK        -0.5000 
     22 CA          0.7266  -22.8329  -43.1980 C.3       10 UNK         0.1400 
     23 CB          2.2442  -22.8758  -42.9660 C.3       10 UNK        -0.1800 
     24 N           0.1648  -21.6178  -42.6058 N.am      10 UNK        -0.5000 
     25 C          -1.1496  -21.3721  -42.5036 C.2       9 UNK         0.5000 
     26 O          -2.0212  -22.1690  -42.8480 O.2       9 UNK        -0.5000 
     27 CA         -1.5667  -19.9909  -41.9701 C.3       9 UNK         0.1400 
     28 CB         -1.5064  -19.9614  -40.4360 C.3       9 UNK        -0.1800 
     29 N          -0.7639  -18.9004  -42.5254 N.am      9 UNK        -0.5000 
     30 C          -0.7124  -18.5827  -43.8281 C.2       8 UNK         0.5000 
     31 O          -1.3638  -19.1556  -44.6994 O.2       8 UNK        -0.5000 
     32 CA          0.2799  -17.4824  -44.2389 C.3       8 UNK         0.1400 
     33 CB         -0.2717  -16.0896  -43.9016 C.3       8 UNK        -0.1800 
     34 N           1.5878  -17.6576  -43.6123 N.am      8 UNK        -0.5000 
     35 C           2.3888  -18.7180  -43.7778 C.2       7 UNK         0.5000 
     36 O           2.1393  -19.6536  -44.5364 O.2       7 UNK        -0.5000 
     37 CA          3.6536  -18.7659  -42.9059 C.3       7 UNK         0.1400 
     38 CB          4.7749  -17.9021  -43.5019 C.3       7 UNK        -0.1800 
     39 N           3.3838  -18.3390  -41.5337 N.am      7 UNK        -0.5000 
     40 C           2.6823  -19.0513  -40.6424 C.2       6 UNK         0.5000 
     41 O           2.2041  -20.1612  -40.8784 O.2       6 UNK        -0.5000 
     42 CA          2.4566  -18.3989  -39.2656 C.3       6 UNK         0.1400 
     43 CB          3.6816  -18.6031  -38.3617 C.3       6 UNK        -0.1800 
     44 N           2.1517  -16.9687  -39.3546 N.am      6 UNK        -0.5000 
     45 C           1.0168  -16.4770  -39.8695 C.2       5 UNK         0.5000 
     46 O           0.1148  -17.1780  -40.3262 O.2       5 UNK        -0.5000 
     47 CA          0.8784  -14.9432  -39.9237 C.3       5 UNK         0.1400 
     48 CB          0.4562  -14.3926  -38.5530 C.3       5 UNK        -0.1800 
     49 N           2.0634  -14.2152  -40.3957 N.am      5 UNK        -0.5000 
     50 C           2.7501  -14.4819  -41.5146 C.2       4 UNK         0.5000 
     51 O           2.5902  -15.4973  -42.1923 O.2       4 UNK        -0.5000 
     52 CA          3.8068  -13.4489  -41.9496 C.3       4 UNK         0.1400 
     53 CB          5.1457  -13.7339  -41.2524 C.3       4 UNK        -0.1800 
     54 N           4.0158  -13.4711  -43.4008 N.am      4 UNK        -0.5000 
     55 C           3.0744  -13.2001  -44.3159 C.2       3 UNK         0.5000 
     56 O           1.9517  -12.7681  -44.0376 O.2       3 UNK        -0.5000 
     57 CA          3.4512  -13.5131  -45.7784 C.3       3 UNK         0.1400 
     58 CB          3.4505  -15.0325  -46.0200 C.3       3 UNK        -0.1800 
     59 N           2.5352  -12.9033  -46.7392 N.am      3 UNK        -0.5000 
     60 C           2.4001  -11.5970  -46.9853 C.2       2 UNK         0.5000 
     61 O           3.1095  -10.7320  -46.4687 O.2       2 UNK        -0.5000 
     62 CA          1.2892  -11.1708  -47.9692 C.3       2 UNK         0.1400 
     63 CB          1.8374  -11.0736  -49.4057 C.3       2 UNK        -0.1800 
     64 N           0.0527  -11.9710  -47.9311 N.am      2 UNK        -0.5000 
     65 C          -0.1480  -13.2545  -48.2725 C.2       1 UNK         0.5000 
     66 O           0.7536  -14.0215  -48.6110 O.2       1 UNK        -0.5000 
     67 C          -1.3301  -22.0077  -47.0925 C.2       11 UNK         0.5000 
     68 O          -1.6837  -22.7721  -47.9936 O.2       11 UNK        -0.5000 
     69 N          -2.1745  -21.4110  -46.2373 N.am      12 UNK        -0.5000 
     70 CA         -3.6245  -21.5873  -46.2142 C.3       12 UNK         0.1400 
     71 CB         -4.2586  -20.6005  -45.2232 C.3       12 UNK        -0.1800 
     72 C          -4.0507  -23.0332  -45.9118 C.2       12 UNK         0.5000 
     73 O          -4.8964  -23.5727  -46.6253 O.2       12 UNK        -0.5000 
     74 N          -3.4448  -23.6388  -44.8809 N.am      13 UNK        -0.5000 
     75 CA         -3.7017  -25.0156  -44.4547 C.3       13 UNK         0.1400 
     76 CB         -3.0064  -25.2750  -43.1096 C.3       13 UNK        -0.1800 
     77 C          -3.2695  -26.0615  -45.4975 C.2       13 UNK         0.5000 
     78 O          -3.9937  -27.0329  -45.7192 O.2       13 UNK        -0.5000 
     79 N          -2.1077  -25.8400  -46.1261 N.am      14 UNK        -0.5000 
     80 CA         -1.5643  -26.6961  -47.1810 C.3       14 UNK         0.1400 
     81 CB         -0.0673  -26.3906  -47.3438 C.3       14 UNK        -0.1800 
     82 C          -2.2841  -26.5348  -48.5334 C.2       14 UNK         0.5000 
     83 O          -2.1984  -27.4388  -49.3653 O.2       14 UNK        -0.5000 
     84 N          -2.9384  -25.3806  -48.7399 N.am      15 UNK        -0.5000 
     85 CA         -3.5197  -24.9004  -50.0000 C.3       15 UNK         0.1400 
     86 CB         -4.7019  -25.7837  -50.4475 C.3       15 UNK        -0.1800 
     87 C          -2.4454  -24.7163  -51.0944 C.2       15 UNK         0.5000 
     88 O          -2.7014  -24.9742  -52.2717 O.2       15 UNK        -0.5000 
     89 N          -1.2406  -24.3069  -50.6705 N.am      16 UNK        -0.5000 
     90 CA         -0.0040  -24.3852  -51.4517 C.3       16 UNK         0.1400 
     91 CB          1.1940  -24.1578  -50.5183 C.3       16 UNK        -0.1800 
     92 C           0.0563  -23.4483  -52.6715 C.2       16 UNK         0.5000 
     93 O           0.7969  -23.7371  -53.6125 O.2       16 UNK        -0.5000 
     94 N          -0.7254  -22.3615  -52.6514 N.am      17 UNK        -0.5000 
     95 CA         -0.8586  -21.4339  -53.7760 C.3       17 UNK         0.1400 
     96 CB         -1.3764  -20.0869  -53.2597 C.3       17 UNK        -0.1800 
     97 C          -1.7804  -21.9640  -54.8896 C.2       17 UNK         0.5000 
     98 O          -1.7046  -21.4635  -56.0121 O.2       17 UNK        -0.5000 
     99 N          -2.6370  -22.9466  -54.5702 N.am      18 UNK        -0.5000 
    100 CA        -3.6507  -23.5467  -55.4390 C.3       18 UNK         0.1400 
    101 CB        -2.9828  -24.4385  -56.5095 C.3       18 UNK        -0.1800 
    102 C         -4.6081  -22.4807  -56.0136 C.2       18 UNK         0.5000 
    103 O         -5.4537  -21.9753  -55.2768 O.2       18 UNK        -0.5000 
    104 N         -4.4531  -22.1511  -57.3017 N.am      19 UNK        -0.5000 
    105 CA        -5.2454  -21.1474  -58.0112 C.3       19 UNK         0.1400 
    106 CB        -5.3464  -21.5665  -59.4870 C.3       19 UNK        -0.1800 
    107 C         -4.6764  -19.7177  -57.8987 C.2       19 UNK         0.5000 
    108 O         -5.3770  -18.7737  -58.2672 O.2       19 UNK        -0.5000 
    109 N         -3.4280  -19.5612  -57.4292 N.am      20 UNK        -0.5000 
    110 CA        -2.7438  -18.2643  -57.3430 C.3       20 UNK         0.1400 
    111 CB        -1.2239  -18.4862  -57.2898 C.3       20 UNK        -0.1800 
    112 C         -3.2095  -17.3968  -56.1565 C.2       20 UNK         0.5000 
    113 O         -2.9783  -16.1869  -56.1673 O.2       20 UNK        -0.5000 
    114 N         -3.8607  -18.0174  -55.1684 N.am      21 UNK        -0.5000 
    115 CA        -4.4930  -17.3732  -54.0227 C.3       21 UNK         0.1400 
    116 CB        -3.4524  -17.0613  -52.9224 C.3       21 UNK        -0.1800 
    117 C         -5.6530  -18.2740  -53.5659 C.2       21 UNK         0.5000 
    118 O         -6.3389  -18.8458  -54.4154 O.2       21 UNK        -0.5000 
    119 N         -5.8479  -18.3927  -52.2475 N.am      22 UNK        -0.5000 
    120 CA        -6.8018  -19.3060  -51.5911 C.3       22 UNK         0.1400 
    121 C         -8.3092  -18.9708  -51.8126 C.2       22 UNK         0.5000 
    122 N         -8.6605  -17.7753  -52.2698 N.am      22 UNK        -0.7600 
    123 O         -9.1802  -19.7900  -51.5319 O.2       22 UNK        -0.5000 
    124 C124       -6.4838  -20.8101  -51.8421 C.3       23 UNK        -0.0398 
    125 S125       -4.7385  -21.2943  -51.5838 S.3       23 UNK        -0.2404 
    126 C126       -4.4794  -20.9336  -49.8194 C.3       23 UNK        -0.0205 
    127 H127       -3.6423   -9.9229  -49.2432 H         1 UNK         0.0600 
    128 H128       -4.3956  -10.9209  -47.9961 H         1 UNK         0.0600 
    129 H129       -4.8794  -11.1049  -49.6841 H         1 UNK         0.0600 
    130 H130       -3.0760  -12.5836  -47.3119 H         1 UNK         0.3000 
    131 H131       -1.7175  -14.3354  -49.1589 H         1 UNK         0.0600 
    132 H132       -1.0479  -15.5924  -47.1080 H         1 UNK         0.0800 
    133 H133       -1.5649  -14.2733  -46.1065 H         1 UNK         0.0800 
    134 H134       -5.0017  -16.1211  -48.5926 H         1 UNK         0.0800 
    135 H135       -3.6742  -15.2826  -49.3106 H         1 UNK         0.0800 
    136 H136       -5.1902  -18.4152  -48.9893 H         1 UNK         0.1150 
    137 H137       -1.8000  -20.7711  -50.1128 H         1 UNK         0.1150 
    138 H138       -1.2876  -16.6507  -49.0814 H         1 UNK         0.1150 
    139 H139        0.3857  -18.6468  -50.8105 H         1 UNK         0.0800 
    140 H140        0.6433  -18.0433  -49.1974 H         1 UNK         0.0800 
    141 H141       -0.0505  -19.5857  -47.1669 H         1 UNK         0.0800 
    142 H142        1.6019  -20.1130  -47.0404 H         1 UNK         0.0800 
    143 H143        0.7196  -22.5412  -47.3771 H         1 UNK         0.0600 
    144 H144        0.9337  -21.0350  -45.0133 H         1 UNK         0.3000 
    145 H145        0.2843  -23.6881  -42.6827 H         1 UNK         0.0600 
    146 H146        2.6756  -23.7887  -43.3781 H         1 UNK         0.0600 
    147 H147        2.7509  -22.0326  -43.4351 H         1 UNK         0.0600 
    148 H148        2.4799  -22.8559  -41.9018 H         1 UNK         0.0600 
    149 H149        0.8238  -20.9292  -42.2596 H         1 UNK         0.3000 
    150 H150       -2.6030  -19.8217  -42.2690 H         1 UNK         0.0600 
    151 H151       -2.0929  -20.7739  -40.0054 H         1 UNK         0.0600 
    152 H152       -1.9107  -19.0278  -40.0447 H         1 UNK         0.0600 
    153 H153       -0.4842  -20.0632  -40.0705 H         1 UNK         0.0600 
    154 H154       -0.2282  -18.3505  -41.8603 H         1 UNK         0.3000 
    155 H155        0.4161  -17.5434  -45.3206 H         1 UNK         0.0600 
    156 H156       -0.3526  -15.9391  -42.8252 H         1 UNK         0.0600 
    157 H157        0.3699  -15.3031  -44.2997 H         1 UNK         0.0600 
    158 H158       -1.2664  -15.9507  -44.3259 H         1 UNK         0.0600 
    159 H159        1.8985  -16.9121  -42.9900 H         1 UNK         0.3000 
    160 H160        4.0010  -19.8011  -42.8829 H         1 UNK         0.0600 
    161 H161        4.5256  -16.8418  -43.4742 H         1 UNK         0.0600 
    162 H162        4.9662  -18.1702  -44.5418 H         1 UNK         0.0600 
    163 H163        5.7072  -18.0382  -42.9539 H         1 UNK         0.0600 
    164 H164        3.6587  -17.3978  -41.2911 H         1 UNK         0.3000 
    165 H165        1.6049  -18.8990  -38.7993 H         1 UNK         0.0600 
    166 H166        3.4989  -18.2193  -37.3579 H         1 UNK         0.0600 
    167 H167        3.9221  -19.6627  -38.2646 H         1 UNK         0.0600 
    168 H168        4.5648  -18.1008  -38.7582 H         1 UNK         0.0600 
    169 H169        2.8508  -16.3240  -39.0165 H         1 UNK         0.3000 
    170 H170        0.0763  -14.7238  -40.6310 H         1 UNK         0.0600 
    171 H171       -0.4330  -14.9046  -38.1822 H         1 UNK         0.0600 
    172 H172        1.2429  -14.5195  -37.8083 H         1 UNK         0.0600 
    173 H173        0.2160  -13.3309  -38.6104 H         1 UNK         0.0600 
    174 H174        2.2890  -13.3724  -39.8873 H         1 UNK         0.3000 
    175 H175        3.4611  -12.4519  -41.6694 H         1 UNK         0.0600 
    176 H176        5.5318  -14.7210  -41.5112 H         1 UNK         0.0600 
    177 H177        5.8993  -12.9958  -41.5278 H         1 UNK         0.0600 
    178 H178        5.0394  -13.6975  -40.1675 H         1 UNK         0.0600 
    179 H179        4.8990  -13.8459  -43.7130 H         1 UNK         0.3000 
    180 H180        4.4530  -13.1230  -45.9689 H         1 UNK         0.0600 
    181 H181        2.4821  -15.4774  -45.7865 H         1 UNK         0.0600 
    182 H182        4.1976  -15.5292  -45.4021 H         1 UNK         0.0600 
    183 H183        3.6856  -15.2689  -47.0580 H         1 UNK         0.0600 
    184 H184        1.9230  -13.5310  -47.2515 H         1 UNK         0.3000 
    185 H185        0.9898  -10.1652  -47.6697 H         1 UNK         0.0600 
    186 H186        2.6860  -10.3900  -49.4529 H         1 UNK         0.0600 
    187 H187        2.1783  -12.0401  -49.7779 H         1 UNK         0.0600 
    188 H188        1.0788  -10.6980  -50.0924 H         1 UNK         0.0600 
    189 H189       -0.7662  -11.4578  -47.6368 H         1 UNK         0.3000 
    190 H190       -1.7960  -20.7558  -45.5572 H         1 UNK         0.3000 
    191 H191       -4.0018  -21.3323  -47.2001 H         1 UNK         0.0600 
    192 H192       -3.8984  -20.7586  -44.2072 H         1 UNK         0.0600 
    193 H193       -5.3440  -20.7055  -45.2077 H         1 UNK         0.0600 
    194 H194       -4.0362  -19.5697  -45.5007 H         1 UNK         0.0600 
    195 H195       -2.7883  -23.1061  -44.3153 H         1 UNK         0.3000 
    196 H196       -4.7781  -25.1227  -44.3055 H         1 UNK         0.0600 
    197 H197       -3.1848  -26.2946  -42.7658 H         1 UNK         0.0600 
    198 H198       -3.3793  -24.6018  -42.3377 H         1 UNK         0.0600 
    199 H199       -1.9271  -25.1351  -43.1818 H         1 UNK         0.0600 
    200 H200       -1.5363  -25.0473  -45.8444 H         1 UNK         0.3000 
    201 H201       -1.6685  -27.7385  -46.8728 H         1 UNK         0.0600 
    202 H202        0.4768  -26.5839  -46.4192 H         1 UNK         0.0600 
    203 H203        0.0993  -25.3478  -47.6168 H         1 UNK         0.0600 
    204 H204        0.3804  -27.0114  -48.1210 H         1 UNK         0.0600 
    205 H205       -2.9091  -24.6945  -47.9959 H         1 UNK         0.3000 
    206 H206       -3.9215  -23.9130  -49.7907 H         1 UNK         0.0600 
    207 H207       -5.4310  -25.8999  -49.6457 H         1 UNK         0.0600 
    208 H208       -5.2210  -25.3355  -51.2956 H         1 UNK         0.0600 
    209 H209       -4.3761  -26.7780  -50.7536 H         1 UNK         0.0600 
    210 H210       -1.1506  -24.0420  -49.6966 H         1 UNK         0.3000 
    211 H211        0.0691  -25.4034  -51.8396 H         1 UNK         0.0600 
    212 H212        1.2529  -24.9355  -49.7575 H         1 UNK         0.0600 
    213 H213        2.1343  -24.1766  -51.0709 H         1 UNK         0.0600 
    214 H214        1.1304  -23.1972  -50.0104 H         1 UNK         0.0600 
    215 H215       -1.3082  -22.2001  -51.8438 H         1 UNK         0.3000 
    216 H216        0.1265  -21.2677  -54.2169 H         1 UNK         0.0600 
    217 H217       -2.3613  -20.1846  -52.8062 H         1 UNK         0.0600 
    218 H218       -1.4583  -19.3587  -54.0663 H         1 UNK         0.0600 
    219 H219       -0.7022  -19.6675  -52.5168 H         1 UNK         0.0600 
    220 H220       -2.6138  -23.3152  -53.6268 H         1 UNK         0.3000 
    221 H221       -4.2571  -24.1939  -54.8034 H         1 UNK         0.0600 
    222 H222       -2.2964  -23.8822  -57.1484 H         1 UNK         0.0600 
    223 H223       -2.4133  -25.2408  -56.0403 H         1 UNK         0.0600 
    224 H224       -3.7296  -24.9086  -57.1506 H         1 UNK         0.0600 
    225 H225       -3.7084  -22.5913  -57.8227 H         1 UNK         0.3000 
    226 H226       -6.2559  -21.1272  -57.5973 H         1 UNK         0.0600 
    227 H227       -5.8023  -22.5517  -59.5868 H         1 UNK         0.0600 
    228 H228       -5.9632  -20.8668  -60.0526 H         1 UNK         0.0600 
    229 H229       -4.3660  -21.5995  -59.9641 H         1 UNK         0.0600 
    230 H230       -2.9059  -20.3709  -57.1051 H         1 UNK         0.3000 
    231 H231       -2.9606  -17.7041  -58.2551 H         1 UNK         0.0600 
    232 H232       -0.6910  -17.5360  -57.3418 H         1 UNK         0.0600 
    233 H233       -0.8828  -19.0960  -58.1265 H         1 UNK         0.0600 
    234 H234       -0.9169  -18.9787  -56.3680 H         1 UNK         0.0600 
    235 H235       -4.0776  -18.9990  -55.2796 H         1 UNK         0.3000 
    236 H236       -4.9404  -16.4338  -54.3536 H         1 UNK         0.0600 
    237 H237       -2.6010  -16.5122  -53.3243 H         1 UNK         0.0600 
    238 H238       -3.8836  -16.4410  -52.1361 H         1 UNK         0.0600 
    239 H239       -3.0687  -17.9665  -52.4529 H         1 UNK         0.0600 
    240 H240       -5.2305  -17.8900  -51.6276 H         1 UNK         0.3000 
    241 H241       -6.6686  -19.1332  -50.5256 H         1 UNK         0.0600 
    242 H242       -7.9600  -17.0896  -52.5011 H         1 UNK         0.3800 
    243 H243       -9.6365  -17.5601  -52.4004 H         1 UNK         0.3800 
    244 H244       -7.1005  -21.4409  -51.2000 H         1 UNK         0.0800 
    245 H245       -6.7479  -21.0795  -52.8659 H         1 UNK         0.0800 
    246 H246       -3.9867  -21.7921  -49.3699 H         1 UNK         0.0800 
    247 H247       -5.4328  -20.8270  -49.3006 H         1 UNK         0.0800 
@<TRIPOS>BOND
     1    1    2 1    
     2    1  127 1    
     3    1  128 1    
     4    1  129 1    
     5    2    3 2    
     6    2    4 am   BACKBONE|DICT|INTERRES
     7    4    5 1    
     8    4  130 1    
     9    5    6 1    
    10    5   65 1    
    11    5  131 1    
    12    6    7 1    
    13    6  132 1    
    14    6  133 1    
    15    7    8 1    
    16    8    9 1    
    17    8  134 1    
    18    8  135 1    
    19    9   10 ar   
    20    9   14 ar   
    21   10   11 ar   
    22   10  136 1    
    23   11   12 ar   
    24   11  126 1    
    25   12   13 ar   
    26   12  137 1    
    27   13   14 ar   
    28   13   15 1    
    29   14  138 1    
    30   15   16 1    
    31   15  139 1    
    32   15  140 1    
    33   16   17 1    
    34   17   18 1    
    35   17  141 1    
    36   17  142 1    
    37   18   19 1    
    38   18   67 1    
    39   18  143 1    
    40   19   20 am   BACKBONE|DICT|INTERRES
    41   19  144 1    
    42   20   21 2    
    43   20   22 1    
    44   22   23 1    
    45   22   24 1    
    46   22  145 1    
    47   23  146 1    
    48   23  147 1    
    49   23  148 1    
    50   24   25 am   BACKBONE|DICT|INTERRES
    51   24  149 1    
    52   25   26 2    
    53   25   27 1    
    54   27   28 1    
    55   27   29 1    
    56   27  150 1    
    57   28  151 1    
    58   28  152 1    
    59   28  153 1    
    60   29   30 am   BACKBONE|DICT|INTERRES
    61   29  154 1    
    62   30   31 2    
    63   30   32 1    
    64   32   33 1    
    65   32   34 1    
    66   32  155 1    
    67   33  156 1    
    68   33  157 1    
    69   33  158 1    
    70   34   35 am   BACKBONE|DICT|INTERRES
    71   34  159 1    
    72   35   36 2    
    73   35   37 1    
    74   37   38 1    
    75   37   39 1    
    76   37  160 1    
    77   38  161 1    
    78   38  162 1    
    79   38  163 1    
    80   39   40 am   BACKBONE|DICT|INTERRES
    81   39  164 1    
    82   40   41 2    
    83   40   42 1    
    84   42   43 1    
    85   42   44 1    
    86   42  165 1    
    87   43  166 1    
    88   43  167 1    
    89   43  168 1    
    90   44   45 am   BACKBONE|DICT|INTERRES
    91   44  169 1    
    92   45   46 2    
    93   45   47 1    
    94   47   48 1    
    95   47   49 1    
    96   47  170 1    
    97   48  171 1    
    98   48  172 1    
    99   48  173 1    
   100   49   50 am   BACKBONE|DICT|INTERRES
   101   49  174 1    
   102   50   51 2    
   103   50   52 1    
   104   52   53 1    
   105   52   54 1    
   106   52  175 1    
   107   53  176 1    
   108   53  177 1    
   109   53  178 1    
   110   54   55 am   BACKBONE|DICT|INTERRES
   111   54  179 1    
   112   55   56 2    
   113   55   57 1    
   114   57   58 1    
   115   57   59 1    
   116   57  180 1    
   117   58  181 1    
   118   58  182 1    
   119   58  183 1    
   120   59   60 am   BACKBONE|DICT|INTERRES
   121   59  184 1    
   122   60   61 2    
   123   60   62 1    
   124   62   63 1    
   125   62   64 1    
   126   62  185 1    
   127   63  186 1    
   128   63  187 1    
   129   63  188 1    
   130   64   65 am   BACKBONE|DICT|INTERRES
   131   64  189 1    
   132   65   66 2    
   133   67   68 2    
   134   67   69 am   BACKBONE|DICT|INTERRES
   135   69   70 1    
   136   69  190 1    
   137   70   71 1    
   138   70   72 1    
   139   70  191 1    
   140   71  192 1    
   141   71  193 1    
   142   71  194 1    
   143   72   73 2    
   144   72   74 am   BACKBONE|DICT|INTERRES
   145   74   75 1    
   146   74  195 1    
   147   75   76 1    
   148   75   77 1    
   149   75  196 1    
   150   76  197 1    
   151   76  198 1    
   152   76  199 1    
   153   77   78 2    
   154   77   79 am   BACKBONE|DICT|INTERRES
   155   79   80 1    
   156   79  200 1    
   157   80   81 1    
   158   80   82 1    
   159   80  201 1    
   160   81  202 1    
   161   81  203 1    
   162   81  204 1    
   163   82   83 2    
   164   82   84 am   BACKBONE|DICT|INTERRES
   165   84   85 1    
   166   84  205 1    
   167   85   86 1    
   168   85   87 1    
   169   85  206 1    
   170   86  207 1    
   171   86  208 1    
   172   86  209 1    
   173   87   88 2    
   174   87   89 am   BACKBONE|DICT|INTERRES
   175   89   90 1    
   176   89  210 1    
   177   90   91 1    
   178   90   92 1    
   179   90  211 1    
   180   91  212 1    
   181   91  213 1    
   182   91  214 1    
   183   92   93 2    
   184   92   94 am   BACKBONE|DICT|INTERRES
   185   94   95 1    
   186   94  215 1    
   187   95   96 1    
   188   95   97 1    
   189   95  216 1    
   190   96  217 1    
   191   96  218 1    
   192   96  219 1    
   193   97   98 2    
   194   97   99 am   BACKBONE|DICT|INTERRES
   195   99  100 1    
   196   99  220 1    
   197  100  101 1    
   198  100  102 1    
   199  100  221 1    
   200  101  222 1    
   201  101  223 1    
   202  101  224 1    
   203  102  103 2    
   204  102  104 am   BACKBONE|DICT|INTERRES
   205  104  105 1    
   206  104  225 1    
   207  105  106 1    
   208  105  107 1    
   209  105  226 1    
   210  106  227 1    
   211  106  228 1    
   212  106  229 1    
   213  107  108 2    
   214  107  109 am   BACKBONE|DICT|INTERRES
   215  109  110 1    
   216  109  230 1    
   217  110  111 1    
   218  110  112 1    
   219  110  231 1    
   220  111  232 1    
   221  111  233 1    
   222  111  234 1    
   223  112  113 2    
   224  112  114 am   BACKBONE|DICT|INTERRES
   225  114  115 1    
   226  114  235 1    
   227  115  116 1    
   228  115  117 1    
   229  115  236 1    
   230  116  237 1    
   231  116  238 1    
   232  116  239 1    
   233  117  118 2    
   234  117  119 am   BACKBONE|DICT|INTERRES
   235  119  120 1    
   236  119  240 1    
   237  120  121 1    
   238  120  124 1    
   239  120  241 1    
   240  121  122 am   BACKBONE|DICT|INTERRES
   241  121  123 2    
   242  122  242 1    
   243  122  243 1    
   244  124  125 1    
   245  124  244 1    
   246  124  245 1    
   247  125  126 1    
   248  126  246 1    
   249  126  247 1    
@<TRIPOS>SUBSTRUCTURE
     1 UNK         1 GROUP             0       ****    0 ROOT    
