@<TRIPOS>MOLECULE
3R540
247   249    1
SMALL
USER_CHARGES


@<TRIPOS>ATOM
      1 CA          0.0697  -10.7353  -44.5820 C.3       0 UNK        -0.1800 
      2 C           1.0756   -9.9875  -45.4556 C.2       0 UNK         0.5000 
      3 O           1.1430   -8.7635  -45.3654 O.2       0 UNK        -0.5000 
      4 N           1.8824  -10.6434  -46.3054 N.am      1 UNK        -0.5000 
      5 CA          1.9884  -12.0867  -46.5902 C.3       1 UNK         0.1400 
      6 C6          0.6876  -12.7416  -47.1339 C.3       23 UNK        -0.0398 
      7 S7          0.0015  -11.8842  -48.5902 S.3       23 UNK        -0.2404 
      8 C8          0.9911  -12.5934  -49.9438 C.3       23 UNK        -0.0205 
      9 C9          0.6484  -14.0502  -50.2163 C.ar      23 UNK        -0.0193 
     10 C10        -0.4614  -14.3740  -51.0013 C.ar      23 UNK        -0.1150 
     11 C11        -0.7603  -15.7081  -51.2922 C.ar      23 UNK        -0.0193 
     12 C12         0.0615  -16.7212  -50.7907 C.ar      23 UNK        -0.1150 
     13 C13         1.1563  -16.4120  -49.9774 C.ar      23 UNK        -0.0193 
     14 C14         1.4513  -15.0738  -49.7044 C.ar      23 UNK        -0.1150 
     15 C15         2.0242  -17.5172  -49.3934 C.3       23 UNK        -0.0205 
     16 S16         1.3299  -18.1721  -47.8405 S.3       23 UNK        -0.2404 
     17 C17        -0.0644  -19.1501  -48.4838 C.3       23 UNK        -0.0398 
     18 CA         -0.4995  -20.3152  -47.5633 C.3       11 UNK         0.1400 
     19 N          -1.0516  -19.8742  -46.2744 N.am      11 UNK        -0.5000 
     20 C          -1.4335  -20.7086  -45.2933 C.2       10 UNK         0.5000 
     21 O          -1.2655  -21.9262  -45.3286 O.2       10 UNK        -0.5000 
     22 CA         -2.1867  -20.1076  -44.0967 C.3       10 UNK         0.1400 
     23 CB         -1.2193  -19.6574  -43.0000 C.3       10 UNK        -0.1800 
     24 N          -3.0517  -18.9986  -44.4898 N.am      10 UNK        -0.5000 
     25 C          -4.2124  -19.1596  -45.1408 C.2       9 UNK         0.5000 
     26 O          -4.6738  -20.2582  -45.4484 O.2       9 UNK        -0.5000 
     27 CA         -4.9648  -17.8822  -45.5557 C.3       9 UNK         0.1400 
     28 CB         -5.8492  -17.3763  -44.4068 C.3       9 UNK        -0.1800 
     29 N          -4.0696  -16.8089  -45.9857 N.am      9 UNK        -0.5000 
     30 C          -3.2586  -16.8827  -47.0497 C.2       8 UNK         0.5000 
     31 O          -3.1998  -17.8628  -47.7927 O.2       8 UNK        -0.5000 
     32 CA         -2.3241  -15.6804  -47.2844 C.3       8 UNK         0.1400 
     33 CB         -3.0404  -14.5946  -48.1023 C.3       8 UNK        -0.1800 
     34 N          -1.8211  -15.0607  -46.0541 N.am      8 UNK        -0.5000 
     35 C          -1.1350  -15.6672  -45.0752 C.2       7 UNK         0.5000 
     36 O          -0.8846  -16.8744  -45.0644 O.2       7 UNK        -0.5000 
     37 CA         -0.6441  -14.7396  -43.9428 C.3       7 UNK         0.1400 
     38 CB         -1.7760  -13.8769  -43.3428 C.3       7 UNK        -0.1800 
     39 N           0.1164  -15.4360  -42.9027 N.am      7 UNK        -0.5000 
     40 C          -0.3335  -16.2700  -41.9564 C.2       6 UNK         0.5000 
     41 O          -1.5233  -16.5332  -41.7740 O.2       6 UNK        -0.5000 
     42 CA          0.7562  -16.9421  -41.0891 C.3       6 UNK         0.1400 
     43 CB          0.1765  -17.7520  -39.9154 C.3       6 UNK        -0.1800 
     44 N           1.6081  -17.8198  -41.8964 N.am      6 UNK        -0.5000 
     45 C           2.5745  -17.3999  -42.7209 C.2       5 UNK         0.5000 
     46 O           2.9358  -16.2194  -42.7888 O.2       5 UNK        -0.5000 
     47 CA          3.2140  -18.4553  -43.6408 C.3       5 UNK         0.1400 
     48 CB          2.1520  -19.2186  -44.4589 C.3       5 UNK        -0.1800 
     49 N           4.1379  -17.7486  -44.5168 N.am      5 UNK        -0.5000 
     50 C           5.0724  -18.2664  -45.3193 C.2       4 UNK         0.5000 
     51 O           5.2439  -19.4721  -45.5015 O.2       4 UNK        -0.5000 
     52 CA          6.0093  -17.2447  -45.9925 C.3       4 UNK         0.1400 
     53 CB          5.3631  -16.6727  -47.2637 C.3       4 UNK        -0.1800 
     54 N           6.3536  -16.1442  -45.0886 N.am      4 UNK        -0.5000 
     55 C           7.0840  -16.2665  -43.9725 C.2       3 UNK         0.5000 
     56 O           7.6594  -17.3066  -43.6500 O.2       3 UNK        -0.5000 
     57 CA          7.1596  -15.0495  -43.0292 C.3       3 UNK         0.1400 
     58 CB          8.3667  -14.1524  -43.3653 C.3       3 UNK        -0.1800 
     59 N           5.9128  -14.2746  -42.9246 N.am      3 UNK        -0.5000 
     60 C           5.3340  -13.4857  -43.8393 C.2       2 UNK         0.5000 
     61 O           5.7824  -13.3083  -44.9750 O.2       2 UNK        -0.5000 
     62 CA          4.0409  -12.7758  -43.3922 C.3       2 UNK         0.1400 
     63 CB          4.3544  -11.6496  -42.3937 C.3       2 UNK        -0.1800 
     64 N           3.3098  -12.1995  -44.5190 N.am      2 UNK        -0.5000 
     65 C           2.6310  -12.8963  -45.4394 C.2       1 UNK         0.5000 
     66 O           2.4990  -14.1198  -45.4010 O.2       1 UNK        -0.5000 
     67 C          -1.5056  -21.2087  -48.3161 C.2       11 UNK         0.5000 
     68 O          -1.1467  -22.3056  -48.7455 O.2       11 UNK        -0.5000 
     69 N          -2.7549  -20.7334  -48.4243 N.am      12 UNK        -0.5000 
     70 CA         -3.8643  -21.4531  -49.0455 C.3       12 UNK         0.1400 
     71 CB         -5.0861  -20.5295  -49.1233 C.3       12 UNK        -0.1800 
     72 C          -4.2076  -22.7674  -48.3233 C.2       12 UNK         0.5000 
     73 O          -4.4243  -23.7775  -48.9921 O.2       12 UNK        -0.5000 
     74 N          -4.2173  -22.7411  -46.9824 N.am      13 UNK        -0.5000 
     75 CA         -4.4484  -23.9096  -46.1324 C.3       13 UNK         0.1400 
     76 CB         -4.6229  -23.4704  -44.6716 C.3       13 UNK        -0.1800 
     77 C          -3.3369  -24.9666  -46.2529 C.2       13 UNK         0.5000 
     78 O          -3.6480  -26.1498  -46.3874 O.2       13 UNK        -0.5000 
     79 N          -2.0687  -24.5293  -46.2451 N.am      14 UNK        -0.5000 
     80 CA         -0.8914  -25.3866  -46.4180 C.3       14 UNK         0.1400 
     81 CB          0.3843  -24.5707  -46.1600 C.3       14 UNK        -0.1800 
     82 C          -0.8361  -26.0530  -47.8048 C.2       14 UNK         0.5000 
     83 O          -0.4429  -27.2152  -47.9098 O.2       14 UNK        -0.5000 
     84 N          -1.2719  -25.3169  -48.8342 N.am      15 UNK        -0.5000 
     85 CA         -1.4291  -25.7994  -50.2054 C.3       15 UNK         0.1400 
     86 CB         -1.3884  -24.5885  -51.1472 C.3       15 UNK        -0.1800 
     87 C          -2.7216  -26.6134  -50.4296 C.2       15 UNK         0.5000 
     88 O          -2.9260  -27.1109  -51.5373 O.2       15 UNK        -0.5000 
     89 N          -3.5913  -26.7024  -49.4099 N.am      16 UNK        -0.5000 
     90 CA         -4.9047  -27.3615  -49.4010 C.3       16 UNK         0.1400 
     91 CB         -4.7301  -28.8927  -49.4590 C.3       16 UNK        -0.1800 
     92 C          -5.8685  -26.8312  -50.4871 C.2       16 UNK         0.5000 
     93 O          -6.7127  -27.5793  -50.9826 O.2       16 UNK        -0.5000 
     94 N          -5.6884  -25.5562  -50.8632 N.am      17 UNK        -0.5000 
     95 CA         -6.3298  -24.8324  -51.9654 C.3       17 UNK         0.1400 
     96 CB         -7.8282  -24.6155  -51.6758 C.3       17 UNK        -0.1800 
     97 C          -6.0803  -25.4301  -53.3715 C.2       17 UNK         0.5000 
     98 O          -6.7375  -25.0103  -54.3251 O.2       17 UNK        -0.5000 
     99 N          -5.1265  -26.3662  -53.5032 N.am      18 UNK        -0.5000 
    100 CA        -4.6931  -26.9329  -54.7854 C.3       18 UNK         0.1400 
    101 CB        -4.0141  -28.2886  -54.5391 C.3       18 UNK        -0.1800 
    102 C         -3.7485  -25.9786  -55.5414 C.2       18 UNK         0.5000 
    103 O         -3.6414  -26.0583  -56.7657 O.2       18 UNK        -0.5000 
    104 N         -3.1099  -25.0776  -54.7915 N.am      19 UNK        -0.5000 
    105 CA        -2.3655  -23.9181  -55.2538 C.3       19 UNK         0.1400 
    106 CB        -0.8622  -24.2417  -55.2706 C.3       19 UNK        -0.1800 
    107 C         -2.6928  -22.7625  -54.2951 C.2       19 UNK         0.5000 
    108 O         -3.2807  -22.9953  -53.2326 O.2       19 UNK        -0.5000 
    109 N         -2.3142  -21.5402  -54.6892 N.am      20 UNK        -0.5000 
    110 CA        -2.5629  -20.2648  -54.0079 C.3       20 UNK         0.1400 
    111 CB        -1.8833  -20.2134  -52.6211 C.3       20 UNK        -0.1800 
    112 C         -4.0626  -19.9117  -53.9541 C.2       20 UNK         0.5000 
    113 O         -4.4981  -19.0334  -54.6986 O.2       20 UNK        -0.5000 
    114 N         -4.8154  -20.6129  -53.0911 N.am      21 UNK        -0.5000 
    115 CA        -6.2704  -20.5334  -52.8828 C.3       21 UNK         0.1400 
    116 CB        -7.0105  -21.1227  -54.0999 C.3       21 UNK        -0.1800 
    117 C         -6.7851  -19.1256  -52.4989 C.2       21 UNK         0.5000 
    118 O         -7.9527  -18.8056  -52.7265 O.2       21 UNK        -0.5000 
    119 N         -5.8938  -18.3117  -51.9273 N.am      22 UNK        -0.5000 
    120 CA        -6.0787  -16.8902  -51.6081 C.3       22 UNK         0.1400 
    121 C         -6.6318  -16.6024  -50.1803 C.2       22 UNK         0.5000 
    122 N         -6.9908  -17.6057  -49.3893 N.am      22 UNK        -0.7600 
    123 O         -6.7668  -15.4455  -49.7914 O.2       22 UNK        -0.5000 
    124 C124       -4.7840  -16.0966  -51.9267 C.3       23 UNK        -0.0398 
    125 S125       -3.2921  -16.7781  -51.1226 S.3       23 UNK        -0.2404 
    126 C126       -1.9724  -16.0544  -52.1421 C.3       23 UNK        -0.0205 
    127 H127        0.4607  -11.6766  -44.2034 H         1 UNK         0.0600 
    128 H128       -0.8464  -10.9274  -45.1399 H         1 UNK         0.0600 
    129 H129       -0.1945  -10.1295  -43.7151 H         1 UNK         0.0600 
    130 H130        2.5152  -10.0789  -46.8549 H         1 UNK         0.3000 
    131 H131        2.7239  -12.1524  -47.3928 H         1 UNK         0.0600 
    132 H132       -0.0873  -12.7559  -46.3720 H         1 UNK         0.0800 
    133 H133        0.8532  -13.7884  -47.3878 H         1 UNK         0.0800 
    134 H134        0.8132  -12.0080  -50.8471 H         1 UNK         0.0800 
    135 H135        2.0532  -12.4835  -49.7214 H         1 UNK         0.0800 
    136 H136       -1.0900  -13.5839  -51.3875 H         1 UNK         0.1150 
    137 H137       -0.1695  -17.7516  -51.0183 H         1 UNK         0.1150 
    138 H138        2.3058  -14.8300  -49.0887 H         1 UNK         0.1150 
    139 H139        2.1533  -18.3222  -50.1183 H         1 UNK         0.0800 
    140 H140        3.0244  -17.1328  -49.1923 H         1 UNK         0.0800 
    141 H141        0.2337  -19.5487  -49.4554 H         1 UNK         0.0800 
    142 H142       -0.8948  -18.4723  -48.6785 H         1 UNK         0.0800 
    143 H143        0.3804  -20.9256  -47.3488 H         1 UNK         0.0600 
    144 H144       -1.1930  -18.8790  -46.1527 H         1 UNK         0.3000 
    145 H145       -2.8136  -20.8936  -43.6716 H         1 UNK         0.0600 
    146 H146       -0.5846  -20.4819  -42.6734 H         1 UNK         0.0600 
    147 H147       -0.5730  -18.8555  -43.3507 H         1 UNK         0.0600 
    148 H148       -1.7633  -19.2974  -42.1273 H         1 UNK         0.0600 
    149 H149       -2.6922  -18.0657  -44.3343 H         1 UNK         0.3000 
    150 H150       -5.6097  -18.1376  -46.3992 H         1 UNK         0.0600 
    151 H151       -6.4479  -16.5199  -44.7173 H         1 UNK         0.0600 
    152 H152       -5.2549  -17.0763  -43.5426 H         1 UNK         0.0600 
    153 H153       -6.5407  -18.1526  -44.0765 H         1 UNK         0.0600 
    154 H154       -4.0475  -15.9746  -45.4189 H         1 UNK         0.3000 
    155 H155       -1.4661  -16.0385  -47.8579 H         1 UNK         0.0600 
    156 H156       -3.5384  -15.0120  -48.9751 H         1 UNK         0.0600 
    157 H157       -2.3363  -13.8449  -48.4622 H         1 UNK         0.0600 
    158 H158       -3.8055  -14.0857  -47.5151 H         1 UNK         0.0600 
    159 H159       -2.0031  -14.0725  -45.9677 H         1 UNK         0.3000 
    160 H160        0.0713  -14.0600  -44.3993 H         1 UNK         0.0600 
    161 H161       -2.1712  -13.1722  -44.0747 H         1 UNK         0.0600 
    162 H162       -1.4163  -13.2873  -42.4993 H         1 UNK         0.0600 
    163 H163       -2.6115  -14.4845  -42.9943 H         1 UNK         0.0600 
    164 H164        1.1254  -15.3771  -43.0018 H         1 UNK         0.3000 
    165 H165        1.3690  -16.1445  -40.6634 H         1 UNK         0.0600 
    166 H166        0.9703  -18.1481  -39.2820 H         1 UNK         0.0600 
    167 H167       -0.4578  -17.1270  -39.2856 H         1 UNK         0.0600 
    168 H168       -0.4270  -18.5922  -40.2583 H         1 UNK         0.0600 
    169 H169        1.3578  -18.7971  -41.8990 H         1 UNK         0.3000 
    170 H170        3.7837  -19.1544  -43.0262 H         1 UNK         0.0600 
    171 H171        2.5943  -19.8169  -45.2547 H         1 UNK         0.0600 
    172 H172        1.5934  -19.9078  -43.8269 H         1 UNK         0.0600 
    173 H173        1.4359  -18.5358  -44.9173 H         1 UNK         0.0600 
    174 H174        4.0895  -16.7422  -44.4049 H         1 UNK         0.3000 
    175 H175        6.9301  -17.7602  -46.2732 H         1 UNK         0.0600 
    176 H176        4.4346  -16.1436  -47.0422 H         1 UNK         0.0600 
    177 H177        6.0332  -15.9775  -47.7694 H         1 UNK         0.0600 
    178 H178        5.1280  -17.4702  -47.9694 H         1 UNK         0.0600 
    179 H179        5.9578  -15.2313  -45.2900 H         1 UNK         0.3000 
    180 H180        7.3293  -15.4510  -42.0289 H         1 UNK         0.0600 
    181 H181        8.4444  -13.3177  -42.6686 H         1 UNK         0.0600 
    182 H182        8.3073  -13.7443  -44.3744 H         1 UNK         0.0600 
    183 H183        9.2975  -14.7172  -43.3008 H         1 UNK         0.0600 
    184 H184        5.4335  -14.3818  -42.0412 H         1 UNK         0.3000 
    185 H185        3.3973  -13.5098  -42.9030 H         1 UNK         0.0600 
    186 H186        5.0063  -10.8932  -42.8328 H         1 UNK         0.0600 
    187 H187        3.4424  -11.1536  -42.0603 H         1 UNK         0.0600 
    188 H188        4.8534  -12.0357  -41.5042 H         1 UNK         0.0600 
    189 H189        3.4030  -11.2032  -44.6523 H         1 UNK         0.3000 
    190 H190       -2.9583  -19.8044  -48.0648 H         1 UNK         0.3000 
    191 H191       -3.5657  -21.7081  -50.0639 H         1 UNK         0.0600 
    192 H192       -5.4292  -20.2316  -48.1321 H         1 UNK         0.0600 
    193 H193       -5.9186  -21.0212  -49.6271 H         1 UNK         0.0600 
    194 H194       -4.8475  -19.6220  -49.6766 H         1 UNK         0.0600 
    195 H195       -4.0914  -21.8524  -46.5084 H         1 UNK         0.3000 
    196 H196       -5.3823  -24.3735  -46.4570 H         1 UNK         0.0600 
    197 H197       -4.8345  -24.3264  -44.0296 H         1 UNK         0.0600 
    198 H198       -5.4531  -22.7720  -44.5652 H         1 UNK         0.0600 
    199 H199       -3.7249  -22.9873  -44.2874 H         1 UNK         0.0600 
    200 H200       -1.8855  -23.5404  -46.0917 H         1 UNK         0.3000 
    201 H201       -0.9443  -26.1811  -45.6710 H         1 UNK         0.0600 
    202 H202        0.3992  -24.1744  -45.1447 H         1 UNK         0.0600 
    203 H203        0.4688  -23.7289  -46.8486 H         1 UNK         0.0600 
    204 H204        1.2757  -25.1872  -46.2813 H         1 UNK         0.0600 
    205 H205       -1.5202  -24.3468  -48.6675 H         1 UNK         0.3000 
    206 H206       -0.5885  -26.4510  -50.4517 H         1 UNK         0.0600 
    207 H207       -1.4831  -24.8993  -52.1869 H         1 UNK         0.0600 
    208 H208       -2.2000  -23.8914  -50.9351 H         1 UNK         0.0600 
    209 H209       -0.4487  -24.0440  -51.0545 H         1 UNK         0.0600 
    210 H210       -3.3460  -26.2383  -48.5444 H         1 UNK         0.3000 
    211 H211       -5.3636  -27.1141  -48.4430 H         1 UNK         0.0600 
    212 H212       -4.3267  -29.2169  -50.4189 H         1 UNK         0.0600 
    213 H213       -5.6830  -29.4030  -49.3144 H         1 UNK         0.0600 
    214 H214       -4.0557  -29.2411  -48.6767 H         1 UNK         0.0600 
    215 H215       -5.0112  -25.0143  -50.3307 H         1 UNK         0.3000 
    216 H216       -5.8559  -23.8497  -51.9805 H         1 UNK         0.0600 
    217 H217       -8.2780  -23.9477  -52.4115 H         1 UNK         0.0600 
    218 H218       -7.9777  -24.1622  -50.6959 H         1 UNK         0.0600 
    219 H219       -8.3846  -25.5527  -51.7016 H         1 UNK         0.0600 
    220 H220       -4.6040  -26.6583  -52.6839 H         1 UNK         0.3000 
    221 H221       -5.5714  -27.1021  -55.4118 H         1 UNK         0.0600 
    222 H222       -3.0906  -28.1808  -53.9697 H         1 UNK         0.0600 
    223 H223       -4.6697  -28.9656  -53.9911 H         1 UNK         0.0600 
    224 H224       -3.7603  -28.7726  -55.4829 H         1 UNK         0.0600 
    225 H225       -3.3219  -25.0494  -53.8020 H         1 UNK         0.3000 
    226 H226       -2.6962  -23.6372  -56.2559 H         1 UNK         0.0600 
    227 H227       -0.6513  -25.0900  -55.9219 H         1 UNK         0.0600 
    228 H228       -0.2821  -23.3966  -55.6424 H         1 UNK         0.0600 
    229 H229       -0.4872  -24.4842  -54.2763 H         1 UNK         0.0600 
    230 H230       -1.8557  -21.4566  -55.5859 H         1 UNK         0.3000 
    231 H231       -2.0867  -19.4987  -54.6221 H         1 UNK         0.0600 
    232 H232       -2.2510  -20.9800  -51.9403 H         1 UNK         0.0600 
    233 H233       -0.8054  -20.3464  -52.7114 H         1 UNK         0.0600 
    234 H234       -2.0484  -19.2500  -52.1407 H         1 UNK         0.0600 
    235 H235       -4.3457  -21.3802  -52.6223 H         1 UNK         0.3000 
    236 H236       -6.4889  -21.1752  -52.0288 H         1 UNK         0.0600 
    237 H237       -6.8840  -20.5019  -54.9873 H         1 UNK         0.0600 
    238 H238       -6.6456  -22.1226  -54.3356 H         1 UNK         0.0600 
    239 H239       -8.0806  -21.2080  -53.9078 H         1 UNK         0.0600 
    240 H240       -4.9594  -18.6609  -51.7739 H         1 UNK         0.3000 
    241 H241       -6.8477  -16.4995  -52.2769 H         1 UNK         0.0600 
    242 H242       -7.3674  -17.4037  -48.4777 H         1 UNK         0.3800 
    243 H243       -6.9166  -18.5565  -49.7079 H         1 UNK         0.3800 
    244 H244       -4.6229  -16.1105  -53.0058 H         1 UNK         0.0800 
    245 H245       -4.8861  -15.0444  -51.6560 H         1 UNK         0.0800 
    246 H246       -1.6901  -16.7600  -52.9246 H         1 UNK         0.0800 
    247 H247       -2.3410  -15.1615  -52.6494 H         1 UNK         0.0800 
@<TRIPOS>BOND
     1    1    2 1    
     2    1  127 1    
     3    1  128 1    
     4    1  129 1    
     5    2    3 2    
     6    2    4 am   BACKBONE|DICT|INTERRES
     7    4    5 1    
     8    4  130 1    
     9    5    6 1    
    10    5   65 1    
    11    5  131 1    
    12    6    7 1    
    13    6  132 1    
    14    6  133 1    
    15    7    8 1    
    16    8    9 1    
    17    8  134 1    
    18    8  135 1    
    19    9   10 ar   
    20    9   14 ar   
    21   10   11 ar   
    22   10  136 1    
    23   11   12 ar   
    24   11  126 1    
    25   12   13 ar   
    26   12  137 1    
    27   13   14 ar   
    28   13   15 1    
    29   14  138 1    
    30   15   16 1    
    31   15  139 1    
    32   15  140 1    
    33   16   17 1    
    34   17   18 1    
    35   17  141 1    
    36   17  142 1    
    37   18   19 1    
    38   18   67 1    
    39   18  143 1    
    40   19   20 am   BACKBONE|DICT|INTERRES
    41   19  144 1    
    42   20   21 2    
    43   20   22 1    
    44   22   23 1    
    45   22   24 1    
    46   22  145 1    
    47   23  146 1    
    48   23  147 1    
    49   23  148 1    
    50   24   25 am   BACKBONE|DICT|INTERRES
    51   24  149 1    
    52   25   26 2    
    53   25   27 1    
    54   27   28 1    
    55   27   29 1    
    56   27  150 1    
    57   28  151 1    
    58   28  152 1    
    59   28  153 1    
    60   29   30 am   BACKBONE|DICT|INTERRES
    61   29  154 1    
    62   30   31 2    
    63   30   32 1    
    64   32   33 1    
    65   32   34 1    
    66   32  155 1    
    67   33  156 1    
    68   33  157 1    
    69   33  158 1    
    70   34   35 am   BACKBONE|DICT|INTERRES
    71   34  159 1    
    72   35   36 2    
    73   35   37 1    
    74   37   38 1    
    75   37   39 1    
    76   37  160 1    
    77   38  161 1    
    78   38  162 1    
    79   38  163 1    
    80   39   40 am   BACKBONE|DICT|INTERRES
    81   39  164 1    
    82   40   41 2    
    83   40   42 1    
    84   42   43 1    
    85   42   44 1    
    86   42  165 1    
    87   43  166 1    
    88   43  167 1    
    89   43  168 1    
    90   44   45 am   BACKBONE|DICT|INTERRES
    91   44  169 1    
    92   45   46 2    
    93   45   47 1    
    94   47   48 1    
    95   47   49 1    
    96   47  170 1    
    97   48  171 1    
    98   48  172 1    
    99   48  173 1    
   100   49   50 am   BACKBONE|DICT|INTERRES
   101   49  174 1    
   102   50   51 2    
   103   50   52 1    
   104   52   53 1    
   105   52   54 1    
   106   52  175 1    
   107   53  176 1    
   108   53  177 1    
   109   53  178 1    
   110   54   55 am   BACKBONE|DICT|INTERRES
   111   54  179 1    
   112   55   56 2    
   113   55   57 1    
   114   57   58 1    
   115   57   59 1    
   116   57  180 1    
   117   58  181 1    
   118   58  182 1    
   119   58  183 1    
   120   59   60 am   BACKBONE|DICT|INTERRES
   121   59  184 1    
   122   60   61 2    
   123   60   62 1    
   124   62   63 1    
   125   62   64 1    
   126   62  185 1    
   127   63  186 1    
   128   63  187 1    
   129   63  188 1    
   130   64   65 am   BACKBONE|DICT|INTERRES
   131   64  189 1    
   132   65   66 2    
   133   67   68 2    
   134   67   69 am   BACKBONE|DICT|INTERRES
   135   69   70 1    
   136   69  190 1    
   137   70   71 1    
   138   70   72 1    
   139   70  191 1    
   140   71  192 1    
   141   71  193 1    
   142   71  194 1    
   143   72   73 2    
   144   72   74 am   BACKBONE|DICT|INTERRES
   145   74   75 1    
   146   74  195 1    
   147   75   76 1    
   148   75   77 1    
   149   75  196 1    
   150   76  197 1    
   151   76  198 1    
   152   76  199 1    
   153   77   78 2    
   154   77   79 am   BACKBONE|DICT|INTERRES
   155   79   80 1    
   156   79  200 1    
   157   80   81 1    
   158   80   82 1    
   159   80  201 1    
   160   81  202 1    
   161   81  203 1    
   162   81  204 1    
   163   82   83 2    
   164   82   84 am   BACKBONE|DICT|INTERRES
   165   84   85 1    
   166   84  205 1    
   167   85   86 1    
   168   85   87 1    
   169   85  206 1    
   170   86  207 1    
   171   86  208 1    
   172   86  209 1    
   173   87   88 2    
   174   87   89 am   BACKBONE|DICT|INTERRES
   175   89   90 1    
   176   89  210 1    
   177   90   91 1    
   178   90   92 1    
   179   90  211 1    
   180   91  212 1    
   181   91  213 1    
   182   91  214 1    
   183   92   93 2    
   184   92   94 am   BACKBONE|DICT|INTERRES
   185   94   95 1    
   186   94  215 1    
   187   95   96 1    
   188   95   97 1    
   189   95  216 1    
   190   96  217 1    
   191   96  218 1    
   192   96  219 1    
   193   97   98 2    
   194   97   99 am   BACKBONE|DICT|INTERRES
   195   99  100 1    
   196   99  220 1    
   197  100  101 1    
   198  100  102 1    
   199  100  221 1    
   200  101  222 1    
   201  101  223 1    
   202  101  224 1    
   203  102  103 2    
   204  102  104 am   BACKBONE|DICT|INTERRES
   205  104  105 1    
   206  104  225 1    
   207  105  106 1    
   208  105  107 1    
   209  105  226 1    
   210  106  227 1    
   211  106  228 1    
   212  106  229 1    
   213  107  108 2    
   214  107  109 am   BACKBONE|DICT|INTERRES
   215  109  110 1    
   216  109  230 1    
   217  110  111 1    
   218  110  112 1    
   219  110  231 1    
   220  111  232 1    
   221  111  233 1    
   222  111  234 1    
   223  112  113 2    
   224  112  114 am   BACKBONE|DICT|INTERRES
   225  114  115 1    
   226  114  235 1    
   227  115  116 1    
   228  115  117 1    
   229  115  236 1    
   230  116  237 1    
   231  116  238 1    
   232  116  239 1    
   233  117  118 2    
   234  117  119 am   BACKBONE|DICT|INTERRES
   235  119  120 1    
   236  119  240 1    
   237  120  121 1    
   238  120  124 1    
   239  120  241 1    
   240  121  122 am   BACKBONE|DICT|INTERRES
   241  121  123 2    
   242  122  242 1    
   243  122  243 1    
   244  124  125 1    
   245  124  244 1    
   246  124  245 1    
   247  125  126 1    
   248  126  246 1    
   249  126  247 1    
@<TRIPOS>SUBSTRUCTURE
     1 UNK         1 GROUP             0       ****    0 ROOT    
