@<TRIPOS>MOLECULE
3R540
247   249    1
SMALL
USER_CHARGES


@<TRIPOS>ATOM
      1 CA          6.7255  -14.2182  -48.4708 C.3       0 UNK        -0.1800 
      2 C           5.2275  -14.2692  -48.2081 C.2       0 UNK         0.5000 
      3 O           4.7924  -14.9190  -47.2568 O.2       0 UNK        -0.5000 
      4 N           4.4350  -13.5789  -49.0375 N.am      1 UNK        -0.5000 
      5 CA          2.9701  -13.5079  -48.9681 C.3       1 UNK         0.1400 
      6 C6          2.3440  -13.1693  -50.3466 C.3       23 UNK        -0.0398 
      7 S7          2.4601  -14.5839  -51.4899 S.3       23 UNK        -0.2404 
      8 C8          0.8390  -15.3459  -51.1721 C.3       23 UNK        -0.0205 
      9 C9          0.7827  -16.7825  -51.6586 C.ar      23 UNK        -0.0193 
     10 C10         0.1572  -17.1008  -52.8659 C.ar      23 UNK        -0.1150 
     11 C11         0.0587  -18.4320  -53.2811 C.ar      23 UNK        -0.0193 
     12 C12         0.5965  -19.4459  -52.4819 C.ar      23 UNK        -0.1150 
     13 C13         1.2459  -19.1389  -51.2824 C.ar      23 UNK        -0.0193 
     14 C14         1.3359  -17.8018  -50.8801 C.ar      23 UNK        -0.1150 
     15 C15         1.9005  -20.2480  -50.4645 C.3       23 UNK        -0.0205 
     16 S16         1.6160  -20.0968  -48.6698 S.3       23 UNK        -0.2404 
     17 C17         0.0067  -20.9269  -48.4579 C.3       23 UNK        -0.0398 
     18 CA          0.1644  -22.2515  -47.6753 C.3       11 UNK         0.1400 
     19 N           0.5538  -22.0214  -46.2809 N.am      11 UNK        -0.5000 
     20 C           0.9721  -22.9761  -45.4399 C.2       10 UNK         0.5000 
     21 O           1.1204  -24.1533  -45.7666 O.2       10 UNK        -0.5000 
     22 CA          1.2069  -22.5567  -43.9766 C.3       10 UNK         0.1400 
     23 CB          2.5647  -21.8582  -43.8114 C.3       10 UNK        -0.1800 
     24 N           0.1406  -21.6920  -43.4675 N.am      10 UNK        -0.5000 
     25 C          -1.1384  -22.0685  -43.3292 C.2       9 UNK         0.5000 
     26 O          -1.5420  -23.2068  -43.5618 O.2       9 UNK        -0.5000 
     27 CA         -2.1469  -20.9834  -42.9136 C.3       9 UNK         0.1400 
     28 CB         -2.1624  -20.7952  -41.3891 C.3       9 UNK        -0.1800 
     29 N          -1.8858  -19.7031  -43.5708 N.am      9 UNK        -0.5000 
     30 C          -2.0394  -19.4794  -44.8838 C.2       8 UNK         0.5000 
     31 O          -2.4444  -20.3226  -45.6837 O.2       8 UNK        -0.5000 
     32 CA         -1.6234  -18.0910  -45.3993 C.3       8 UNK         0.1400 
     33 CB         -2.7622  -17.0800  -45.2078 C.3       8 UNK        -0.1800 
     34 N          -0.3961  -17.5977  -44.7694 N.am      8 UNK        -0.5000 
     35 C           0.7989  -18.1919  -44.9126 C.2       7 UNK         0.5000 
     36 O           0.9798  -19.1924  -45.6031 O.2       7 UNK        -0.5000 
     37 CA          1.9708  -17.6236  -44.0919 C.3       7 UNK         0.1400 
     38 CB          2.6228  -16.4444  -44.8266 C.3       7 UNK        -0.1800 
     39 N           1.5742  -17.2192  -42.7401 N.am      7 UNK        -0.5000 
     40 C           1.0659  -18.0575  -41.8240 C.2       6 UNK         0.5000 
     41 O           0.9102  -19.2612  -42.0318 O.2       6 UNK        -0.5000 
     42 CA          0.6437  -17.4852  -40.4552 C.3       6 UNK         0.1400 
     43 CB          1.5554  -18.0296  -39.3444 C.3       6 UNK        -0.1800 
     44 N           0.6144  -16.0230  -40.3603 N.am      6 UNK        -0.5000 
     45 C          -0.2112  -15.2045  -41.0254 C.2       5 UNK         0.5000 
     46 O          -1.0101  -15.5972  -41.8802 O.2       5 UNK        -0.5000 
     47 CA         -0.1228  -13.7103  -40.6533 C.3       5 UNK         0.1400 
     48 CB          1.3352  -13.2252  -40.5261 C.3       5 UNK        -0.1800 
     49 N          -0.7864  -12.8981  -41.6666 N.am      5 UNK        -0.5000 
     50 C          -1.9271  -12.2141  -41.5113 C.2       4 UNK         0.5000 
     51 O          -2.5537  -12.1618  -40.4518 O.2       4 UNK        -0.5000 
     52 CA         -2.4570  -11.4367  -42.7367 C.3       4 UNK         0.1400 
     53 CB         -2.2047   -9.9303  -42.5668 C.3       4 UNK        -0.1800 
     54 N          -1.8518  -11.8727  -43.9963 N.am      4 UNK        -0.5000 
     55 C          -2.1566  -13.0107  -44.6332 C.2       3 UNK         0.5000 
     56 O          -3.0896  -13.7431  -44.3052 O.2       3 UNK        -0.5000 
     57 CA         -1.2584  -13.4144  -45.8206 C.3       3 UNK         0.1400 
     58 CB         -1.9886  -13.2210  -47.1584 C.3       3 UNK        -0.1800 
     59 N           0.0357  -12.7271  -45.8801 N.am      3 UNK        -0.5000 
     60 C           1.0278  -12.8630  -44.9902 C.2       2 UNK         0.5000 
     61 O           0.9064  -13.4898  -43.9378 O.2       2 UNK        -0.5000 
     62 CA          2.3848  -12.2400  -45.3761 C.3       2 UNK         0.1400 
     63 CB          3.4448  -12.4001  -44.2718 C.3       2 UNK        -0.1800 
     64 N           2.8857  -12.8586  -46.6034 N.am      2 UNK        -0.5000 
     65 C           2.4881  -12.5615  -47.8457 C.2       1 UNK         0.5000 
     66 O           1.7387  -11.6161  -48.0994 O.2       1 UNK        -0.5000 
     67 C          -1.0980  -23.1339  -47.7800 C.2       11 UNK         0.5000 
     68 O          -1.1530  -24.0115  -48.6422 O.2       11 UNK        -0.5000 
     69 N          -2.0754  -22.9280  -46.8849 N.am      12 UNK        -0.5000 
     70 CA         -3.2807  -23.7529  -46.7837 C.3       12 UNK         0.1400 
     71 CB         -4.3035  -23.0826  -45.8561 C.3       12 UNK        -0.1800 
     72 C          -2.9805  -25.1944  -46.3369 C.2       12 UNK         0.5000 
     73 O          -3.5464  -26.1277  -46.9050 O.2       12 UNK        -0.5000 
     74 N          -2.0549  -25.3627  -45.3818 N.am      13 UNK        -0.5000 
     75 CA         -1.5411  -26.6630  -44.9388 C.3       13 UNK         0.1400 
     76 CB         -0.6632  -26.4730  -43.6929 C.3       13 UNK        -0.1800 
     77 C          -0.7719  -27.4141  -46.0451 C.2       13 UNK         0.5000 
     78 O          -0.8326  -28.6424  -46.1012 O.2       13 UNK        -0.5000 
     79 N          -0.1091  -26.6612  -46.9338 N.am      14 UNK        -0.5000 
     80 CA          0.5355  -27.1540  -48.1537 C.3       14 UNK         0.1400 
     81 CB          1.6223  -26.1527  -48.5799 C.3       14 UNK        -0.1800 
     82 C          -0.4545  -27.4255  -49.3108 C.2       14 UNK         0.5000 
     83 O          -0.0186  -27.8684  -50.3741 O.2       14 UNK        -0.5000 
     84 N          -1.7534  -27.1658  -49.0917 N.am      15 UNK        -0.5000 
     85 CA         -2.8799  -27.3560  -50.0107 C.3       15 UNK         0.1400 
     86 CB         -3.0564  -28.8460  -50.3733 C.3       15 UNK        -0.1800 
     87 C          -2.8372  -26.4286  -51.2429 C.2       15 UNK         0.5000 
     88 O          -3.2954  -26.8158  -52.3194 O.2       15 UNK        -0.5000 
     89 N          -2.3129  -25.2110  -51.0620 N.am      16 UNK        -0.5000 
     90 CA         -2.2260  -24.1752  -52.0877 C.3       16 UNK         0.1400 
     91 CB         -0.9047  -24.3247  -52.8668 C.3       16 UNK        -0.1800 
     92 C          -2.3845  -22.8038  -51.4155 C.2       16 UNK         0.5000 
     93 O          -1.4872  -21.9678  -51.5130 O.2       16 UNK        -0.5000 
     94 N          -3.5004  -22.6391  -50.6862 N.am      17 UNK        -0.5000 
     95 CA         -3.8516  -21.4779  -49.8619 C.3       17 UNK         0.1400 
     96 CB         -5.2906  -21.6425  -49.3476 C.3       17 UNK        -0.1800 
     97 C          -3.7015  -20.1290  -50.5863 C.2       17 UNK         0.5000 
     98 O          -4.1657  -19.9971  -51.7209 O.2       17 UNK        -0.5000 
     99 N          -3.0748  -19.1653  -49.8958 N.am      18 UNK        -0.5000 
    100 CA        -2.7349  -17.8317  -50.3914 C.3       18 UNK         0.1400 
    101 CB        -2.0378  -17.0403  -49.2724 C.3       18 UNK        -0.1800 
    102 C         -3.9639  -17.0755  -50.9245 C.2       18 UNK         0.5000 
    103 O         -4.8963  -16.8129  -50.1626 O.2       18 UNK        -0.5000 
    104 N         -3.9593  -16.8100  -52.2364 N.am      19 UNK        -0.5000 
    105 CA        -5.0189  -16.2476  -53.0834 C.3       19 UNK         0.1400 
    106 CB        -5.4355  -14.8420  -52.6109 C.3       19 UNK        -0.1800 
    107 C         -6.2477  -17.1639  -53.2648 C.2       19 UNK         0.5000 
    108 O         -6.8012  -17.2170  -54.3635 O.2       19 UNK        -0.5000 
    109 N         -6.6568  -17.8596  -52.1986 N.am      20 UNK        -0.5000 
    110 CA        -7.8487  -18.7007  -52.1292 C.3       20 UNK         0.1400 
    111 CB        -8.1230  -19.0452  -50.6575 C.3       20 UNK        -0.1800 
    112 C         -7.7845  -19.9823  -52.9812 C.2       20 UNK         0.5000 
    113 O         -8.8301  -20.4240  -53.4608 O.2       20 UNK        -0.5000 
    114 N         -6.5906  -20.5668  -53.1494 N.am      21 UNK        -0.5000 
    115 CA        -6.3940  -21.8359  -53.8531 C.3       21 UNK         0.1400 
    116 CB        -6.5706  -23.0155  -52.8773 C.3       21 UNK        -0.1800 
    117 C         -5.0545  -21.8678  -54.6084 C.2       21 UNK         0.5000 
    118 O         -4.4045  -22.9127  -54.6651 O.2       21 UNK        -0.5000 
    119 N         -4.6730  -20.7296  -55.2000 N.am      22 UNK        -0.5000 
    120 CA        -3.4842  -20.6057  -56.0646 C.3       22 UNK         0.1400 
    121 C         -3.6746  -21.1684  -57.5050 C.2       22 UNK         0.5000 
    122 N         -4.8805  -21.5208  -57.9347 N.am      22 UNK        -0.7600 
    123 O         -2.7045  -21.2960  -58.2471 O.2       22 UNK        -0.5000 
    124 C124       -2.9532  -19.1520  -56.1124 C.3       23 UNK        -0.0398 
    125 S125       -2.4215  -18.5694  -54.4718 S.3       23 UNK        -0.2404 
    126 C126       -0.6213  -18.7696  -54.5971 C.3       23 UNK        -0.0205 
    127 H127        7.1094  -15.2233  -48.6450 H         1 UNK         0.0600 
    128 H128        7.2432  -13.7989  -47.6081 H         1 UNK         0.0600 
    129 H129        6.9642  -13.6071  -49.3416 H         1 UNK         0.0600 
    130 H130        4.8570  -13.0519  -49.7888 H         1 UNK         0.3000 
    131 H131        2.6010  -14.4954  -48.6812 H         1 UNK         0.0600 
    132 H132        1.2905  -12.8974  -50.2563 H         1 UNK         0.0800 
    133 H133        2.8369  -12.3049  -50.7941 H         1 UNK         0.0800 
    134 H134        0.6291  -15.3297  -50.1015 H         1 UNK         0.0800 
    135 H135        0.0591  -14.7483  -51.6469 H         1 UNK         0.0800 
    136 H136       -0.2657  -16.3163  -53.4779 H         1 UNK         0.1150 
    137 H137        0.5209  -20.4760  -52.8015 H         1 UNK         0.1150 
    138 H138        1.8395  -17.5496  -49.9575 H         1 UNK         0.1150 
    139 H139        1.5688  -21.2317  -50.8016 H         1 UNK         0.0800 
    140 H140        2.9753  -20.2092  -50.6451 H         1 UNK         0.0800 
    141 H141       -0.4310  -21.0956  -49.4396 H         1 UNK         0.0800 
    142 H142       -0.6687  -20.2481  -47.9359 H         1 UNK         0.0800 
    143 H143        0.9701  -22.8190  -48.1460 H         1 UNK         0.0600 
    144 H144        0.5278  -21.0582  -45.9568 H         1 UNK         0.3000 
    145 H145        1.2172  -23.4637  -43.3687 H         1 UNK         0.0600 
    146 H146        2.7488  -21.5958  -42.7694 H         1 UNK         0.0600 
    147 H147        3.3783  -22.5091  -44.1334 H         1 UNK         0.0600 
    148 H148        2.6243  -20.9437  -44.4012 H         1 UNK         0.0600 
    149 H149        0.4016  -20.7472  -43.2011 H         1 UNK         0.3000 
    150 H150       -3.1400  -21.3187  -43.2188 H         1 UNK         0.0600 
    151 H151       -2.4126  -21.7304  -40.8866 H         1 UNK         0.0600 
    152 H152       -2.9069  -20.0572  -41.0901 H         1 UNK         0.0600 
    153 H153       -1.1950  -20.4700  -41.0071 H         1 UNK         0.0600 
    154 H154       -1.5003  -18.9677  -42.9977 H         1 UNK         0.3000 
    155 H155       -1.4348  -18.1880  -46.4701 H         1 UNK         0.0600 
    156 H156       -2.8932  -16.8091  -44.1592 H         1 UNK         0.0600 
    157 H157       -2.5772  -16.1680  -45.7718 H         1 UNK         0.0600 
    158 H158       -3.7109  -17.4833  -45.5650 H         1 UNK         0.0600 
    159 H159       -0.4788  -16.8086  -44.1421 H         1 UNK         0.3000 
    160 H160        2.7187  -18.4127  -43.9908 H         1 UNK         0.0600 
    161 H161        3.4479  -16.0217  -44.2535 H         1 UNK         0.0600 
    162 H162        1.9049  -15.6510  -45.0256 H         1 UNK         0.0600 
    163 H163        3.0258  -16.7630  -45.7890 H         1 UNK         0.0600 
    164 H164        1.6531  -16.2395  -42.5100 H         1 UNK         0.3000 
    165 H165       -0.3696  -17.8456  -40.2667 H         1 UNK         0.0600 
    166 H166        1.2086  -17.7173  -38.3592 H         1 UNK         0.0600 
    167 H167        1.5719  -19.1205  -39.3479 H         1 UNK         0.0600 
    168 H168        2.5835  -17.6859  -39.4647 H         1 UNK         0.0600 
    169 H169        1.2500  -15.6153  -39.6901 H         1 UNK         0.3000 
    170 H170       -0.6127  -13.5879  -39.6856 H         1 UNK         0.0600 
    171 H171        1.3765  -12.1475  -40.3663 H         1 UNK         0.0600 
    172 H172        1.9161  -13.4486  -41.4218 H         1 UNK         0.0600 
    173 H173        1.8408  -13.6887  -39.6787 H         1 UNK         0.0600 
    174 H174       -0.3702  -12.9598  -42.5908 H         1 UNK         0.3000 
    175 H175       -3.5356  -11.5993  -42.7896 H         1 UNK         0.0600 
    176 H176       -2.6234   -9.3635  -43.3987 H         1 UNK         0.0600 
    177 H177       -1.1391   -9.7049  -42.5079 H         1 UNK         0.0600 
    178 H178       -2.6701   -9.5562  -41.6540 H         1 UNK         0.0600 
    179 H179       -1.0785  -11.3251  -44.3435 H         1 UNK         0.3000 
    180 H180       -1.0427  -14.4775  -45.7036 H         1 UNK         0.0600 
    181 H181       -2.2001  -12.1685  -47.3508 H         1 UNK         0.0600 
    182 H182       -2.9396  -13.7553  -47.1672 H         1 UNK         0.0600 
    183 H183       -1.3966  -13.6034  -47.9903 H         1 UNK         0.0600 
    184 H184        0.2315  -12.1977  -46.7221 H         1 UNK         0.3000 
    185 H185        2.2276  -11.1723  -45.5415 H         1 UNK         0.0600 
    186 H186        3.6534  -13.4496  -44.0608 H         1 UNK         0.0600 
    187 H187        4.3832  -11.9237  -44.5556 H         1 UNK         0.0600 
    188 H188        3.1136  -11.9367  -43.3415 H         1 UNK         0.0600 
    189 H189        3.5053  -13.6565  -46.4937 H         1 UNK         0.3000 
    190 H190       -2.0001  -22.1506  -46.2357 H         1 UNK         0.3000 
    191 H191       -3.7212  -23.8148  -47.7799 H         1 UNK         0.0600 
    192 H192       -4.5641  -22.0855  -46.2111 H         1 UNK         0.0600 
    193 H193       -5.2259  -23.6626  -45.8099 H         1 UNK         0.0600 
    194 H194       -3.9249  -22.9881  -44.8389 H         1 UNK         0.0600 
    195 H195       -1.6835  -24.5419  -44.9102 H         1 UNK         0.3000 
    196 H196       -2.3973  -27.2796  -44.6579 H         1 UNK         0.0600 
    197 H197       -0.2997  -27.4318  -43.3215 H         1 UNK         0.0600 
    198 H198       -1.2230  -26.0018  -42.8847 H         1 UNK         0.0600 
    199 H199        0.2070  -25.8513  -43.9027 H         1 UNK         0.0600 
    200 H200       -0.0589  -25.6621  -46.7717 H         1 UNK         0.3000 
    201 H201        1.0265  -28.1018  -47.9245 H         1 UNK         0.0600 
    202 H202        2.3275  -25.9658  -47.7698 H         1 UNK         0.0600 
    203 H203        1.1957  -25.1961  -48.8794 H         1 UNK         0.0600 
    204 H204        2.1949  -26.5330  -49.4266 H         1 UNK         0.0600 
    205 H205       -2.0099  -26.7863  -48.1884 H         1 UNK         0.3000 
    206 H206       -3.7687  -27.0571  -49.4540 H         1 UNK         0.0600 
    207 H207       -3.0923  -29.4675  -49.4785 H         1 UNK         0.0600 
    208 H208       -3.9882  -29.0082  -50.9162 H         1 UNK         0.0600 
    209 H209       -2.2452  -29.2104  -51.0038 H         1 UNK         0.0600 
    210 H210       -1.9463  -24.9513  -50.1483 H         1 UNK         0.3000 
    211 H211       -3.0554  -24.2779  -52.7898 H         1 UNK         0.0600 
    212 H212       -0.0400  -24.2349  -52.2080 H         1 UNK         0.0600 
    213 H213       -0.8172  -23.5576  -53.6373 H         1 UNK         0.0600 
    214 H214       -0.8475  -25.2929  -53.3641 H         1 UNK         0.0600 
    215 H215       -4.1615  -23.4004  -50.6753 H         1 UNK         0.3000 
    216 H216       -3.1810  -21.4817  -49.0031 H         1 UNK         0.0600 
    217 H217       -5.5556  -20.8319  -48.6675 H         1 UNK         0.0600 
    218 H218       -5.4223  -22.5762  -48.8024 H         1 UNK         0.0600 
    219 H219       -6.0123  -21.6322  -50.1646 H         1 UNK         0.0600 
    220 H220       -2.7911  -19.3608  -48.9488 H         1 UNK         0.3000 
    221 H221       -2.0221  -17.9664  -51.2062 H         1 UNK         0.0600 
    222 H222       -2.6773  -16.9342  -48.3953 H         1 UNK         0.0600 
    223 H223       -1.1128  -17.5269  -48.9613 H         1 UNK         0.0600 
    224 H224       -1.7784  -16.0363  -49.6097 H         1 UNK         0.0600 
    225 H225       -3.1736  -17.1680  -52.7658 H         1 UNK         0.3000 
    226 H226       -4.5698  -16.1378  -54.0718 H         1 UNK         0.0600 
    227 H227       -4.5728  -14.1804  -52.5332 H         1 UNK         0.0600 
    228 H228       -6.1317  -14.3873  -53.3166 H         1 UNK         0.0600 
    229 H229       -5.9297  -14.8661  -51.6394 H         1 UNK         0.0600 
    230 H230       -6.1367  -17.7283  -51.3369 H         1 UNK         0.3000 
    231 H231       -8.6901  -18.1108  -52.4986 H         1 UNK         0.0600 
    232 H232       -7.2810  -19.5686  -50.2054 H         1 UNK         0.0600 
    233 H233       -9.0016  -19.6842  -50.5589 H         1 UNK         0.0600 
    234 H234       -8.3089  -18.1450  -50.0713 H         1 UNK         0.0600 
    235 H235       -5.7608  -20.1659  -52.7137 H         1 UNK         0.3000 
    236 H236       -7.1552  -21.9349  -54.6296 H         1 UNK         0.0600 
    237 H237       -7.5401  -22.9794  -52.3804 H         1 UNK         0.0600 
    238 H238       -6.5123  -23.9707  -53.4002 H         1 UNK         0.0600 
    239 H239       -5.7998  -23.0152  -52.1097 H         1 UNK         0.0600 
    240 H240       -5.2497  -19.9073  -55.0989 H         1 UNK         0.3000 
    241 H241       -2.6931  -21.2159  -55.6236 H         1 UNK         0.0600 
    242 H242       -5.6886  -21.4208  -57.3423 H         1 UNK         0.3800 
    243 H243       -4.9863  -21.8879  -58.8677 H         1 UNK         0.3800 
    244 H244       -2.1142  -19.0613  -56.8049 H         1 UNK         0.0800 
    245 H245       -3.7257  -18.4774  -56.4848 H         1 UNK         0.0800 
    246 H246       -0.2345  -18.1205  -55.3841 H         1 UNK         0.0800 
    247 H247       -0.3926  -19.7942  -54.8947 H         1 UNK         0.0800 
@<TRIPOS>BOND
     1    1    2 1    
     2    1  127 1    
     3    1  128 1    
     4    1  129 1    
     5    2    3 2    
     6    2    4 am   BACKBONE|DICT|INTERRES
     7    4    5 1    
     8    4  130 1    
     9    5    6 1    
    10    5   65 1    
    11    5  131 1    
    12    6    7 1    
    13    6  132 1    
    14    6  133 1    
    15    7    8 1    
    16    8    9 1    
    17    8  134 1    
    18    8  135 1    
    19    9   10 ar   
    20    9   14 ar   
    21   10   11 ar   
    22   10  136 1    
    23   11   12 ar   
    24   11  126 1    
    25   12   13 ar   
    26   12  137 1    
    27   13   14 ar   
    28   13   15 1    
    29   14  138 1    
    30   15   16 1    
    31   15  139 1    
    32   15  140 1    
    33   16   17 1    
    34   17   18 1    
    35   17  141 1    
    36   17  142 1    
    37   18   19 1    
    38   18   67 1    
    39   18  143 1    
    40   19   20 am   BACKBONE|DICT|INTERRES
    41   19  144 1    
    42   20   21 2    
    43   20   22 1    
    44   22   23 1    
    45   22   24 1    
    46   22  145 1    
    47   23  146 1    
    48   23  147 1    
    49   23  148 1    
    50   24   25 am   BACKBONE|DICT|INTERRES
    51   24  149 1    
    52   25   26 2    
    53   25   27 1    
    54   27   28 1    
    55   27   29 1    
    56   27  150 1    
    57   28  151 1    
    58   28  152 1    
    59   28  153 1    
    60   29   30 am   BACKBONE|DICT|INTERRES
    61   29  154 1    
    62   30   31 2    
    63   30   32 1    
    64   32   33 1    
    65   32   34 1    
    66   32  155 1    
    67   33  156 1    
    68   33  157 1    
    69   33  158 1    
    70   34   35 am   BACKBONE|DICT|INTERRES
    71   34  159 1    
    72   35   36 2    
    73   35   37 1    
    74   37   38 1    
    75   37   39 1    
    76   37  160 1    
    77   38  161 1    
    78   38  162 1    
    79   38  163 1    
    80   39   40 am   BACKBONE|DICT|INTERRES
    81   39  164 1    
    82   40   41 2    
    83   40   42 1    
    84   42   43 1    
    85   42   44 1    
    86   42  165 1    
    87   43  166 1    
    88   43  167 1    
    89   43  168 1    
    90   44   45 am   BACKBONE|DICT|INTERRES
    91   44  169 1    
    92   45   46 2    
    93   45   47 1    
    94   47   48 1    
    95   47   49 1    
    96   47  170 1    
    97   48  171 1    
    98   48  172 1    
    99   48  173 1    
   100   49   50 am   BACKBONE|DICT|INTERRES
   101   49  174 1    
   102   50   51 2    
   103   50   52 1    
   104   52   53 1    
   105   52   54 1    
   106   52  175 1    
   107   53  176 1    
   108   53  177 1    
   109   53  178 1    
   110   54   55 am   BACKBONE|DICT|INTERRES
   111   54  179 1    
   112   55   56 2    
   113   55   57 1    
   114   57   58 1    
   115   57   59 1    
   116   57  180 1    
   117   58  181 1    
   118   58  182 1    
   119   58  183 1    
   120   59   60 am   BACKBONE|DICT|INTERRES
   121   59  184 1    
   122   60   61 2    
   123   60   62 1    
   124   62   63 1    
   125   62   64 1    
   126   62  185 1    
   127   63  186 1    
   128   63  187 1    
   129   63  188 1    
   130   64   65 am   BACKBONE|DICT|INTERRES
   131   64  189 1    
   132   65   66 2    
   133   67   68 2    
   134   67   69 am   BACKBONE|DICT|INTERRES
   135   69   70 1    
   136   69  190 1    
   137   70   71 1    
   138   70   72 1    
   139   70  191 1    
   140   71  192 1    
   141   71  193 1    
   142   71  194 1    
   143   72   73 2    
   144   72   74 am   BACKBONE|DICT|INTERRES
   145   74   75 1    
   146   74  195 1    
   147   75   76 1    
   148   75   77 1    
   149   75  196 1    
   150   76  197 1    
   151   76  198 1    
   152   76  199 1    
   153   77   78 2    
   154   77   79 am   BACKBONE|DICT|INTERRES
   155   79   80 1    
   156   79  200 1    
   157   80   81 1    
   158   80   82 1    
   159   80  201 1    
   160   81  202 1    
   161   81  203 1    
   162   81  204 1    
   163   82   83 2    
   164   82   84 am   BACKBONE|DICT|INTERRES
   165   84   85 1    
   166   84  205 1    
   167   85   86 1    
   168   85   87 1    
   169   85  206 1    
   170   86  207 1    
   171   86  208 1    
   172   86  209 1    
   173   87   88 2    
   174   87   89 am   BACKBONE|DICT|INTERRES
   175   89   90 1    
   176   89  210 1    
   177   90   91 1    
   178   90   92 1    
   179   90  211 1    
   180   91  212 1    
   181   91  213 1    
   182   91  214 1    
   183   92   93 2    
   184   92   94 am   BACKBONE|DICT|INTERRES
   185   94   95 1    
   186   94  215 1    
   187   95   96 1    
   188   95   97 1    
   189   95  216 1    
   190   96  217 1    
   191   96  218 1    
   192   96  219 1    
   193   97   98 2    
   194   97   99 am   BACKBONE|DICT|INTERRES
   195   99  100 1    
   196   99  220 1    
   197  100  101 1    
   198  100  102 1    
   199  100  221 1    
   200  101  222 1    
   201  101  223 1    
   202  101  224 1    
   203  102  103 2    
   204  102  104 am   BACKBONE|DICT|INTERRES
   205  104  105 1    
   206  104  225 1    
   207  105  106 1    
   208  105  107 1    
   209  105  226 1    
   210  106  227 1    
   211  106  228 1    
   212  106  229 1    
   213  107  108 2    
   214  107  109 am   BACKBONE|DICT|INTERRES
   215  109  110 1    
   216  109  230 1    
   217  110  111 1    
   218  110  112 1    
   219  110  231 1    
   220  111  232 1    
   221  111  233 1    
   222  111  234 1    
   223  112  113 2    
   224  112  114 am   BACKBONE|DICT|INTERRES
   225  114  115 1    
   226  114  235 1    
   227  115  116 1    
   228  115  117 1    
   229  115  236 1    
   230  116  237 1    
   231  116  238 1    
   232  116  239 1    
   233  117  118 2    
   234  117  119 am   BACKBONE|DICT|INTERRES
   235  119  120 1    
   236  119  240 1    
   237  120  121 1    
   238  120  124 1    
   239  120  241 1    
   240  121  122 am   BACKBONE|DICT|INTERRES
   241  121  123 2    
   242  122  242 1    
   243  122  243 1    
   244  124  125 1    
   245  124  244 1    
   246  124  245 1    
   247  125  126 1    
   248  126  246 1    
   249  126  247 1    
@<TRIPOS>SUBSTRUCTURE
     1 UNK         1 GROUP             0       ****    0 ROOT    
