@<TRIPOS>MOLECULE
3R540
247   249    1
SMALL
USER_CHARGES


@<TRIPOS>ATOM
      1 CA         -3.5812  -13.4910  -48.1868 C.3       0 UNK        -0.1800 
      2 C          -2.3944  -13.0570  -49.0345 C.2       0 UNK         0.5000 
      3 O          -2.5586  -12.2770  -49.9711 O.2       0 UNK        -0.5000 
      4 N          -1.1975  -13.5562  -48.7033 N.am      1 UNK        -0.5000 
      5 CA          0.0710  -13.2681  -49.3877 C.3       1 UNK         0.1400 
      6 C6          1.0422  -14.4774  -49.3379 C.3       23 UNK        -0.0398 
      7 S7          1.3281  -15.1700  -47.6678 S.3       23 UNK        -0.2404 
      8 C8          0.5111  -16.8001  -47.7629 C.3       23 UNK        -0.0205 
      9 C9          1.2738  -17.7877  -48.6320 C.ar      23 UNK        -0.0193 
     10 C10         0.9216  -17.9610  -49.9723 C.ar      23 UNK        -0.1150 
     11 C11         1.6361  -18.8375  -50.7925 C.ar      23 UNK        -0.0193 
     12 C12         2.6912  -19.5727  -50.2492 C.ar      23 UNK        -0.1150 
     13 C13         3.0220  -19.4497  -48.8955 C.ar      23 UNK        -0.0193 
     14 C14         2.3187  -18.5451  -48.0938 C.ar      23 UNK        -0.1150 
     15 C15         4.1391  -20.2995  -48.3059 C.3       23 UNK        -0.0205 
     16 S16         3.5153  -21.6844  -47.2933 S.3       23 UNK        -0.2404 
     17 C17         2.4163  -22.5805  -48.4510 C.3       23 UNK        -0.0398 
     18 CA          0.9776  -22.7859  -47.9090 C.3       11 UNK         0.1400 
     19 N           0.4289  -21.6029  -47.2309 N.am      11 UNK        -0.5000 
     20 C          -0.7344  -21.5754  -46.5652 C.2       10 UNK         0.5000 
     21 O          -1.5641  -22.4845  -46.6122 O.2       10 UNK        -0.5000 
     22 CA         -0.9564  -20.3612  -45.6394 C.3       10 UNK         0.1400 
     23 CB         -2.3523  -20.3527  -44.9855 C.3       10 UNK        -0.1800 
     24 N           0.0892  -20.2592  -44.6122 N.am      10 UNK        -0.5000 
     25 C           0.4998  -21.2148  -43.7617 C.2       9 UNK         0.5000 
     26 O          -0.0163  -22.3285  -43.6625 O.2       9 UNK        -0.5000 
     27 CA          1.6982  -20.8721  -42.8665 C.3       9 UNK         0.1400 
     28 CB          2.9576  -20.5385  -43.6869 C.3       9 UNK        -0.1800 
     29 N           1.3901  -19.7681  -41.9574 N.am      9 UNK        -0.5000 
     30 C           1.6884  -19.7758  -40.6508 C.2       8 UNK         0.5000 
     31 O           2.2081  -20.7352  -40.0781 O.2       8 UNK        -0.5000 
     32 CA          1.3929  -18.5090  -39.8261 C.3       8 UNK         0.1400 
     33 CB          2.6895  -17.7253  -39.5651 C.3       8 UNK        -0.1800 
     34 N           0.4077  -17.6063  -40.4203 N.am      8 UNK        -0.5000 
     35 C          -0.9172  -17.8058  -40.3862 C.2       7 UNK         0.5000 
     36 O          -1.4421  -18.8371  -39.9652 O.2       7 UNK        -0.5000 
     37 CA         -1.8047  -16.6549  -40.8868 C.3       7 UNK         0.1400 
     38 CB         -1.9400  -15.5723  -39.8038 C.3       7 UNK        -0.1800 
     39 N          -1.2454  -16.0527  -42.0941 N.am      7 UNK        -0.5000 
     40 C          -1.7428  -16.2134  -43.3271 C.2       6 UNK         0.5000 
     41 O          -2.7856  -16.8187  -43.5742 O.2       6 UNK        -0.5000 
     42 CA         -0.9339  -15.6089  -44.4911 C.3       6 UNK         0.1400 
     43 CB         -1.4944  -14.2329  -44.8809 C.3       6 UNK        -0.1800 
     44 N           0.4981  -15.4863  -44.2017 N.am      6 UNK        -0.5000 
     45 C           1.3247  -16.5249  -44.0004 C.2       5 UNK         0.5000 
     46 O           0.9723  -17.6965  -44.1181 O.2       5 UNK        -0.5000 
     47 CA          2.7706  -16.2375  -43.5508 C.3       5 UNK         0.1400 
     48 CB          3.7341  -16.3683  -44.7390 C.3       5 UNK        -0.1800 
     49 N           2.9632  -14.9292  -42.9261 N.am      5 UNK        -0.5000 
     50 C           2.3122  -14.4516  -41.8555 C.2       4 UNK         0.5000 
     51 O           1.4951  -15.1037  -41.2038 O.2       4 UNK        -0.5000 
     52 CA          2.5571  -12.9680  -41.5129 C.3       4 UNK         0.1400 
     53 CB          3.6415  -12.8415  -40.4334 C.3       4 UNK        -0.1800 
     54 N           2.9282  -12.1458  -42.6742 N.am      4 UNK        -0.5000 
     55 C           2.1866  -12.0042  -43.7820 C.2       3 UNK         0.5000 
     56 O           1.0939  -12.5548  -43.9465 O.2       3 UNK        -0.5000 
     57 CA          2.7886  -11.1625  -44.9139 C.3       3 UNK         0.1400 
     58 CB          3.9429  -11.9116  -45.6047 C.3       3 UNK        -0.1800 
     59 N           1.7347  -10.8997  -45.8832 N.am      3 UNK        -0.5000 
     60 C           1.6622   -9.8610  -46.7185 C.2       2 UNK         0.5000 
     61 O           2.5187   -8.9772  -46.7877 O.2       2 UNK        -0.5000 
     62 CA          0.4074   -9.8160  -47.6155 C.3       2 UNK         0.1400 
     63 CB          0.5156   -8.7894  -48.7631 C.3       2 UNK        -0.1800 
     64 N           0.0214  -11.1384  -48.1276 N.am      2 UNK        -0.5000 
     65 C           0.7311  -11.9396  -48.9402 C.2       1 UNK         0.5000 
     66 O           1.8550  -11.6582  -49.3588 O.2       1 UNK        -0.5000 
     67 C           0.0603  -23.3495  -49.0145 C.2       11 UNK         0.5000 
     68 O          -0.0101  -24.5665  -49.1766 O.2       11 UNK        -0.5000 
     69 N          -0.6529  -22.4672  -49.7285 N.am      12 UNK        -0.5000 
     70 CA         -1.6261  -22.8468  -50.7540 C.3       12 UNK         0.1400 
     71 CB         -1.9466  -21.6296  -51.6301 C.3       12 UNK        -0.1800 
     72 C          -2.9018  -23.4817  -50.1648 C.2       12 UNK         0.5000 
     73 O          -3.4359  -24.4182  -50.7596 O.2       12 UNK        -0.5000 
     74 N          -3.3361  -23.0171  -48.9832 N.am      13 UNK        -0.5000 
     75 CA         -4.4307  -23.6229  -48.2212 C.3       13 UNK         0.1400 
     76 CB         -4.8700  -22.6952  -47.0759 C.3       13 UNK        -0.1800 
     77 C          -4.0322  -25.0018  -47.6696 C.2       13 UNK         0.5000 
     78 O          -4.8203  -25.9423  -47.7636 O.2       13 UNK        -0.5000 
     79 N          -2.7998  -25.1064  -47.1508 N.am      14 UNK        -0.5000 
     80 CA         -2.2007  -26.3480  -46.6542 C.3       14 UNK         0.1400 
     81 CB         -0.8623  -26.0316  -45.9703 C.3       14 UNK        -0.1800 
     82 C          -2.0189  -27.4104  -47.7572 C.2       14 UNK         0.5000 
     83 O          -2.2437  -28.5945  -47.5056 O.2       14 UNK        -0.5000 
     84 N          -1.6583  -26.9625  -48.9675 N.am      15 UNK        -0.5000 
     85 CA         -1.5613  -27.7797  -50.1795 C.3       15 UNK         0.1400 
     86 CB         -0.7070  -27.0290  -51.2135 C.3       15 UNK        -0.1800 
     87 C          -2.9292  -28.1531  -50.7901 C.2       15 UNK         0.5000 
     88 O          -2.9675  -28.9910  -51.6921 O.2       15 UNK        -0.5000 
     89 N          -4.0125  -27.5266  -50.3060 N.am      16 UNK        -0.5000 
     90 CA         -5.3997  -27.6543  -50.7609 C.3       16 UNK         0.1400 
     91 CB         -5.9437  -29.0723  -50.4868 C.3       16 UNK        -0.1800 
     92 C          -5.5902  -27.1941  -52.2214 C.2       16 UNK         0.5000 
     93 O          -6.2767  -27.8586  -53.0013 O.2       16 UNK        -0.5000 
     94 N          -4.9698  -26.0578  -52.5647 N.am      17 UNK        -0.5000 
     95 CA         -5.1046  -25.3856  -53.8559 C.3       17 UNK         0.1400 
     96 CB         -3.9445  -24.3876  -54.0090 C.3       17 UNK        -0.1800 
     97 C          -6.4684  -24.6776  -54.0055 C.2       17 UNK         0.5000 
     98 O          -7.2543  -24.6102  -53.0565 O.2       17 UNK        -0.5000 
     99 N          -6.7169  -24.1406  -55.2076 N.am      18 UNK        -0.5000 
    100 CA        -7.9461  -23.4323  -55.5839 C.3       18 UNK         0.1400 
    101 CB        -7.9434  -23.2200  -57.1062 C.3       18 UNK        -0.1800 
    102 C         -8.1682  -22.0894  -54.8539 C.2       18 UNK         0.5000 
    103 O         -9.2916  -21.5835  -54.8581 O.2       18 UNK        -0.5000 
    104 N         -7.1125  -21.5393  -54.2451 N.am      19 UNK        -0.5000 
    105 CA        -7.1384  -20.3508  -53.4014 C.3       19 UNK         0.1400 
    106 CB        -6.5903  -19.1535  -54.1939 C.3       19 UNK        -0.1800 
    107 C         -6.2840  -20.6230  -52.1562 C.2       19 UNK         0.5000 
    108 O         -5.3533  -21.4292  -52.2180 O.2       19 UNK        -0.5000 
    109 N         -6.6036  -19.9359  -51.0526 N.am      20 UNK        -0.5000 
    110 CA        -5.9120  -20.0705  -49.7668 C.3       20 UNK         0.1400 
    111 CB        -6.8027  -19.4871  -48.6589 C.3       20 UNK        -0.1800 
    112 C         -4.5185  -19.4120  -49.7373 C.2       20 UNK         0.5000 
    113 O         -3.6995  -19.7623  -48.8865 O.2       20 UNK        -0.5000 
    114 N         -4.2704  -18.4809  -50.6638 N.am      21 UNK        -0.5000 
    115 CA        -3.0024  -17.7941  -50.8562 C.3       21 UNK         0.1400 
    116 CB        -2.9529  -16.5329  -49.9791 C.3       21 UNK        -0.1800 
    117 C         -2.8465  -17.4478  -52.3427 C.2       21 UNK         0.5000 
    118 O         -3.8417  -17.3437  -53.0629 O.2       21 UNK        -0.5000 
    119 N         -1.5918  -17.2679  -52.7589 N.am      22 UNK        -0.5000 
    120 CA        -1.1613  -16.9378  -54.1263 C.3       22 UNK         0.1400 
    121 C         -1.1017  -15.4102  -54.4315 C.2       22 UNK         0.5000 
    122 N         -1.4429  -14.5273  -53.5002 N.am      22 UNK        -0.7600 
    123 O         -0.7591  -15.0160  -55.5426 O.2       22 UNK        -0.5000 
    124 C124        0.1673  -17.6680  -54.4762 C.3       23 UNK        -0.0398 
    125 S125        1.4743  -17.4739  -53.2072 S.3       23 UNK        -0.2404 
    126 C126        1.2447  -19.0104  -52.2522 C.3       23 UNK        -0.0205 
    127 H127       -3.3445  -14.3645  -47.5795 H         1 UNK         0.0600 
    128 H128       -4.4276  -13.7452  -48.8248 H         1 UNK         0.0600 
    129 H129       -3.8841  -12.6819  -47.5228 H         1 UNK         0.0600 
    130 H130       -1.1175  -14.1781  -47.9124 H         1 UNK         0.3000 
    131 H131       -0.1564  -13.1133  -50.4446 H         1 UNK         0.0600 
    132 H132        0.6441  -15.2544  -49.9855 H         1 UNK         0.0800 
    133 H133        2.0100  -14.2257  -49.7744 H         1 UNK         0.0800 
    134 H134       -0.5132  -16.6814  -48.1175 H         1 UNK         0.0800 
    135 H135        0.4376  -17.2152  -46.7594 H         1 UNK         0.0800 
    136 H136        0.0999  -17.3978  -50.3842 H         1 UNK         0.1150 
    137 H137        3.2419  -20.2604  -50.8757 H         1 UNK         0.1150 
    138 H138        2.5821  -18.4339  -47.0515 H         1 UNK         0.1150 
    139 H139        4.7768  -20.6975  -49.0968 H         1 UNK         0.0800 
    140 H140        4.7810  -19.6716  -47.6863 H         1 UNK         0.0800 
    141 H141        2.8721  -23.5513  -48.6524 H         1 UNK         0.0800 
    142 H142        2.3963  -22.0709  -49.4125 H         1 UNK         0.0800 
    143 H143        1.0398  -23.5569  -47.1385 H         1 UNK         0.0600 
    144 H144        1.0721  -20.8320  -47.1219 H         1 UNK         0.3000 
    145 H145       -0.8764  -19.4691  -46.2626 H         1 UNK         0.0600 
    146 H146       -3.1358  -20.3333  -45.7445 H         1 UNK         0.0600 
    147 H147       -2.4866  -19.4724  -44.3573 H         1 UNK         0.0600 
    148 H148       -2.5157  -21.2344  -44.3647 H         1 UNK         0.0600 
    149 H149        0.5483  -19.3510  -44.5560 H         1 UNK         0.3000 
    150 H150        1.9161  -21.7784  -42.2969 H         1 UNK         0.0600 
    151 H151        3.2195  -21.3687  -44.3427 H         1 UNK         0.0600 
    152 H152        3.8139  -20.3599  -43.0362 H         1 UNK         0.0600 
    153 H153        2.8246  -19.6543  -44.3105 H         1 UNK         0.0600 
    154 H154        0.9428  -18.9564  -42.3654 H         1 UNK         0.3000 
    155 H155        1.0080  -18.8401  -38.8591 H         1 UNK         0.0600 
    156 H156        3.1418  -17.3710  -40.4910 H         1 UNK         0.0600 
    157 H157        3.4279  -18.3476  -39.0580 H         1 UNK         0.0600 
    158 H158        2.5059  -16.8581  -38.9301 H         1 UNK         0.0600 
    159 H159        0.7648  -16.7110  -40.7453 H         1 UNK         0.3000 
    160 H160       -2.7992  -17.0623  -41.0811 H         1 UNK         0.0600 
    161 H161       -0.9776  -15.1190  -39.5615 H         1 UNK         0.0600 
    162 H162       -2.3492  -15.9897  -38.8829 H         1 UNK         0.0600 
    163 H163       -2.6116  -14.7764  -40.1266 H         1 UNK         0.0600 
    164 H164       -0.3717  -15.5512  -41.9854 H         1 UNK         0.3000 
    165 H165       -1.0564  -16.2765  -45.3440 H         1 UNK         0.0600 
    166 H166       -0.9414  -13.8009  -45.7144 H         1 UNK         0.0600 
    167 H167       -2.5399  -14.3077  -45.1817 H         1 UNK         0.0600 
    168 H168       -1.4441  -13.5305  -44.0480 H         1 UNK         0.0600 
    169 H169        0.8515  -14.5413  -44.0895 H         1 UNK         0.3000 
    170 H170        3.0342  -16.9981  -42.8146 H         1 UNK         0.0600 
    171 H171        3.6504  -17.3507  -45.2050 H         1 UNK         0.0600 
    172 H172        3.5297  -15.6213  -45.5071 H         1 UNK         0.0600 
    173 H173        4.7704  -16.2505  -44.4224 H         1 UNK         0.0600 
    174 H174        3.6045  -14.3064  -43.3934 H         1 UNK         0.3000 
    175 H175        1.6231  -12.5707  -41.1109 H         1 UNK         0.0600 
    176 H176        4.6090  -13.1960  -40.7909 H         1 UNK         0.0600 
    177 H177        3.7597  -11.8066  -40.1117 H         1 UNK         0.0600 
    178 H178        3.3833  -13.4271  -39.5500 H         1 UNK         0.0600 
    179 H179        3.8161  -11.6678  -42.6172 H         1 UNK         0.3000 
    180 H180        3.1485  -10.2215  -44.4930 H         1 UNK         0.0600 
    181 H181        3.6103  -12.8648  -46.0189 H         1 UNK         0.0600 
    182 H182        4.7557  -12.1186  -44.9080 H         1 UNK         0.0600 
    183 H183        4.3612  -11.3237  -46.4218 H         1 UNK         0.0600 
    184 H184        0.9685  -11.5598  -45.8390 H         1 UNK         0.3000 
    185 H185       -0.4093   -9.4921  -46.9686 H         1 UNK         0.0600 
    186 H186        0.6628   -7.7817  -48.3730 H         1 UNK         0.0600 
    187 H187        1.3528   -9.0074  -49.4268 H         1 UNK         0.0600 
    188 H188       -0.3936   -8.7733  -49.3641 H         1 UNK         0.0600 
    189 H189       -0.8936  -11.4634  -47.8506 H         1 UNK         0.3000 
    190 H190       -0.5590  -21.4844  -49.5188 H         1 UNK         0.3000 
    191 H191       -1.1636  -23.5979  -51.3979 H         1 UNK         0.0600 
    192 H192       -2.6962  -21.8704  -52.3831 H         1 UNK         0.0600 
    193 H193       -1.0594  -21.2883  -52.1611 H         1 UNK         0.0600 
    194 H194       -2.3288  -20.8004  -51.0398 H         1 UNK         0.0600 
    195 H195       -2.8186  -22.2809  -48.5215 H         1 UNK         0.3000 
    196 H196       -5.2785  -23.7546  -48.8970 H         1 UNK         0.0600 
    197 H197       -4.1244  -22.6409  -46.2831 H         1 UNK         0.0600 
    198 H198       -5.0533  -21.6805  -47.4216 H         1 UNK         0.0600 
    199 H199       -5.7937  -23.0566  -46.6226 H         1 UNK         0.0600 
    200 H200       -2.2405  -24.2609  -47.0752 H         1 UNK         0.3000 
    201 H201       -2.8765  -26.7618  -45.9030 H         1 UNK         0.0600 
    202 H202       -0.9860  -25.2897  -45.1807 H         1 UNK         0.0600 
    203 H203       -0.1292  -25.6466  -46.6783 H         1 UNK         0.0600 
    204 H204       -0.4376  -26.9266  -45.5145 H         1 UNK         0.0600 
    205 H205       -1.4041  -25.9845  -49.0651 H         1 UNK         0.3000 
    206 H206       -1.0514  -28.7116  -49.9274 H         1 UNK         0.0600 
    207 H207        0.2857  -26.8086  -50.8207 H         1 UNK         0.0600 
    208 H208       -0.5721  -27.6225  -52.1186 H         1 UNK         0.0600 
    209 H209       -1.1703  -26.0862  -51.5056 H         1 UNK         0.0600 
    210 H210       -3.8686  -26.8517  -49.5658 H         1 UNK         0.3000 
    211 H211       -5.9806  -26.9605  -50.1517 H         1 UNK         0.0600 
    212 H212       -7.0121  -29.1269  -50.6981 H         1 UNK         0.0600 
    213 H213       -5.8056  -29.3508  -49.4420 H         1 UNK         0.0600 
    214 H214       -5.4509  -29.8246  -51.1031 H         1 UNK         0.0600 
    215 H215       -4.4402  -25.5543  -51.8562 H         1 UNK         0.3000 
    216 H216       -5.0234  -26.1360  -54.6449 H         1 UNK         0.0600 
    217 H217       -4.0336  -23.5675  -53.2974 H         1 UNK         0.0600 
    218 H218       -3.9191  -23.9532  -55.0086 H         1 UNK         0.0600 
    219 H219       -2.9813  -24.8706  -53.8424 H         1 UNK         0.0600 
    220 H220       -6.0200  -24.2309  -55.9329 H         1 UNK         0.3000 
    221 H221       -8.7912  -24.0763  -55.3321 H         1 UNK         0.0600 
    222 H222       -7.8783  -24.1694  -57.6380 H         1 UNK         0.0600 
    223 H223       -7.1058  -22.5974  -57.4232 H         1 UNK         0.0600 
    224 H224       -8.8601  -22.7286  -57.4354 H         1 UNK         0.0600 
    225 H225       -6.2421  -22.0534  -54.2183 H         1 UNK         0.3000 
    226 H226       -8.1591  -20.1364  -53.0776 H         1 UNK         0.0600 
    227 H227       -5.5597  -19.3190  -54.5110 H         1 UNK         0.0600 
    228 H228       -7.1886  -18.9644  -55.0853 H         1 UNK         0.0600 
    229 H229       -6.6059  -18.2438  -53.5926 H         1 UNK         0.0600 
    230 H230       -7.3774  -19.2874  -51.0814 H         1 UNK         0.3000 
    231 H231       -5.7717  -21.1350  -49.5715 H         1 UNK         0.0600 
    232 H232       -7.0083  -18.4287  -48.8241 H         1 UNK         0.0600 
    233 H233       -6.3263  -19.5780  -47.6818 H         1 UNK         0.0600 
    234 H234       -7.7569  -20.0113  -48.6031 H         1 UNK         0.0600 
    235 H235       -4.9666  -18.2838  -51.3707 H         1 UNK         0.3000 
    236 H236       -2.1835  -18.4591  -50.5746 H         1 UNK         0.0600 
    237 H237       -3.0355  -16.7841  -48.9213 H         1 UNK         0.0600 
    238 H238       -2.0137  -15.9964  -50.1137 H         1 UNK         0.0600 
    239 H239       -3.7636  -15.8458  -50.2240 H         1 UNK         0.0600 
    240 H240       -0.8338  -17.3433  -52.0994 H         1 UNK         0.3000 
    241 H241       -1.9164  -17.3230  -54.8148 H         1 UNK         0.0600 
    242 H242       -1.4106  -13.5437  -53.7184 H         1 UNK         0.3800 
    243 H243       -1.7630  -14.8305  -52.5967 H         1 UNK         0.3800 
    244 H244        0.5615  -17.3297  -55.4358 H         1 UNK         0.0800 
    245 H245       -0.0325  -18.7315  -54.6154 H         1 UNK         0.0800 
    246 H246        1.8230  -19.8073  -52.7225 H         1 UNK         0.0800 
    247 H247        0.2035  -19.3279  -52.2905 H         1 UNK         0.0800 
@<TRIPOS>BOND
     1    1    2 1    
     2    1  127 1    
     3    1  128 1    
     4    1  129 1    
     5    2    3 2    
     6    2    4 am   BACKBONE|DICT|INTERRES
     7    4    5 1    
     8    4  130 1    
     9    5    6 1    
    10    5   65 1    
    11    5  131 1    
    12    6    7 1    
    13    6  132 1    
    14    6  133 1    
    15    7    8 1    
    16    8    9 1    
    17    8  134 1    
    18    8  135 1    
    19    9   10 ar   
    20    9   14 ar   
    21   10   11 ar   
    22   10  136 1    
    23   11   12 ar   
    24   11  126 1    
    25   12   13 ar   
    26   12  137 1    
    27   13   14 ar   
    28   13   15 1    
    29   14  138 1    
    30   15   16 1    
    31   15  139 1    
    32   15  140 1    
    33   16   17 1    
    34   17   18 1    
    35   17  141 1    
    36   17  142 1    
    37   18   19 1    
    38   18   67 1    
    39   18  143 1    
    40   19   20 am   BACKBONE|DICT|INTERRES
    41   19  144 1    
    42   20   21 2    
    43   20   22 1    
    44   22   23 1    
    45   22   24 1    
    46   22  145 1    
    47   23  146 1    
    48   23  147 1    
    49   23  148 1    
    50   24   25 am   BACKBONE|DICT|INTERRES
    51   24  149 1    
    52   25   26 2    
    53   25   27 1    
    54   27   28 1    
    55   27   29 1    
    56   27  150 1    
    57   28  151 1    
    58   28  152 1    
    59   28  153 1    
    60   29   30 am   BACKBONE|DICT|INTERRES
    61   29  154 1    
    62   30   31 2    
    63   30   32 1    
    64   32   33 1    
    65   32   34 1    
    66   32  155 1    
    67   33  156 1    
    68   33  157 1    
    69   33  158 1    
    70   34   35 am   BACKBONE|DICT|INTERRES
    71   34  159 1    
    72   35   36 2    
    73   35   37 1    
    74   37   38 1    
    75   37   39 1    
    76   37  160 1    
    77   38  161 1    
    78   38  162 1    
    79   38  163 1    
    80   39   40 am   BACKBONE|DICT|INTERRES
    81   39  164 1    
    82   40   41 2    
    83   40   42 1    
    84   42   43 1    
    85   42   44 1    
    86   42  165 1    
    87   43  166 1    
    88   43  167 1    
    89   43  168 1    
    90   44   45 am   BACKBONE|DICT|INTERRES
    91   44  169 1    
    92   45   46 2    
    93   45   47 1    
    94   47   48 1    
    95   47   49 1    
    96   47  170 1    
    97   48  171 1    
    98   48  172 1    
    99   48  173 1    
   100   49   50 am   BACKBONE|DICT|INTERRES
   101   49  174 1    
   102   50   51 2    
   103   50   52 1    
   104   52   53 1    
   105   52   54 1    
   106   52  175 1    
   107   53  176 1    
   108   53  177 1    
   109   53  178 1    
   110   54   55 am   BACKBONE|DICT|INTERRES
   111   54  179 1    
   112   55   56 2    
   113   55   57 1    
   114   57   58 1    
   115   57   59 1    
   116   57  180 1    
   117   58  181 1    
   118   58  182 1    
   119   58  183 1    
   120   59   60 am   BACKBONE|DICT|INTERRES
   121   59  184 1    
   122   60   61 2    
   123   60   62 1    
   124   62   63 1    
   125   62   64 1    
   126   62  185 1    
   127   63  186 1    
   128   63  187 1    
   129   63  188 1    
   130   64   65 am   BACKBONE|DICT|INTERRES
   131   64  189 1    
   132   65   66 2    
   133   67   68 2    
   134   67   69 am   BACKBONE|DICT|INTERRES
   135   69   70 1    
   136   69  190 1    
   137   70   71 1    
   138   70   72 1    
   139   70  191 1    
   140   71  192 1    
   141   71  193 1    
   142   71  194 1    
   143   72   73 2    
   144   72   74 am   BACKBONE|DICT|INTERRES
   145   74   75 1    
   146   74  195 1    
   147   75   76 1    
   148   75   77 1    
   149   75  196 1    
   150   76  197 1    
   151   76  198 1    
   152   76  199 1    
   153   77   78 2    
   154   77   79 am   BACKBONE|DICT|INTERRES
   155   79   80 1    
   156   79  200 1    
   157   80   81 1    
   158   80   82 1    
   159   80  201 1    
   160   81  202 1    
   161   81  203 1    
   162   81  204 1    
   163   82   83 2    
   164   82   84 am   BACKBONE|DICT|INTERRES
   165   84   85 1    
   166   84  205 1    
   167   85   86 1    
   168   85   87 1    
   169   85  206 1    
   170   86  207 1    
   171   86  208 1    
   172   86  209 1    
   173   87   88 2    
   174   87   89 am   BACKBONE|DICT|INTERRES
   175   89   90 1    
   176   89  210 1    
   177   90   91 1    
   178   90   92 1    
   179   90  211 1    
   180   91  212 1    
   181   91  213 1    
   182   91  214 1    
   183   92   93 2    
   184   92   94 am   BACKBONE|DICT|INTERRES
   185   94   95 1    
   186   94  215 1    
   187   95   96 1    
   188   95   97 1    
   189   95  216 1    
   190   96  217 1    
   191   96  218 1    
   192   96  219 1    
   193   97   98 2    
   194   97   99 am   BACKBONE|DICT|INTERRES
   195   99  100 1    
   196   99  220 1    
   197  100  101 1    
   198  100  102 1    
   199  100  221 1    
   200  101  222 1    
   201  101  223 1    
   202  101  224 1    
   203  102  103 2    
   204  102  104 am   BACKBONE|DICT|INTERRES
   205  104  105 1    
   206  104  225 1    
   207  105  106 1    
   208  105  107 1    
   209  105  226 1    
   210  106  227 1    
   211  106  228 1    
   212  106  229 1    
   213  107  108 2    
   214  107  109 am   BACKBONE|DICT|INTERRES
   215  109  110 1    
   216  109  230 1    
   217  110  111 1    
   218  110  112 1    
   219  110  231 1    
   220  111  232 1    
   221  111  233 1    
   222  111  234 1    
   223  112  113 2    
   224  112  114 am   BACKBONE|DICT|INTERRES
   225  114  115 1    
   226  114  235 1    
   227  115  116 1    
   228  115  117 1    
   229  115  236 1    
   230  116  237 1    
   231  116  238 1    
   232  116  239 1    
   233  117  118 2    
   234  117  119 am   BACKBONE|DICT|INTERRES
   235  119  120 1    
   236  119  240 1    
   237  120  121 1    
   238  120  124 1    
   239  120  241 1    
   240  121  122 am   BACKBONE|DICT|INTERRES
   241  121  123 2    
   242  122  242 1    
   243  122  243 1    
   244  124  125 1    
   245  124  244 1    
   246  124  245 1    
   247  125  126 1    
   248  126  246 1    
   249  126  247 1    
@<TRIPOS>SUBSTRUCTURE
     1 UNK         1 GROUP             0       ****    0 ROOT    
