@<TRIPOS>MOLECULE
3R540
247   249    1
SMALL
USER_CHARGES


@<TRIPOS>ATOM
      1 CA          0.2040  -11.7592  -50.1609 C.3       0 UNK        -0.1800 
      2 C          -0.0453  -13.1753  -49.6628 C.2       0 UNK         0.5000 
      3 O          -0.9544  -13.8420  -50.1535 O.2       0 UNK        -0.5000 
      4 N           0.7534  -13.6268  -48.6874 N.am      1 UNK        -0.5000 
      5 CA          0.7329  -14.9410  -48.0280 C.3       1 UNK         0.1400 
      6 C6          0.9872  -16.1490  -48.9689 C.3       23 UNK        -0.0398 
      7 S7          2.6465  -16.0874  -49.7171 S.3       23 UNK        -0.2404 
      8 C8          2.3845  -17.0132  -51.2625 C.3       23 UNK        -0.0205 
      9 C9          2.1706  -18.5107  -51.0577 C.ar      23 UNK        -0.0193 
     10 C10         1.1006  -19.1510  -51.6867 C.ar      23 UNK        -0.1150 
     11 C11         0.9628  -20.5410  -51.6246 C.ar      23 UNK        -0.0193 
     12 C12         1.8810  -21.2906  -50.8815 C.ar      23 UNK        -0.1150 
     13 C13         2.9448  -20.6630  -50.2205 C.ar      23 UNK        -0.0193 
     14 C14         3.0833  -19.2739  -50.3213 C.ar      23 UNK        -0.1150 
     15 C15         4.0089  -21.4657  -49.4714 C.3       23 UNK        -0.0205 
     16 S16         3.3729  -22.8440  -48.4565 S.3       23 UNK        -0.2404 
     17 C17         2.5195  -21.9599  -47.1074 C.3       23 UNK        -0.0398 
     18 CA          1.2431  -22.6943  -46.6265 C.3       11 UNK         0.1400 
     19 N           0.7574  -22.1916  -45.3358 N.am      11 UNK        -0.5000 
     20 C          -0.2323  -22.7523  -44.6230 C.2       10 UNK         0.5000 
     21 O          -0.7832  -23.8053  -44.9349 O.2       10 UNK        -0.5000 
     22 CA         -0.7405  -21.9900  -43.3862 C.3       10 UNK         0.1400 
     23 CB          0.1052  -22.3250  -42.1495 C.3       10 UNK        -0.1800 
     24 N          -0.7778  -20.5432  -43.5955 N.am      10 UNK        -0.5000 
     25 C          -1.5537  -19.9256  -44.4990 C.2       9 UNK         0.5000 
     26 O          -2.3901  -20.5073  -45.1892 O.2       9 UNK        -0.5000 
     27 CA         -1.2988  -18.4233  -44.7204 C.3       9 UNK         0.1400 
     28 CB         -2.0259  -17.5725  -43.6694 C.3       9 UNK        -0.1800 
     29 N           0.1297  -18.1121  -44.7068 N.am      9 UNK        -0.5000 
     30 C           1.0084  -18.5492  -45.6179 C.2       8 UNK         0.5000 
     31 O           0.6830  -19.1861  -46.6191 O.2       8 UNK        -0.5000 
     32 CA          2.4989  -18.2964  -45.3295 C.3       8 UNK         0.1400 
     33 CB          2.9576  -16.9335  -45.8565 C.3       8 UNK        -0.1800 
     34 N           2.7857  -18.3726  -43.8997 N.am      8 UNK        -0.5000 
     35 C           2.9493  -19.5161  -43.2247 C.2       7 UNK         0.5000 
     36 O           2.9003  -20.6275  -43.7520 O.2       7 UNK        -0.5000 
     37 CA          3.1827  -19.3970  -41.7060 C.3       7 UNK         0.1400 
     38 CB          4.6799  -19.2380  -41.4032 C.3       7 UNK        -0.1800 
     39 N           2.4469  -18.2849  -41.0977 N.am      7 UNK        -0.5000 
     40 C           1.1133  -18.2471  -40.9744 C.2       6 UNK         0.5000 
     41 O           0.3714  -19.1541  -41.3471 O.2       6 UNK        -0.5000 
     42 CA          0.4962  -16.9683  -40.3763 C.3       6 UNK         0.1400 
     43 CB          0.4878  -17.0430  -38.8424 C.3       6 UNK        -0.1800 
     44 N           1.1300  -15.7134  -40.7943 N.am      6 UNK        -0.5000 
     45 C           1.3505  -15.3244  -42.0568 C.2       5 UNK         0.5000 
     46 O           1.1518  -16.0437  -43.0347 O.2       5 UNK        -0.5000 
     47 CA          1.8408  -13.8773  -42.2544 C.3       5 UNK         0.1400 
     48 CB          2.5523  -13.6861  -43.6059 C.3       5 UNK        -0.1800 
     49 N           0.7182  -12.9443  -42.1837 N.am      5 UNK        -0.5000 
     50 C           0.0626  -12.5915  -41.0698 C.2       4 UNK         0.5000 
     51 O           0.4048  -12.9460  -39.9403 O.2       4 UNK        -0.5000 
     52 CA         -1.1805  -11.6919  -41.2350 C.3       4 UNK         0.1400 
     53 CB         -0.8629  -10.2538  -40.7962 C.3       4 UNK        -0.1800 
     54 N          -1.7261  -11.6583  -42.5968 N.am      4 UNK        -0.5000 
     55 C          -2.3493  -12.6749  -43.2088 C.2       3 UNK         0.5000 
     56 O          -2.5185  -13.7781  -42.6856 O.2       3 UNK        -0.5000 
     57 CA         -2.8707  -12.4232  -44.6366 C.3       3 UNK         0.1400 
     58 CB         -2.1916  -11.2391  -45.3590 C.3       3 UNK        -0.1800 
     59 N          -2.6962  -13.6371  -45.4241 N.am      3 UNK        -0.5000 
     60 C          -3.4595  -14.0385  -46.4435 C.2       2 UNK         0.5000 
     61 O          -4.4444  -13.4167  -46.8465 O.2       2 UNK        -0.5000 
     62 CA         -3.0106  -15.3386  -47.1440 C.3       2 UNK         0.1400 
     63 CB         -4.0148  -15.8328  -48.2004 C.3       2 UNK        -0.1800 
     64 N          -1.7043  -15.1751  -47.7822 N.am      2 UNK        -0.5000 
     65 C          -0.5208  -15.1560  -47.1590 C.2       1 UNK         0.5000 
     66 O          -0.3960  -15.2741  -45.9412 O.2       1 UNK        -0.5000 
     67 C           0.1287  -22.6777  -47.6934 C.2       11 UNK         0.5000 
     68 O          -0.0999  -23.6980  -48.3434 O.2       11 UNK        -0.5000 
     69 N          -0.5833  -21.5466  -47.8110 N.am      12 UNK        -0.5000 
     70 CA         -1.7282  -21.3883  -48.7080 C.3       12 UNK         0.1400 
     71 CB         -2.2026  -19.9270  -48.7088 C.3       12 UNK        -0.1800 
     72 C          -2.8829  -22.3570  -48.3922 C.2       12 UNK         0.5000 
     73 O          -3.4774  -22.9111  -49.3187 O.2       12 UNK        -0.5000 
     74 N          -3.1605  -22.5716  -47.1002 N.am      13 UNK        -0.5000 
     75 CA         -4.1386  -23.5447  -46.6168 C.3       13 UNK         0.1400 
     76 CB         -4.3849  -23.3305  -45.1162 C.3       13 UNK        -0.1800 
     77 C          -3.7217  -24.9986  -46.9098 C.2       13 UNK         0.5000 
     78 O          -4.5305  -25.7600  -47.4397 O.2       13 UNK        -0.5000 
     79 N          -2.4661  -25.3517  -46.5968 N.am      14 UNK        -0.5000 
     80 CA         -1.8854  -26.6823  -46.8098 C.3       14 UNK         0.1400 
     81 CB         -0.4996  -26.7524  -46.1510 C.3       14 UNK        -0.1800 
     82 C          -1.7937  -27.0803  -48.2938 C.2       14 UNK         0.5000 
     83 O          -1.9994  -28.2484  -48.6248 O.2       14 UNK        -0.5000 
     84 N          -1.5275  -26.0965  -49.1623 N.am      15 UNK        -0.5000 
     85 CA         -1.5350  -26.2340  -50.6195 C.3       15 UNK         0.1400 
     86 CB         -0.8423  -25.0029  -51.2261 C.3       15 UNK        -0.1800 
     87 C          -2.9483  -26.3898  -51.2198 C.2       15 UNK         0.5000 
     88 O          -3.0587  -26.6986  -52.4067 O.2       15 UNK        -0.5000 
     89 N          -3.9925  -26.1353  -50.4133 N.am      16 UNK        -0.5000 
     90 CA         -5.4113  -26.0503  -50.7811 C.3       16 UNK         0.1400 
     91 CB         -5.9419  -27.4040  -51.2967 C.3       16 UNK        -0.1800 
     92 C          -5.7096  -24.8768  -51.7394 C.2       16 UNK         0.5000 
     93 O          -6.7004  -24.9085  -52.4712 O.2       16 UNK        -0.5000 
     94 N          -4.8442  -23.8561  -51.7072 N.am      17 UNK        -0.5000 
     95 CA         -4.9505  -22.6284  -52.4860 C.3       17 UNK         0.1400 
     96 CB         -3.5367  -22.0655  -52.6902 C.3       17 UNK        -0.1800 
     97 C          -5.8496  -21.6031  -51.7764 C.2       17 UNK         0.5000 
     98 O          -6.5782  -20.8720  -52.4470 O.2       17 UNK        -0.5000 
     99 N          -5.7743  -21.5819  -50.4356 N.am      18 UNK        -0.5000 
    100 CA        -6.5454  -20.8067  -49.4544 C.3       18 UNK         0.1400 
    101 CB        -8.0369  -21.1862  -49.5030 C.3       18 UNK        -0.1800 
    102 C         -6.3557  -19.2799  -49.5365 C.2       18 UNK         0.5000 
    103 O         -5.9964  -18.6581  -48.5383 O.2       18 UNK        -0.5000 
    104 N         -6.5794  -18.7114  -50.7241 N.am      19 UNK        -0.5000 
    105 CA        -6.4815  -17.2862  -51.0415 C.3       19 UNK         0.1400 
    106 CB        -7.6811  -16.9073  -51.9278 C.3       19 UNK        -0.1800 
    107 C         -5.1397  -16.9383  -51.7189 C.2       19 UNK         0.5000 
    108 O         -5.0520  -15.9192  -52.4044 O.2       19 UNK        -0.5000 
    109 N         -4.1273  -17.7995  -51.5289 N.am      20 UNK        -0.5000 
    110 CA        -2.7705  -17.7131  -52.0818 C.3       20 UNK         0.1400 
    111 CB        -2.0225  -16.4875  -51.5300 C.3       20 UNK        -0.1800 
    112 C         -2.7351  -17.8044  -53.6217 C.2       20 UNK         0.5000 
    113 O         -1.9209  -17.1468  -54.2734 O.2       20 UNK        -0.5000 
    114 N         -3.5959  -18.6743  -54.1701 N.am      21 UNK        -0.5000 
    115 CA        -3.7585  -18.9724  -55.5990 C.3       21 UNK         0.1400 
    116 CB        -4.9541  -19.9243  -55.7713 C.3       21 UNK        -0.1800 
    117 C         -2.5041  -19.5279  -56.3143 C.2       21 UNK         0.5000 
    118 O         -2.5128  -19.6278  -57.5421 O.2       21 UNK        -0.5000 
    119 N         -1.4451  -19.8479  -55.5564 N.am      22 UNK        -0.5000 
    120 CA        -0.0856  -20.1021  -56.0629 C.3       22 UNK         0.1400 
    121 C          0.5403  -18.8899  -56.8186 C.2       22 UNK         0.5000 
    122 N          0.1413  -17.6549  -56.5292 N.am      22 UNK        -0.7600 
    123 O          1.4021  -19.0756  -57.6732 O.2       22 UNK        -0.5000 
    124 C124        0.8910  -20.5409  -54.9396 C.3       23 UNK        -0.0398 
    125 S125        0.3409  -21.9774  -53.9540 S.3       23 UNK        -0.2404 
    126 C126       -0.1731  -21.2279  -52.3722 C.3       23 UNK        -0.0205 
    127 H127        0.4277  -11.7720  -51.2276 H         1 UNK         0.0600 
    128 H128        1.0396  -11.2872  -49.6436 H         1 UNK         0.0600 
    129 H129       -0.6835  -11.1460  -50.0047 H         1 UNK         0.0600 
    130 H130        1.4654  -13.0022  -48.3360 H         1 UNK         0.3000 
    131 H131        1.5672  -14.8994  -47.3279 H         1 UNK         0.0600 
    132 H132        0.9060  -17.0927  -48.4269 H         1 UNK         0.0800 
    133 H133        0.2383  -16.1899  -49.7575 H         1 UNK         0.0800 
    134 H134        1.5509  -16.5665  -51.8065 H         1 UNK         0.0800 
    135 H135        3.2631  -16.8798  -51.8948 H         1 UNK         0.0800 
    136 H136        0.4003  -18.5697  -52.2691 H         1 UNK         0.1150 
    137 H137        1.7783  -22.3659  -50.8387 H         1 UNK         0.1150 
    138 H138        3.9238  -18.7834  -49.8509 H         1 UNK         0.1150 
    139 H139        4.7014  -21.8750  -50.2079 H         1 UNK         0.0800 
    140 H140        4.6000  -20.8114  -48.8285 H         1 UNK         0.0800 
    141 H141        2.2909  -20.9455  -47.4315 H         1 UNK         0.0800 
    142 H142        3.2264  -21.8632  -46.2824 H         1 UNK         0.0800 
    143 H143        1.5107  -23.7403  -46.4609 H         1 UNK         0.0600 
    144 H144        1.1910  -21.3491  -44.9816 H         1 UNK         0.3000 
    145 H145       -1.7625  -22.3206  -43.1915 H         1 UNK         0.0600 
    146 H146       -0.3029  -21.8554  -41.2545 H         1 UNK         0.0600 
    147 H147        0.1251  -23.4008  -41.9708 H         1 UNK         0.0600 
    148 H148        1.1366  -21.9925  -42.2615 H         1 UNK         0.0600 
    149 H149       -0.1721  -19.9828  -43.0029 H         1 UNK         0.3000 
    150 H150       -1.6886  -18.1575  -45.7049 H         1 UNK         0.0600 
    151 H151       -3.1033  -17.7339  -43.7159 H         1 UNK         0.0600 
    152 H152       -1.8473  -16.5087  -43.8295 H         1 UNK         0.0600 
    153 H153       -1.7002  -17.8164  -42.6587 H         1 UNK         0.0600 
    154 H154        0.4642  -17.5013  -43.9654 H         1 UNK         0.3000 
    155 H155        3.0777  -19.0646  -45.8466 H         1 UNK         0.0600 
    156 H156        2.3474  -16.1221  -45.4608 H         1 UNK         0.0600 
    157 H157        3.9956  -16.7336  -45.5903 H         1 UNK         0.0600 
    158 H158        2.8961  -16.9064  -46.9420 H         1 UNK         0.0600 
    159 H159        2.7364  -17.5033  -43.3850 H         1 UNK         0.3000 
    160 H160        2.8394  -20.3256  -41.2450 H         1 UNK         0.0600 
    161 H161        5.0799  -18.3130  -41.8203 H         1 UNK         0.0600 
    162 H162        5.2532  -20.0641  -41.8263 H         1 UNK         0.0600 
    163 H163        4.8665  -19.2312  -40.3292 H         1 UNK         0.0600 
    164 H164        2.9861  -17.4954  -40.7739 H         1 UNK         0.3000 
    165 H165       -0.5405  -16.9240  -40.7147 H         1 UNK         0.0600 
    166 H166       -0.0550  -16.2023  -38.4097 H         1 UNK         0.0600 
    167 H167       -0.0006  -17.9554  -38.4972 H         1 UNK         0.0600 
    168 H168        1.4990  -17.0361  -38.4338 H         1 UNK         0.0600 
    169 H169        1.2600  -15.0193  -40.0690 H         1 UNK         0.3000 
    170 H170        2.5529  -13.6442  -41.4601 H         1 UNK         0.0600 
    171 H171        1.8775  -13.8563  -44.4463 H         1 UNK         0.0600 
    172 H172        2.9545  -12.6774  -43.6998 H         1 UNK         0.0600 
    173 H173        3.3878  -14.3797  -43.7093 H         1 UNK         0.0600 
    174 H174        0.3498  -12.6237  -43.0661 H         1 UNK         0.3000 
    175 H175       -1.9529  -12.0873  -40.5720 H         1 UNK         0.0600 
    176 H176       -1.7533   -9.6255  -40.8268 H         1 UNK         0.0600 
    177 H177       -0.1055   -9.7966  -41.4343 H         1 UNK         0.0600 
    178 H178       -0.4868  -10.2303  -39.7725 H         1 UNK         0.0600 
    179 H179       -1.6253  -10.7862  -43.0961 H         1 UNK         0.3000 
    180 H180       -3.9373  -12.2101  -44.5421 H         1 UNK         0.0600 
    181 H181       -1.1116  -11.3758  -45.4288 H         1 UNK         0.0600 
    182 H182       -2.3818  -10.2947  -44.8481 H         1 UNK         0.0600 
    183 H183       -2.5741  -11.1277  -46.3738 H         1 UNK         0.0600 
    184 H184       -1.9022  -14.2184  -45.1689 H         1 UNK         0.3000 
    185 H185       -2.9337  -16.1101  -46.3755 H         1 UNK         0.0600 
    186 H186       -5.0083  -15.9613  -47.7691 H         1 UNK         0.0600 
    187 H187       -4.1027  -15.1341  -49.0334 H         1 UNK         0.0600 
    188 H188       -3.7147  -16.8000  -48.6042 H         1 UNK         0.0600 
    189 H189       -1.7070  -14.9283  -48.7682 H         1 UNK         0.3000 
    190 H190       -0.3087  -20.7354  -47.2640 H         1 UNK         0.3000 
    191 H191       -1.3821  -21.6250  -49.7124 H         1 UNK         0.0600 
    192 H192       -1.4043  -19.2539  -49.0234 H         1 UNK         0.0600 
    193 H193       -3.0375  -19.7885  -49.3958 H         1 UNK         0.0600 
    194 H194       -2.5372  -19.6089  -47.7215 H         1 UNK         0.0600 
    195 H195       -2.6721  -22.0217  -46.3992 H         1 UNK         0.3000 
    196 H196       -5.0792  -23.3583  -47.1395 H         1 UNK         0.0600 
    197 H197       -5.1462  -24.0171  -44.7441 H         1 UNK         0.0600 
    198 H198       -4.7330  -22.3171  -44.9152 H         1 UNK         0.0600 
    199 H199       -3.4808  -23.4946  -44.5303 H         1 UNK         0.0600 
    200 H200       -1.8648  -24.6726  -46.1341 H         1 UNK         0.3000 
    201 H201       -2.5336  -27.4083  -46.3150 H         1 UNK         0.0600 
    202 H202       -0.5645  -26.5752  -45.0774 H         1 UNK         0.0600 
    203 H203        0.1821  -26.0126  -46.5725 H         1 UNK         0.0600 
    204 H204       -0.0474  -27.7351  -46.2909 H         1 UNK         0.0600 
    205 H205       -1.2869  -25.1785  -48.7972 H         1 UNK         0.3000 
    206 H206       -0.9611  -27.1230  -50.8882 H         1 UNK         0.0600 
    207 H207        0.1836  -24.9085  -50.8695 H         1 UNK         0.0600 
    208 H208       -0.8029  -25.0633  -52.3145 H         1 UNK         0.0600 
    209 H209       -1.3726  -24.0865  -50.9665 H         1 UNK         0.0600 
    210 H210       -3.7953  -25.9095  -49.4453 H         1 UNK         0.3000 
    211 H211       -5.9451  -25.8218  -49.8579 H         1 UNK         0.0600 
    212 H212       -5.5249  -27.6616  -52.2704 H         1 UNK         0.0600 
    213 H213       -7.0268  -27.3819  -51.4040 H         1 UNK         0.0600 
    214 H214       -5.7020  -28.2104  -50.6037 H         1 UNK         0.0600 
    215 H215       -4.0991  -23.8878  -51.0210 H         1 UNK         0.3000 
    216 H216       -5.3819  -22.8525  -53.4639 H         1 UNK         0.0600 
    217 H217       -3.5491  -21.1999  -53.3461 H         1 UNK         0.0600 
    218 H218       -2.8806  -22.8053  -53.1500 H         1 UNK         0.0600 
    219 H219       -3.0846  -21.7576  -51.7476 H         1 UNK         0.0600 
    220 H220       -5.0819  -22.2008  -50.0224 H         1 UNK         0.3000 
    221 H221       -6.1652  -21.1133  -48.4783 H         1 UNK         0.0600 
    222 H222       -8.4935  -20.9306  -50.4596 H         1 UNK         0.0600 
    223 H223       -8.1746  -22.2556  -49.3429 H         1 UNK         0.0600 
    224 H224       -8.5970  -20.6661  -48.7249 H         1 UNK         0.0600 
    225 H225       -6.8056  -19.3354  -51.4967 H         1 UNK         0.3000 
    226 H226       -6.5385  -16.6970  -50.1241 H         1 UNK         0.0600 
    227 H227       -8.6239  -17.1558  -51.4403 H         1 UNK         0.0600 
    228 H228       -7.6988  -15.8364  -52.1339 H         1 UNK         0.0600 
    229 H229       -7.6519  -17.4281  -52.8858 H         1 UNK         0.0600 
    230 H230       -4.3199  -18.5976  -50.9426 H         1 UNK         0.3000 
    231 H231       -2.2433  -18.5960  -51.7194 H         1 UNK         0.0600 
    232 H232       -2.4649  -15.5510  -51.8699 H         1 UNK         0.0600 
    233 H233       -0.9801  -16.4849  -51.8485 H         1 UNK         0.0600 
    234 H234       -2.0308  -16.4855  -50.4413 H         1 UNK         0.0600 
    235 H235       -4.2461  -19.1371  -53.5532 H         1 UNK         0.3000 
    236 H236       -4.0052  -18.0304  -56.0927 H         1 UNK         0.0600 
    237 H237       -5.8542  -19.5209  -55.3065 H         1 UNK         0.0600 
    238 H238       -5.1797  -20.0797  -56.8271 H         1 UNK         0.0600 
    239 H239       -4.7606  -20.9039  -55.3346 H         1 UNK         0.0600 
    240 H240       -1.5315  -19.7416  -54.5600 H         1 UNK         0.3000 
    241 H241       -0.1610  -20.9202  -56.7815 H         1 UNK         0.0600 
    242 H242       -0.5595  -17.4859  -55.8158 H         1 UNK         0.3800 
    243 H243        0.5485  -16.8755  -57.0211 H         1 UNK         0.3800 
    244 H244        1.8530  -20.8146  -55.3768 H         1 UNK         0.0800 
    245 H245        1.1044  -19.7004  -54.2820 H         1 UNK         0.0800 
    246 H246       -0.9914  -20.5315  -52.5499 H         1 UNK         0.0800 
    247 H247       -0.5771  -22.0247  -51.7512 H         1 UNK         0.0800 
@<TRIPOS>BOND
     1    1    2 1    
     2    1  127 1    
     3    1  128 1    
     4    1  129 1    
     5    2    3 2    
     6    2    4 am   BACKBONE|DICT|INTERRES
     7    4    5 1    
     8    4  130 1    
     9    5    6 1    
    10    5   65 1    
    11    5  131 1    
    12    6    7 1    
    13    6  132 1    
    14    6  133 1    
    15    7    8 1    
    16    8    9 1    
    17    8  134 1    
    18    8  135 1    
    19    9   10 ar   
    20    9   14 ar   
    21   10   11 ar   
    22   10  136 1    
    23   11   12 ar   
    24   11  126 1    
    25   12   13 ar   
    26   12  137 1    
    27   13   14 ar   
    28   13   15 1    
    29   14  138 1    
    30   15   16 1    
    31   15  139 1    
    32   15  140 1    
    33   16   17 1    
    34   17   18 1    
    35   17  141 1    
    36   17  142 1    
    37   18   19 1    
    38   18   67 1    
    39   18  143 1    
    40   19   20 am   BACKBONE|DICT|INTERRES
    41   19  144 1    
    42   20   21 2    
    43   20   22 1    
    44   22   23 1    
    45   22   24 1    
    46   22  145 1    
    47   23  146 1    
    48   23  147 1    
    49   23  148 1    
    50   24   25 am   BACKBONE|DICT|INTERRES
    51   24  149 1    
    52   25   26 2    
    53   25   27 1    
    54   27   28 1    
    55   27   29 1    
    56   27  150 1    
    57   28  151 1    
    58   28  152 1    
    59   28  153 1    
    60   29   30 am   BACKBONE|DICT|INTERRES
    61   29  154 1    
    62   30   31 2    
    63   30   32 1    
    64   32   33 1    
    65   32   34 1    
    66   32  155 1    
    67   33  156 1    
    68   33  157 1    
    69   33  158 1    
    70   34   35 am   BACKBONE|DICT|INTERRES
    71   34  159 1    
    72   35   36 2    
    73   35   37 1    
    74   37   38 1    
    75   37   39 1    
    76   37  160 1    
    77   38  161 1    
    78   38  162 1    
    79   38  163 1    
    80   39   40 am   BACKBONE|DICT|INTERRES
    81   39  164 1    
    82   40   41 2    
    83   40   42 1    
    84   42   43 1    
    85   42   44 1    
    86   42  165 1    
    87   43  166 1    
    88   43  167 1    
    89   43  168 1    
    90   44   45 am   BACKBONE|DICT|INTERRES
    91   44  169 1    
    92   45   46 2    
    93   45   47 1    
    94   47   48 1    
    95   47   49 1    
    96   47  170 1    
    97   48  171 1    
    98   48  172 1    
    99   48  173 1    
   100   49   50 am   BACKBONE|DICT|INTERRES
   101   49  174 1    
   102   50   51 2    
   103   50   52 1    
   104   52   53 1    
   105   52   54 1    
   106   52  175 1    
   107   53  176 1    
   108   53  177 1    
   109   53  178 1    
   110   54   55 am   BACKBONE|DICT|INTERRES
   111   54  179 1    
   112   55   56 2    
   113   55   57 1    
   114   57   58 1    
   115   57   59 1    
   116   57  180 1    
   117   58  181 1    
   118   58  182 1    
   119   58  183 1    
   120   59   60 am   BACKBONE|DICT|INTERRES
   121   59  184 1    
   122   60   61 2    
   123   60   62 1    
   124   62   63 1    
   125   62   64 1    
   126   62  185 1    
   127   63  186 1    
   128   63  187 1    
   129   63  188 1    
   130   64   65 am   BACKBONE|DICT|INTERRES
   131   64  189 1    
   132   65   66 2    
   133   67   68 2    
   134   67   69 am   BACKBONE|DICT|INTERRES
   135   69   70 1    
   136   69  190 1    
   137   70   71 1    
   138   70   72 1    
   139   70  191 1    
   140   71  192 1    
   141   71  193 1    
   142   71  194 1    
   143   72   73 2    
   144   72   74 am   BACKBONE|DICT|INTERRES
   145   74   75 1    
   146   74  195 1    
   147   75   76 1    
   148   75   77 1    
   149   75  196 1    
   150   76  197 1    
   151   76  198 1    
   152   76  199 1    
   153   77   78 2    
   154   77   79 am   BACKBONE|DICT|INTERRES
   155   79   80 1    
   156   79  200 1    
   157   80   81 1    
   158   80   82 1    
   159   80  201 1    
   160   81  202 1    
   161   81  203 1    
   162   81  204 1    
   163   82   83 2    
   164   82   84 am   BACKBONE|DICT|INTERRES
   165   84   85 1    
   166   84  205 1    
   167   85   86 1    
   168   85   87 1    
   169   85  206 1    
   170   86  207 1    
   171   86  208 1    
   172   86  209 1    
   173   87   88 2    
   174   87   89 am   BACKBONE|DICT|INTERRES
   175   89   90 1    
   176   89  210 1    
   177   90   91 1    
   178   90   92 1    
   179   90  211 1    
   180   91  212 1    
   181   91  213 1    
   182   91  214 1    
   183   92   93 2    
   184   92   94 am   BACKBONE|DICT|INTERRES
   185   94   95 1    
   186   94  215 1    
   187   95   96 1    
   188   95   97 1    
   189   95  216 1    
   190   96  217 1    
   191   96  218 1    
   192   96  219 1    
   193   97   98 2    
   194   97   99 am   BACKBONE|DICT|INTERRES
   195   99  100 1    
   196   99  220 1    
   197  100  101 1    
   198  100  102 1    
   199  100  221 1    
   200  101  222 1    
   201  101  223 1    
   202  101  224 1    
   203  102  103 2    
   204  102  104 am   BACKBONE|DICT|INTERRES
   205  104  105 1    
   206  104  225 1    
   207  105  106 1    
   208  105  107 1    
   209  105  226 1    
   210  106  227 1    
   211  106  228 1    
   212  106  229 1    
   213  107  108 2    
   214  107  109 am   BACKBONE|DICT|INTERRES
   215  109  110 1    
   216  109  230 1    
   217  110  111 1    
   218  110  112 1    
   219  110  231 1    
   220  111  232 1    
   221  111  233 1    
   222  111  234 1    
   223  112  113 2    
   224  112  114 am   BACKBONE|DICT|INTERRES
   225  114  115 1    
   226  114  235 1    
   227  115  116 1    
   228  115  117 1    
   229  115  236 1    
   230  116  237 1    
   231  116  238 1    
   232  116  239 1    
   233  117  118 2    
   234  117  119 am   BACKBONE|DICT|INTERRES
   235  119  120 1    
   236  119  240 1    
   237  120  121 1    
   238  120  124 1    
   239  120  241 1    
   240  121  122 am   BACKBONE|DICT|INTERRES
   241  121  123 2    
   242  122  242 1    
   243  122  243 1    
   244  124  125 1    
   245  124  244 1    
   246  124  245 1    
   247  125  126 1    
   248  126  246 1    
   249  126  247 1    
@<TRIPOS>SUBSTRUCTURE
     1 UNK         1 GROUP             0       ****    0 ROOT    
