@<TRIPOS>MOLECULE
3R540
247   249    1
SMALL
USER_CHARGES


@<TRIPOS>ATOM
      1 CA          3.8507  -15.3475  -43.9521 C.3       0 UNK        -0.1800 
      2 C           2.7472  -14.4343  -44.4645 C.2       0 UNK         0.5000 
      3 O           2.1803  -13.6633  -43.6899 O.2       0 UNK        -0.5000 
      4 N           2.4453  -14.5039  -45.7692 N.am      1 UNK        -0.5000 
      5 CA          1.3615  -13.7632  -46.4321 C.3       1 UNK         0.1400 
      6 C6          1.1823  -14.2118  -47.9045 C.3       23 UNK        -0.0398 
      7 S7         -0.5041  -13.8977  -48.5320 S.3       23 UNK        -0.2404 
      8 C8         -1.2453  -15.5592  -48.4853 C.3       23 UNK        -0.0205 
      9 C9         -0.8671  -16.3852  -49.7068 C.ar      23 UNK        -0.0193 
     10 C10        -1.5721  -16.2297  -50.9035 C.ar      23 UNK        -0.1150 
     11 C11        -1.2274  -16.9770  -52.0330 C.ar      23 UNK        -0.0193 
     12 C12        -0.1801  -17.8995  -51.9553 C.ar      23 UNK        -0.1150 
     13 C13         0.5362  -18.0646  -50.7663 C.ar      23 UNK        -0.0193 
     14 C14         0.1839  -17.3044  -49.6450 C.ar      23 UNK        -0.1150 
     15 C15         1.7456  -18.9918  -50.7318 C.3       23 UNK        -0.0205 
     16 S16         1.8185  -20.0419  -49.2461 S.3       23 UNK        -0.2404 
     17 C17         1.0289  -21.5942  -49.8007 C.3       23 UNK        -0.0398 
     18 CA          0.1302  -22.2642  -48.7287 C.3       11 UNK         0.1400 
     19 N           0.7642  -22.2932  -47.4050 N.am      11 UNK        -0.5000 
     20 C           0.3066  -22.9215  -46.3173 C.2       10 UNK         0.5000 
     21 O          -0.7299  -23.5852  -46.3113 O.2       10 UNK        -0.5000 
     22 CA          1.0798  -22.7242  -45.0023 C.3       10 UNK         0.1400 
     23 CB          2.1937  -23.7732  -44.8377 C.3       10 UNK        -0.1800 
     24 N           1.5714  -21.3554  -44.8051 N.am      10 UNK        -0.5000 
     25 C           2.5619  -20.7010  -45.4295 C.2       9 UNK         0.5000 
     26 O           3.2497  -21.1852  -46.3274 O.2       9 UNK        -0.5000 
     27 CA          2.8120  -19.2506  -44.9730 C.3       9 UNK         0.1400 
     28 CB          1.8610  -18.2873  -45.7024 C.3       9 UNK        -0.1800 
     29 N           2.6454  -19.0897  -43.5283 N.am      9 UNK        -0.5000 
     30 C           3.4306  -19.6577  -42.6005 C.2       8 UNK         0.5000 
     31 O           4.4515  -20.2958  -42.8596 O.2       8 UNK        -0.5000 
     32 CA          2.9779  -19.5156  -41.1379 C.3       8 UNK         0.1400 
     33 CB          3.4848  -18.1974  -40.5339 C.3       8 UNK        -0.1800 
     34 N           1.5200  -19.5887  -41.0235 N.am      8 UNK        -0.5000 
     35 C           0.8209  -20.7331  -41.0484 C.2       7 UNK         0.5000 
     36 O           1.3389  -21.8486  -41.1003 O.2       7 UNK        -0.5000 
     37 CA         -0.7157  -20.6204  -41.0255 C.3       7 UNK         0.1400 
     38 CB         -1.2391  -20.6736  -39.5826 C.3       7 UNK        -0.1800 
     39 N          -1.2152  -19.4058  -41.6710 N.am      7 UNK        -0.5000 
     40 C          -1.1847  -19.1785  -42.9909 C.2       6 UNK         0.5000 
     41 O          -0.7552  -19.9851  -43.8154 O.2       6 UNK        -0.5000 
     42 CA         -1.6786  -17.7987  -43.4645 C.3       6 UNK         0.1400 
     43 CB         -3.1967  -17.8242  -43.6944 C.3       6 UNK        -0.1800 
     44 N          -1.3479  -16.6965  -42.5565 N.am      6 UNK        -0.5000 
     45 C          -0.1126  -16.3679  -42.1579 C.2       5 UNK         0.5000 
     46 O           0.8974  -16.9908  -42.4903 O.2       5 UNK        -0.5000 
     47 CA         -0.0035  -15.1259  -41.2611 C.3       5 UNK         0.1400 
     48 CB          1.3504  -15.0306  -40.5367 C.3       5 UNK        -0.1800 
     49 N          -0.1806  -13.9321  -42.0770 N.am      5 UNK        -0.5000 
     50 C          -1.3420  -13.3060  -42.3046 C.2       4 UNK         0.5000 
     51 O          -2.4195  -13.7036  -41.8573 O.2       4 UNK        -0.5000 
     52 CA         -1.2890  -12.0379  -43.1875 C.3       4 UNK         0.1400 
     53 CB         -2.4193  -11.0374  -42.8697 C.3       4 UNK        -0.1800 
     54 N           0.0213  -11.3755  -43.1746 N.am      4 UNK        -0.5000 
     55 C           0.6605  -10.8335  -42.1241 C.2       3 UNK         0.5000 
     56 O           0.1572  -10.7127  -41.0066 O.2       3 UNK        -0.5000 
     57 CA          2.1212  -10.3847  -42.3396 C.3       3 UNK         0.1400 
     58 CB          3.0569  -11.0959  -41.3465 C.3       3 UNK        -0.1800 
     59 N           2.5893  -10.6781  -43.6950 N.am      3 UNK        -0.5000 
     60 C           2.7036   -9.7862  -44.6879 C.2       2 UNK         0.5000 
     61 O           2.4879   -8.5813  -44.5538 O.2       2 UNK        -0.5000 
     62 CA          3.1093  -10.3315  -46.0743 C.3       2 UNK         0.1400 
     63 CB          4.6188  -10.1549  -46.2982 C.3       2 UNK        -0.1800 
     64 N           2.7606  -11.7405  -46.2841 N.am      2 UNK        -0.5000 
     65 C           1.5117  -12.2287  -46.3153 C.2       1 UNK         0.5000 
     66 O           0.5084  -11.5278  -46.1842 O.2       1 UNK        -0.5000 
     67 C          -1.2943  -21.6667  -48.7258 C.2       11 UNK         0.5000 
     68 O          -2.1017  -22.0375  -49.5769 O.2       11 UNK        -0.5000 
     69 N          -1.5885  -20.7914  -47.7586 N.am      12 UNK        -0.5000 
     70 CA         -2.8950  -20.1644  -47.5687 C.3       12 UNK         0.1400 
     71 CB         -2.6660  -18.6860  -47.2287 C.3       12 UNK        -0.1800 
     72 C          -3.7517  -20.8627  -46.4919 C.2       12 UNK         0.5000 
     73 O          -4.8479  -20.3819  -46.2041 O.2       12 UNK        -0.5000 
     74 N          -3.2550  -21.9589  -45.9010 N.am      13 UNK        -0.5000 
     75 CA         -3.9206  -22.6844  -44.8188 C.3       13 UNK         0.1400 
     76 CB         -3.1170  -22.5208  -43.5175 C.3       13 UNK        -0.1800 
     77 C          -4.1109  -24.1608  -45.1881 C.2       13 UNK         0.5000 
     78 O          -5.2480  -24.6110  -45.3249 O.2       13 UNK        -0.5000 
     79 N          -2.9991  -24.8855  -45.3607 N.am      14 UNK        -0.5000 
     80 CA         -2.9727  -26.3144  -45.6712 C.3       14 UNK         0.1400 
     81 CB         -1.5834  -26.8789  -45.3353 C.3       14 UNK        -0.1800 
     82 C          -3.3323  -26.5902  -47.1393 C.2       14 UNK         0.5000 
     83 O          -4.0854  -27.5238  -47.4164 O.2       14 UNK        -0.5000 
     84 N          -2.8094  -25.7521  -48.0449 N.am      15 UNK        -0.5000 
     85 CA         -3.0958  -25.8034  -49.4822 C.3       15 UNK         0.1400 
     86 CB         -1.7983  -25.5430  -50.2626 C.3       15 UNK        -0.1800 
     87 C          -4.2072  -24.8157  -49.8930 C.2       15 UNK         0.5000 
     88 O          -4.4998  -24.7079  -51.0856 O.2       15 UNK        -0.5000 
     89 N          -4.7885  -24.1074  -48.9108 N.am      16 UNK        -0.5000 
     90 CA         -5.9019  -23.1468  -48.9597 C.3       16 UNK         0.1400 
     91 CB         -7.1984  -23.8407  -49.4159 C.3       16 UNK        -0.1800 
     92 C          -5.6501  -21.8673  -49.7839 C.2       16 UNK         0.5000 
     93 O          -5.9896  -20.7760  -49.3282 O.2       16 UNK        -0.5000 
     94 N          -5.0682  -22.0224  -50.9720 N.am      17 UNK        -0.5000 
     95 CA         -4.7210  -20.9782  -51.9265 C.3       17 UNK         0.1400 
     96 CB         -5.9930  -20.4531  -52.6170 C.3       17 UNK        -0.1800 
     97 C          -3.6850  -21.5567  -52.9037 C.2       17 UNK         0.5000 
     98 O          -3.9033  -21.5749  -54.1186 O.2       17 UNK        -0.5000 
     99 N          -2.5988  -22.0994  -52.3338 N.am      18 UNK        -0.5000 
    100 CA        -1.4516  -22.7244  -53.0046 C.3       18 UNK         0.1400 
    101 CB        -0.6451  -21.6553  -53.7701 C.3       18 UNK        -0.1800 
    102 C         -1.8142  -23.9372  -53.8922 C.2       18 UNK         0.5000 
    103 O         -1.0611  -24.2665  -54.8093 O.2       18 UNK        -0.5000 
    104 N         -2.9690  -24.5652  -53.6151 N.am      19 UNK        -0.5000 
    105 CA        -3.6050  -25.6565  -54.3620 C.3       19 UNK         0.1400 
    106 CB        -2.7825  -26.9552  -54.2299 C.3       19 UNK        -0.1800 
    107 C         -3.9335  -25.3059  -55.8327 C.2       19 UNK         0.5000 
    108 O         -4.0790  -26.2123  -56.6552 O.2       19 UNK        -0.5000 
    109 N         -4.0428  -24.0068  -56.1451 N.am      20 UNK        -0.5000 
    110 CA        -4.1945  -23.4891  -57.5068 C.3       20 UNK         0.1400 
    111 CB        -2.7967  -23.2304  -58.1015 C.3       20 UNK        -0.1800 
    112 C         -5.0822  -22.2329  -57.5581 C.2       20 UNK         0.5000 
    113 O         -5.0193  -21.4892  -58.5392 O.2       20 UNK        -0.5000 
    114 N         -5.8663  -21.9888  -56.4951 N.am      21 UNK        -0.5000 
    115 CA        -6.7365  -20.8201  -56.2912 C.3       21 UNK         0.1400 
    116 CB        -7.9390  -20.8725  -57.2567 C.3       21 UNK        -0.1800 
    117 C         -5.9784  -19.4729  -56.3572 C.2       21 UNK         0.5000 
    118 O         -6.5529  -18.4627  -56.7672 O.2       21 UNK        -0.5000 
    119 N         -4.6901  -19.4980  -55.9846 N.am      22 UNK        -0.5000 
    120 CA        -3.7066  -18.4145  -56.1476 C.3       22 UNK         0.1400 
    121 C         -3.4476  -17.9840  -57.6282 C.2       22 UNK         0.5000 
    122 N         -3.7864  -18.7901  -58.6286 N.am      22 UNK        -0.7600 
    123 O         -2.8918  -16.9188  -57.8829 O.2       22 UNK        -0.5000 
    124 C124       -3.9726  -17.2199  -55.1869 C.3       23 UNK        -0.0398 
    125 S125       -3.5204  -17.6285  -53.4649 S.3       23 UNK        -0.2404 
    126 C126       -1.9390  -16.7377  -53.3543 C.3       23 UNK        -0.0205 
    127 H127        3.4389  -16.0658  -43.2438 H         1 UNK         0.0600 
    128 H128        4.3267  -15.9030  -44.7603 H         1 UNK         0.0600 
    129 H129        4.6153  -14.7627  -43.4413 H         1 UNK         0.0600 
    130 H130        2.9693  -15.1357  -46.3573 H         1 UNK         0.3000 
    131 H131        0.4529  -14.0301  -45.8872 H         1 UNK         0.0600 
    132 H132        1.9024  -13.7182  -48.5596 H         1 UNK         0.0800 
    133 H133        1.3900  -15.2772  -47.9978 H         1 UNK         0.0800 
    134 H134       -2.3307  -15.4568  -48.4424 H         1 UNK         0.0800 
    135 H135       -0.9537  -16.0678  -47.5649 H         1 UNK         0.0800 
    136 H136       -2.3775  -15.5108  -50.9620 H         1 UNK         0.1150 
    137 H137        0.1017  -18.4606  -52.8349 H         1 UNK         0.1150 
    138 H138        0.7397  -17.4191  -48.7260 H         1 UNK         0.1150 
    139 H139        1.7917  -19.6160  -51.6255 H         1 UNK         0.0800 
    140 H140        2.6418  -18.3707  -50.7515 H         1 UNK         0.0800 
    141 H141        1.8331  -22.2807  -50.0682 H         1 UNK         0.0800 
    142 H142        0.4752  -21.4218  -50.7253 H         1 UNK         0.0800 
    143 H143        0.0137  -23.3080  -49.0212 H         1 UNK         0.0600 
    144 H144        1.6335  -21.7751  -47.3162 H         1 UNK         0.3000 
    145 H145        0.3634  -22.8867  -44.1959 H         1 UNK         0.0600 
    146 H146        2.7107  -23.6499  -43.8858 H         1 UNK         0.0600 
    147 H147        1.7796  -24.7821  -44.8556 H         1 UNK         0.0600 
    148 H148        2.9357  -23.7137  -45.6341 H         1 UNK         0.0600 
    149 H149        1.0046  -20.8089  -44.1641 H         1 UNK         0.3000 
    150 H150        3.8395  -18.9828  -45.2271 H         1 UNK         0.0600 
    151 H151        2.0732  -18.2695  -46.7713 H         1 UNK         0.0600 
    152 H152        1.9659  -17.2693  -45.3318 H         1 UNK         0.0600 
    153 H153        0.8170  -18.5760  -45.5803 H         1 UNK         0.0600 
    154 H154        1.8697  -18.5137  -43.2154 H         1 UNK         0.3000 
    155 H155        3.4175  -20.3361  -40.5665 H         1 UNK         0.0600 
    156 H156        3.1413  -17.3331  -41.1008 H         1 UNK         0.0600 
    157 H157        4.5750  -18.1685  -40.5293 H         1 UNK         0.0600 
    158 H158        3.1516  -18.0794  -39.5028 H         1 UNK         0.0600 
    159 H159        1.0220  -18.7098  -41.0474 H         1 UNK         0.3000 
    160 H160       -1.1148  -21.4827  -41.5630 H         1 UNK         0.0600 
    161 H161       -2.3290  -20.6738  -39.5587 H         1 UNK         0.0600 
    162 H162       -0.8893  -19.8239  -38.9951 H         1 UNK         0.0600 
    163 H163       -0.9042  -21.5814  -39.0790 H         1 UNK         0.0600 
    164 H164       -1.5864  -18.6871  -41.0673 H         1 UNK         0.3000 
    165 H165       -1.1872  -17.5881  -44.4156 H         1 UNK         0.0600 
    166 H166       -3.4868  -18.6617  -44.3294 H         1 UNK         0.0600 
    167 H167       -3.7438  -17.9252  -42.7563 H         1 UNK         0.0600 
    168 H168       -3.5364  -16.9121  -44.1854 H         1 UNK         0.0600 
    169 H169       -2.1150  -16.1069  -42.2614 H         1 UNK         0.3000 
    170 H170       -0.7847  -15.1830  -40.5003 H         1 UNK         0.0600 
    171 H171        1.5102  -15.8973  -39.8949 H         1 UNK         0.0600 
    172 H172        1.3932  -14.1449  -39.9026 H         1 UNK         0.0600 
    173 H173        2.1850  -14.9762  -41.2364 H         1 UNK         0.0600 
    174 H174        0.6529  -13.6044  -42.5584 H         1 UNK         0.3000 
    175 H175       -1.4376  -12.3835  -44.2114 H         1 UNK         0.0600 
    176 H176       -2.3561  -10.1561  -43.5079 H         1 UNK         0.0600 
    177 H177       -3.3984  -11.4876  -43.0372 H         1 UNK         0.0600 
    178 H178       -2.3879  -10.7044  -41.8320 H         1 UNK         0.0600 
    179 H179        0.5119  -11.3952  -44.0601 H         1 UNK         0.3000 
    180 H180        2.1652   -9.3118  -42.1431 H         1 UNK         0.0600 
    181 H181        3.0185  -12.1798  -41.4630 H         1 UNK         0.0600 
    182 H182        2.7847  -10.8671  -40.3154 H         1 UNK         0.0600 
    183 H183        4.0911  -10.7805  -41.4848 H         1 UNK         0.0600 
    184 H184        2.7501  -11.6588  -43.8957 H         1 UNK         0.3000 
    185 H185        2.5799   -9.7409  -46.8249 H         1 UNK         0.0600 
    186 H186        5.2021  -10.7432  -45.5887 H         1 UNK         0.0600 
    187 H187        4.9072  -10.4583  -47.3048 H         1 UNK         0.0600 
    188 H188        4.9124   -9.1111  -46.1787 H         1 UNK         0.0600 
    189 H189        3.5303  -12.3883  -46.3708 H         1 UNK         0.3000 
    190 H190       -0.8682  -20.5483  -47.0943 H         1 UNK         0.3000 
    191 H191       -3.4646  -20.1999  -48.4986 H         1 UNK         0.0600 
    192 H192       -2.2048  -18.1782  -48.0722 H         1 UNK         0.0600 
    193 H193       -2.0110  -18.5690  -46.3671 H         1 UNK         0.0600 
    194 H194       -3.6021  -18.1688  -47.0150 H         1 UNK         0.0600 
    195 H195       -2.3604  -22.3218  -46.2070 H         1 UNK         0.3000 
    196 H196       -4.9190  -22.2819  -44.6359 H         1 UNK         0.0600 
    197 H197       -3.5322  -23.1340  -42.7169 H         1 UNK         0.0600 
    198 H198       -3.1438  -21.4860  -43.1775 H         1 UNK         0.0600 
    199 H199       -2.0713  -22.8022  -43.6431 H         1 UNK         0.0600 
    200 H200       -2.0972  -24.4196  -45.3394 H         1 UNK         0.3000 
    201 H201       -3.7075  -26.8216  -45.0422 H         1 UNK         0.0600 
    202 H202       -1.3459  -26.7370  -44.2809 H         1 UNK         0.0600 
    203 H203       -0.7983  -26.4000  -45.9219 H         1 UNK         0.0600 
    204 H204       -1.5380  -27.9498  -45.5375 H         1 UNK         0.0600 
    205 H205       -2.1880  -25.0213  -47.7241 H         1 UNK         0.3000 
    206 H206       -3.4435  -26.8022  -49.7537 H         1 UNK         0.0600 
    207 H207       -0.9785  -26.1578  -49.8909 H         1 UNK         0.0600 
    208 H208       -1.9263  -25.7851  -51.3167 H         1 UNK         0.0600 
    209 H209       -1.4938  -24.5013  -50.2051 H         1 UNK         0.0600 
    210 H210       -4.4394  -24.2883  -47.9816 H         1 UNK         0.3000 
    211 H211       -6.0512  -22.8235  -47.9280 H         1 UNK         0.0600 
    212 H212       -7.1262  -24.2050  -50.4411 H         1 UNK         0.0600 
    213 H213       -8.0441  -23.1532  -49.3733 H         1 UNK         0.0600 
    214 H214       -7.4368  -24.6891  -48.7744 H         1 UNK         0.0600 
    215 H215       -4.8183  -22.9741  -51.2345 H         1 UNK         0.3000 
    216 H216       -4.2396  -20.1538  -51.3964 H         1 UNK         0.0600 
    217 H217       -5.7517  -19.7030  -53.3685 H         1 UNK         0.0600 
    218 H218       -6.6664  -19.9800  -51.9027 H         1 UNK         0.0600 
    219 H219       -6.5387  -21.2617  -53.1024 H         1 UNK         0.0600 
    220 H220       -2.5324  -22.0618  -51.3166 H         1 UNK         0.3000 
    221 H221       -0.8131  -23.1152  -52.2118 H         1 UNK         0.0600 
    222 H222       -1.2036  -21.2593  -54.6190 H         1 UNK         0.0600 
    223 H223        0.2895  -22.0652  -54.1544 H         1 UNK         0.0600 
    224 H224       -0.3872  -20.8198  -53.1203 H         1 UNK         0.0600 
    225 H225       -3.4939  -24.2518  -52.8067 H         1 UNK         0.3000 
    226 H226       -4.5666  -25.8283  -53.8765 H         1 UNK         0.0600 
    227 H227       -2.5986  -27.2012  -53.1845 H         1 UNK         0.0600 
    228 H228       -3.3111  -27.8022  -54.6687 H         1 UNK         0.0600 
    229 H229       -1.8180  -26.8766  -54.7320 H         1 UNK         0.0600 
    230 H230       -3.8931  -23.3164  -55.4170 H         1 UNK         0.3000 
    231 H231       -4.7007  -24.2307  -58.1277 H         1 UNK         0.0600 
    232 H232       -2.1910  -24.1367  -58.0955 H         1 UNK         0.0600 
    233 H233       -2.2596  -22.4673  -57.5367 H         1 UNK         0.0600 
    234 H234       -2.8601  -22.8936  -59.1369 H         1 UNK         0.0600 
    235 H235       -5.8343  -22.6465  -55.7296 H         1 UNK         0.3000 
    236 H236       -7.1330  -20.8986  -55.2802 H         1 UNK         0.0600 
    237 H237       -8.6651  -20.0936  -57.0216 H         1 UNK         0.0600 
    238 H238       -7.6324  -20.7311  -58.2935 H         1 UNK         0.0600 
    239 H239       -8.4583  -21.8282  -57.1879 H         1 UNK         0.0600 
    240 H240       -4.3296  -20.3582  -55.5828 H         1 UNK         0.3000 
    241 H241       -2.7535  -18.8561  -55.8541 H         1 UNK         0.0600 
    242 H242       -3.5993  -18.5017  -59.5755 H         1 UNK         0.3800 
    243 H243       -4.2400  -19.6831  -58.4615 H         1 UNK         0.3800 
    244 H244       -3.4128  -16.3321  -55.4833 H         1 UNK         0.0800 
    245 H245       -5.0206  -16.9210  -55.2154 H         1 UNK         0.0800 
    246 H246       -2.1180  -15.6688  -53.4809 H         1 UNK         0.0800 
    247 H247       -1.2979  -17.0406  -54.1839 H         1 UNK         0.0800 
@<TRIPOS>BOND
     1    1    2 1    
     2    1  127 1    
     3    1  128 1    
     4    1  129 1    
     5    2    3 2    
     6    2    4 am   BACKBONE|DICT|INTERRES
     7    4    5 1    
     8    4  130 1    
     9    5    6 1    
    10    5   65 1    
    11    5  131 1    
    12    6    7 1    
    13    6  132 1    
    14    6  133 1    
    15    7    8 1    
    16    8    9 1    
    17    8  134 1    
    18    8  135 1    
    19    9   10 ar   
    20    9   14 ar   
    21   10   11 ar   
    22   10  136 1    
    23   11   12 ar   
    24   11  126 1    
    25   12   13 ar   
    26   12  137 1    
    27   13   14 ar   
    28   13   15 1    
    29   14  138 1    
    30   15   16 1    
    31   15  139 1    
    32   15  140 1    
    33   16   17 1    
    34   17   18 1    
    35   17  141 1    
    36   17  142 1    
    37   18   19 1    
    38   18   67 1    
    39   18  143 1    
    40   19   20 am   BACKBONE|DICT|INTERRES
    41   19  144 1    
    42   20   21 2    
    43   20   22 1    
    44   22   23 1    
    45   22   24 1    
    46   22  145 1    
    47   23  146 1    
    48   23  147 1    
    49   23  148 1    
    50   24   25 am   BACKBONE|DICT|INTERRES
    51   24  149 1    
    52   25   26 2    
    53   25   27 1    
    54   27   28 1    
    55   27   29 1    
    56   27  150 1    
    57   28  151 1    
    58   28  152 1    
    59   28  153 1    
    60   29   30 am   BACKBONE|DICT|INTERRES
    61   29  154 1    
    62   30   31 2    
    63   30   32 1    
    64   32   33 1    
    65   32   34 1    
    66   32  155 1    
    67   33  156 1    
    68   33  157 1    
    69   33  158 1    
    70   34   35 am   BACKBONE|DICT|INTERRES
    71   34  159 1    
    72   35   36 2    
    73   35   37 1    
    74   37   38 1    
    75   37   39 1    
    76   37  160 1    
    77   38  161 1    
    78   38  162 1    
    79   38  163 1    
    80   39   40 am   BACKBONE|DICT|INTERRES
    81   39  164 1    
    82   40   41 2    
    83   40   42 1    
    84   42   43 1    
    85   42   44 1    
    86   42  165 1    
    87   43  166 1    
    88   43  167 1    
    89   43  168 1    
    90   44   45 am   BACKBONE|DICT|INTERRES
    91   44  169 1    
    92   45   46 2    
    93   45   47 1    
    94   47   48 1    
    95   47   49 1    
    96   47  170 1    
    97   48  171 1    
    98   48  172 1    
    99   48  173 1    
   100   49   50 am   BACKBONE|DICT|INTERRES
   101   49  174 1    
   102   50   51 2    
   103   50   52 1    
   104   52   53 1    
   105   52   54 1    
   106   52  175 1    
   107   53  176 1    
   108   53  177 1    
   109   53  178 1    
   110   54   55 am   BACKBONE|DICT|INTERRES
   111   54  179 1    
   112   55   56 2    
   113   55   57 1    
   114   57   58 1    
   115   57   59 1    
   116   57  180 1    
   117   58  181 1    
   118   58  182 1    
   119   58  183 1    
   120   59   60 am   BACKBONE|DICT|INTERRES
   121   59  184 1    
   122   60   61 2    
   123   60   62 1    
   124   62   63 1    
   125   62   64 1    
   126   62  185 1    
   127   63  186 1    
   128   63  187 1    
   129   63  188 1    
   130   64   65 am   BACKBONE|DICT|INTERRES
   131   64  189 1    
   132   65   66 2    
   133   67   68 2    
   134   67   69 am   BACKBONE|DICT|INTERRES
   135   69   70 1    
   136   69  190 1    
   137   70   71 1    
   138   70   72 1    
   139   70  191 1    
   140   71  192 1    
   141   71  193 1    
   142   71  194 1    
   143   72   73 2    
   144   72   74 am   BACKBONE|DICT|INTERRES
   145   74   75 1    
   146   74  195 1    
   147   75   76 1    
   148   75   77 1    
   149   75  196 1    
   150   76  197 1    
   151   76  198 1    
   152   76  199 1    
   153   77   78 2    
   154   77   79 am   BACKBONE|DICT|INTERRES
   155   79   80 1    
   156   79  200 1    
   157   80   81 1    
   158   80   82 1    
   159   80  201 1    
   160   81  202 1    
   161   81  203 1    
   162   81  204 1    
   163   82   83 2    
   164   82   84 am   BACKBONE|DICT|INTERRES
   165   84   85 1    
   166   84  205 1    
   167   85   86 1    
   168   85   87 1    
   169   85  206 1    
   170   86  207 1    
   171   86  208 1    
   172   86  209 1    
   173   87   88 2    
   174   87   89 am   BACKBONE|DICT|INTERRES
   175   89   90 1    
   176   89  210 1    
   177   90   91 1    
   178   90   92 1    
   179   90  211 1    
   180   91  212 1    
   181   91  213 1    
   182   91  214 1    
   183   92   93 2    
   184   92   94 am   BACKBONE|DICT|INTERRES
   185   94   95 1    
   186   94  215 1    
   187   95   96 1    
   188   95   97 1    
   189   95  216 1    
   190   96  217 1    
   191   96  218 1    
   192   96  219 1    
   193   97   98 2    
   194   97   99 am   BACKBONE|DICT|INTERRES
   195   99  100 1    
   196   99  220 1    
   197  100  101 1    
   198  100  102 1    
   199  100  221 1    
   200  101  222 1    
   201  101  223 1    
   202  101  224 1    
   203  102  103 2    
   204  102  104 am   BACKBONE|DICT|INTERRES
   205  104  105 1    
   206  104  225 1    
   207  105  106 1    
   208  105  107 1    
   209  105  226 1    
   210  106  227 1    
   211  106  228 1    
   212  106  229 1    
   213  107  108 2    
   214  107  109 am   BACKBONE|DICT|INTERRES
   215  109  110 1    
   216  109  230 1    
   217  110  111 1    
   218  110  112 1    
   219  110  231 1    
   220  111  232 1    
   221  111  233 1    
   222  111  234 1    
   223  112  113 2    
   224  112  114 am   BACKBONE|DICT|INTERRES
   225  114  115 1    
   226  114  235 1    
   227  115  116 1    
   228  115  117 1    
   229  115  236 1    
   230  116  237 1    
   231  116  238 1    
   232  116  239 1    
   233  117  118 2    
   234  117  119 am   BACKBONE|DICT|INTERRES
   235  119  120 1    
   236  119  240 1    
   237  120  121 1    
   238  120  124 1    
   239  120  241 1    
   240  121  122 am   BACKBONE|DICT|INTERRES
   241  121  123 2    
   242  122  242 1    
   243  122  243 1    
   244  124  125 1    
   245  124  244 1    
   246  124  245 1    
   247  125  126 1    
   248  126  246 1    
   249  126  247 1    
@<TRIPOS>SUBSTRUCTURE
     1 UNK         1 GROUP             0       ****    0 ROOT    
