@<TRIPOS>MOLECULE
3R540
247   249    1
SMALL
USER_CHARGES


@<TRIPOS>ATOM
      1 CA         -1.2662  -12.7595  -50.4338 C.3       0 UNK        -0.1800 
      2 C          -1.1370  -14.2707  -50.6162 C.2       0 UNK         0.5000 
      3 O          -1.8429  -14.8388  -51.4456 O.2       0 UNK        -0.5000 
      4 N          -0.2519  -14.9611  -49.8848 N.am      1 UNK        -0.5000 
      5 CA          0.5773  -14.4525  -48.7867 C.3       1 UNK         0.1400 
      6 C6          1.7807  -15.3837  -48.4911 C.3       23 UNK        -0.0398 
      7 S7          2.9495  -15.4447  -49.8949 S.3       23 UNK        -0.2404 
      8 C8          3.4744  -17.1984  -49.9188 C.3       23 UNK        -0.0205 
      9 C9          2.4340  -18.2166  -50.3932 C.ar      23 UNK        -0.0193 
     10 C10         1.2649  -17.8464  -51.0701 C.ar      23 UNK        -0.1150 
     11 C11         0.3215  -18.8054  -51.4436 C.ar      23 UNK        -0.0193 
     12 C12         0.5716  -20.1518  -51.1783 C.ar      23 UNK        -0.1150 
     13 C13         1.7480  -20.5525  -50.5422 C.ar      23 UNK        -0.0193 
     14 C14         2.6743  -19.5752  -50.1545 C.ar      23 UNK        -0.1150 
     15 C15         1.9789  -22.0493  -50.3306 C.3       23 UNK        -0.0205 
     16 S16         3.0659  -22.5171  -48.9389 S.3       23 UNK        -0.2404 
     17 C17         2.2549  -21.7820  -47.4797 C.3       23 UNK        -0.0398 
     18 CA          0.9233  -22.4698  -47.0638 C.3       11 UNK         0.1400 
     19 N           0.7318  -22.4756  -45.6125 N.am      11 UNK        -0.5000 
     20 C           1.0733  -23.4957  -44.8111 C.2       10 UNK         0.5000 
     21 O           1.5036  -24.5692  -45.2353 O.2       10 UNK        -0.5000 
     22 CA          0.9305  -23.3061  -43.2859 C.3       10 UNK         0.1400 
     23 CB          2.2032  -23.7575  -42.5480 C.3       10 UNK        -0.1800 
     24 N           0.6700  -21.9150  -42.9240 N.am      10 UNK        -0.5000 
     25 C          -0.4547  -21.4455  -42.3687 C.2       9 UNK         0.5000 
     26 O          -1.4200  -22.1529  -42.0811 O.2       9 UNK        -0.5000 
     27 CA         -0.5263  -19.9252  -42.0982 C.3       9 UNK         0.1400 
     28 CB         -0.2788  -19.6401  -40.6095 C.3       9 UNK        -0.1800 
     29 N           0.4111  -19.1323  -42.8977 N.am      9 UNK        -0.5000 
     30 C           0.4328  -19.0771  -44.2354 C.2       8 UNK         0.5000 
     31 O          -0.3859  -19.6504  -44.9547 O.2       8 UNK        -0.5000 
     32 CA          1.6137  -18.3326  -44.8804 C.3       8 UNK         0.1400 
     33 CB          1.2879  -16.8478  -45.0441 C.3       8 UNK        -0.1800 
     34 N           2.8577  -18.4718  -44.1214 N.am      8 UNK        -0.5000 
     35 C           3.5330  -19.6188  -43.9638 C.2       7 UNK         0.5000 
     36 O           3.1639  -20.6958  -44.4270 O.2       7 UNK        -0.5000 
     37 CA          4.8080  -19.5541  -43.1062 C.3       7 UNK         0.1400 
     38 CB          5.9549  -18.8835  -43.8777 C.3       7 UNK        -0.1800 
     39 N           4.5777  -18.8407  -41.8509 N.am      7 UNK        -0.5000 
     40 C           3.8272  -19.3121  -40.8454 C.2       6 UNK         0.5000 
     41 O           3.3213  -20.4343  -40.8380 O.2       6 UNK        -0.5000 
     42 CA          3.5785  -18.3614  -39.6584 C.3       6 UNK         0.1400 
     43 CB          4.6362  -18.5783  -38.5657 C.3       6 UNK        -0.1800 
     44 N           3.5471  -16.9405  -40.0231 N.am      6 UNK        -0.5000 
     45 C           2.6539  -16.3843  -40.8518 C.2       5 UNK         0.5000 
     46 O           1.8066  -17.0270  -41.4752 O.2       5 UNK        -0.5000 
     47 CA          2.7499  -14.8624  -41.0500 C.3       5 UNK         0.1400 
     48 CB          3.4568  -14.5352  -42.3742 C.3       5 UNK        -0.1800 
     49 N           1.4161  -14.2667  -41.0542 N.am      5 UNK        -0.5000 
     50 C           0.6782  -14.0625  -39.9520 C.2       4 UNK         0.5000 
     51 O           1.1017  -14.2385  -38.8085 O.2       4 UNK        -0.5000 
     52 CA         -0.7785  -13.5911  -40.1488 C.3       4 UNK         0.1400 
     53 CB         -0.8662  -12.0599  -40.0600 C.3       4 UNK        -0.1800 
     54 N          -1.3463  -14.0251  -41.4244 N.am      4 UNK        -0.5000 
     55 C          -1.6057  -15.2972  -41.7535 C.2       3 UNK         0.5000 
     56 O          -1.5771  -16.2222  -40.9425 O.2       3 UNK        -0.5000 
     57 CA         -1.9423  -15.6000  -43.2301 C.3       3 UNK         0.1400 
     58 CB         -3.3689  -16.1570  -43.3600 C.3       3 UNK        -0.1800 
     59 N          -1.7927  -14.4802  -44.1703 N.am      3 UNK        -0.5000 
     60 C          -0.6676  -13.8088  -44.4522 C.2       2 UNK         0.5000 
     61 O           0.3988  -13.9662  -43.8568 O.2       2 UNK        -0.5000 
     62 CA         -0.7562  -12.7695  -45.5833 C.3       2 UNK         0.1400 
     63 CB         -0.2451  -11.3981  -45.1127 C.3       2 UNK        -0.1800 
     64 N          -0.0009  -13.1833  -46.7668 N.am      2 UNK        -0.5000 
     65 C          -0.2945  -14.2437  -47.5309 C.2       1 UNK         0.5000 
     66 O          -1.2227  -15.0202  -47.2964 O.2       1 UNK        -0.5000 
     67 C          -0.3250  -21.8640  -47.7228 C.2       11 UNK         0.5000 
     68 O          -1.1829  -22.6123  -48.1882 O.2       11 UNK        -0.5000 
     69 N          -0.4299  -20.5287  -47.7283 N.am      12 UNK        -0.5000 
     70 CA         -1.5230  -19.7668  -48.3329 C.3       12 UNK         0.1400 
     71 CB         -1.2067  -18.2674  -48.2374 C.3       12 UNK        -0.1800 
     72 C          -2.8870  -20.0664  -47.6980 C.2       12 UNK         0.5000 
     73 O          -3.8647  -20.2492  -48.4232 O.2       12 UNK        -0.5000 
     74 N          -2.9136  -20.1507  -46.3615 N.am      13 UNK        -0.5000 
     75 CA         -4.1080  -20.4855  -45.5875 C.3       13 UNK         0.1400 
     76 CB         -3.8710  -20.1323  -44.1144 C.3       13 UNK        -0.1800 
     77 C          -4.5052  -21.9658  -45.7301 C.2       13 UNK         0.5000 
     78 O          -5.6966  -22.2734  -45.7329 O.2       13 UNK        -0.5000 
     79 N          -3.5061  -22.8488  -45.8730 N.am      14 UNK        -0.5000 
     80 CA         -3.6898  -24.2865  -46.0806 C.3       14 UNK         0.1400 
     81 CB         -2.3615  -25.0149  -45.8223 C.3       14 UNK        -0.1800 
     82 C          -4.2339  -24.5996  -47.4865 C.2       14 UNK         0.5000 
     83 O          -5.1233  -25.4393  -47.6264 O.2       14 UNK        -0.5000 
     84 N          -3.7160  -23.8854  -48.4943 N.am      15 UNK        -0.5000 
     85 CA         -4.1722  -23.9280  -49.8839 C.3       15 UNK         0.1400 
     86 CB         -3.0726  -23.3204  -50.7700 C.3       15 UNK        -0.1800 
     87 C          -5.5005  -23.1806  -50.1176 C.2       15 UNK         0.5000 
     88 O          -6.0988  -23.3366  -51.1841 O.2       15 UNK        -0.5000 
     89 N          -5.8985  -22.3404  -49.1488 N.am      16 UNK        -0.5000 
     90 CA         -7.0205  -21.3951  -49.1831 C.3       16 UNK         0.1400 
     91 CB         -8.3631  -22.1522  -49.1407 C.3       16 UNK        -0.1800 
     92 C          -6.9170  -20.4164  -50.3728 C.2       16 UNK         0.5000 
     93 O          -7.9279  -20.0902  -50.9981 O.2       16 UNK        -0.5000 
     94 N          -5.6742  -20.0300  -50.7024 N.am      17 UNK        -0.5000 
     95 CA         -5.1971  -19.3132  -51.8924 C.3       17 UNK         0.1400 
     96 CB         -5.7764  -17.8878  -51.9572 C.3       17 UNK        -0.1800 
     97 C          -5.4131  -20.0601  -53.2273 C.2       17 UNK         0.5000 
     98 O          -4.4976  -20.1076  -54.0508 O.2       17 UNK        -0.5000 
     99 N          -6.6136  -20.6168  -53.4196 N.am      18 UNK        -0.5000 
    100 CA        -7.1119  -21.2412  -54.6414 C.3       18 UNK         0.1400 
    101 CB        -8.5773  -21.6510  -54.4317 C.3       18 UNK        -0.1800 
    102 C         -6.2826  -22.4374  -55.1333 C.2       18 UNK         0.5000 
    103 O         -5.9842  -22.5026  -56.3260 O.2       18 UNK        -0.5000 
    104 N         -5.8986  -23.3482  -54.2256 N.am      19 UNK        -0.5000 
    105 CA        -5.1513  -24.5639  -54.5768 C.3       19 UNK         0.1400 
    106 CB        -5.2088  -25.5665  -53.4153 C.3       19 UNK        -0.1800 
    107 C         -3.6919  -24.2881  -54.9903 C.2       19 UNK         0.5000 
    108 O         -3.0944  -25.1068  -55.6894 O.2       19 UNK        -0.5000 
    109 N         -3.1577  -23.1345  -54.5712 N.am      20 UNK        -0.5000 
    110 CA        -1.8377  -22.6305  -54.9479 C.3       20 UNK         0.1400 
    111 CB        -1.2413  -21.9023  -53.7359 C.3       20 UNK        -0.1800 
    112 C         -1.8944  -21.6963  -56.1737 C.2       20 UNK         0.5000 
    113 O         -0.8416  -21.2689  -56.6486 O.2       20 UNK        -0.5000 
    114 N         -3.1102  -21.3911  -56.6550 N.am      21 UNK        -0.5000 
    115 CA        -3.4374  -20.4611  -57.7390 C.3       21 UNK         0.1400 
    116 CB        -2.8871  -20.9669  -59.0892 C.3       21 UNK        -0.1800 
    117 C         -3.0427  -19.0008  -57.4275 C.2       21 UNK         0.5000 
    118 O         -2.7078  -18.2459  -58.3427 O.2       21 UNK        -0.5000 
    119 N         -3.1059  -18.6206  -56.1441 N.am      22 UNK        -0.5000 
    120 CA        -2.8375  -17.2535  -55.6671 C.3       22 UNK         0.1400 
    121 C         -4.0230  -16.2664  -55.8828 C.2       22 UNK         0.5000 
    122 N         -5.2219  -16.7244  -56.2244 N.am      22 UNK        -0.7600 
    123 O         -3.8492  -15.0586  -55.7471 O.2       22 UNK        -0.5000 
    124 C124       -2.3832  -17.2326  -54.1867 C.3       23 UNK        -0.0398 
    125 S125       -0.8333  -18.1422  -53.8792 S.3       23 UNK        -0.2404 
    126 C126       -0.9886  -18.3796  -52.0845 C.3       23 UNK        -0.0205 
    127 H127       -1.6569  -12.5167  -49.4461 H         1 UNK         0.0600 
    128 H128       -1.9537  -12.3458  -51.1720 H         1 UNK         0.0600 
    129 H129       -0.3048  -12.2642  -50.5677 H         1 UNK         0.0600 
    130 H130       -0.2131  -15.9599  -50.0103 H         1 UNK         0.3000 
    131 H131        0.9817  -13.4821  -49.0797 H         1 UNK         0.0600 
    132 H132        1.4422  -16.3909  -48.2448 H         1 UNK         0.0800 
    133 H133        2.3375  -15.0258  -47.6235 H         1 UNK         0.0800 
    134 H134        4.3445  -17.2795  -50.5714 H         1 UNK         0.0800 
    135 H135        3.8162  -17.4674  -48.9180 H         1 UNK         0.0800 
    136 H136        1.0728  -16.8118  -51.3075 H         1 UNK         0.1150 
    137 H137       -0.1590  -20.8941  -51.4611 H         1 UNK         0.1150 
    138 H138        3.5924  -19.8679  -49.6657 H         1 UNK         0.1150 
    139 H139        1.0242  -22.5629  -50.2085 H         1 UNK         0.0800 
    140 H140        2.4163  -22.4500  -51.2457 H         1 UNK         0.0800 
    141 H141        2.1671  -20.7027  -47.5997 H         1 UNK         0.0800 
    142 H142        2.9829  -21.9103  -46.6789 H         1 UNK         0.0800 
    143 H143        0.9589  -23.5044  -47.4122 H         1 UNK         0.0600 
    144 H144        0.3547  -21.6298  -45.2022 H         1 UNK         0.3000 
    145 H145        0.1065  -23.9468  -42.9664 H         1 UNK         0.0600 
    146 H146        2.4174  -24.8108  -42.7325 H         1 UNK         0.0600 
    147 H147        3.0741  -23.1818  -42.8648 H         1 UNK         0.0600 
    148 H148        2.0973  -23.6338  -41.4700 H         1 UNK         0.0600 
    149 H149        1.4183  -21.2649  -43.1322 H         1 UNK         0.3000 
    150 H150       -1.5334  -19.5867  -42.3446 H         1 UNK         0.0600 
    151 H151       -0.3458  -18.5742  -40.3924 H         1 UNK         0.0600 
    152 H152        0.7057  -19.9841  -40.2937 H         1 UNK         0.0600 
    153 H153       -1.0181  -20.1455  -39.9870 H         1 UNK         0.0600 
    154 H154        1.0804  -18.5672  -42.3812 H         1 UNK         0.3000 
    155 H155        1.7746  -18.7579  -45.8727 H         1 UNK         0.0600 
    156 H156        0.3777  -16.7032  -45.6268 H         1 UNK         0.0600 
    157 H157        2.0930  -16.3153  -45.5490 H         1 UNK         0.0600 
    158 H158        1.1368  -16.3807  -44.0723 H         1 UNK         0.0600 
    159 H159        3.1946  -17.6445  -43.6529 H         1 UNK         0.3000 
    160 H160        5.1080  -20.5781  -42.8729 H         1 UNK         0.0600 
    161 H161        6.1474  -19.4025  -44.8177 H         1 UNK         0.0600 
    162 H162        6.8803  -18.9034  -43.3018 H         1 UNK         0.0600 
    163 H163        5.7315  -17.8431  -44.1169 H         1 UNK         0.0600 
    164 H164        4.9662  -17.9132  -41.7675 H         1 UNK         0.3000 
    165 H165        2.6019  -18.6142  -39.2405 H         1 UNK         0.0600 
    166 H166        4.4160  -17.9834  -37.6791 H         1 UNK         0.0600 
    167 H167        4.6673  -19.6233  -38.2539 H         1 UNK         0.0600 
    168 H168        5.6347  -18.3094  -38.9126 H         1 UNK         0.0600 
    169 H169        4.2200  -16.3464  -39.5603 H         1 UNK         0.3000 
    170 H170        3.3292  -14.4269  -40.2331 H         1 UNK         0.0600 
    171 H171        3.5359  -13.4580  -42.5214 H         1 UNK         0.0600 
    172 H172        4.4689  -14.9411  -42.3891 H         1 UNK         0.0600 
    173 H173        2.9240  -14.9482  -43.2309 H         1 UNK         0.0600 
    174 H174        0.9868  -14.1423  -41.9663 H         1 UNK         0.3000 
    175 H175       -1.3789  -14.0186  -39.3431 H         1 UNK         0.0600 
    176 H176       -0.2956  -11.5775  -40.8547 H         1 UNK         0.0600 
    177 H177       -1.8990  -11.7186  -40.1323 H         1 UNK         0.0600 
    178 H178       -0.4721  -11.7010  -39.1082 H         1 UNK         0.0600 
    179 H179       -1.3941  -13.3329  -42.1565 H         1 UNK         0.3000 
    180 H180       -1.2507  -16.3826  -43.5455 H         1 UNK         0.0600 
    181 H181       -3.5669  -16.5009  -44.3756 H         1 UNK         0.0600 
    182 H182       -4.1169  -15.4053  -43.1057 H         1 UNK         0.0600 
    183 H183       -3.5221  -17.0087  -42.6959 H         1 UNK         0.0600 
    184 H184       -2.6114  -14.2740  -44.7242 H         1 UNK         0.3000 
    185 H185       -1.8023  -12.6537  -45.8750 H         1 UNK         0.0600 
    186 H186        0.8134  -11.4290  -44.8503 H         1 UNK         0.0600 
    187 H187       -0.3766  -10.6413  -45.8863 H         1 UNK         0.0600 
    188 H188       -0.7911  -11.0588  -44.2315 H         1 UNK         0.0600 
    189 H189        0.7930  -12.6068  -47.0052 H         1 UNK         0.3000 
    190 H190        0.2723  -19.9828  -47.2552 H         1 UNK         0.3000 
    191 H191       -1.5839  -20.0448  -49.3858 H         1 UNK         0.0600 
    192 H192       -1.1803  -17.9241  -47.2025 H         1 UNK         0.0600 
    193 H193       -1.9581  -17.6736  -48.7596 H         1 UNK         0.0600 
    194 H194       -0.2419  -18.0391  -48.6853 H         1 UNK         0.0600 
    195 H195       -2.0545  -19.9791  -45.8454 H         1 UNK         0.3000 
    196 H196       -4.9362  -19.8762  -45.9560 H         1 UNK         0.0600 
    197 H197       -4.7821  -20.2639  -43.5296 H         1 UNK         0.0600 
    198 H198       -3.5540  -19.0964  -44.0011 H         1 UNK         0.0600 
    199 H199       -3.1055  -20.7697  -43.6752 H         1 UNK         0.0600 
    200 H200       -2.5595  -22.5020  -45.8992 H         1 UNK         0.3000 
    201 H201       -4.4195  -24.6464  -45.3520 H         1 UNK         0.0600 
    202 H202       -2.0020  -24.8316  -44.8096 H         1 UNK         0.0600 
    203 H203       -1.5816  -24.7004  -46.5161 H         1 UNK         0.0600 
    204 H204       -2.4817  -26.0931  -45.9339 H         1 UNK         0.0600 
    205 H205       -2.9259  -23.2736  -48.3023 H         1 UNK         0.3000 
    206 H206       -4.3205  -24.9704  -50.1716 H         1 UNK         0.0600 
    207 H207       -3.3618  -23.3305  -51.8195 H         1 UNK         0.0600 
    208 H208       -2.8652  -22.2840  -50.4997 H         1 UNK         0.0600 
    209 H209       -2.1413  -23.8803  -50.6838 H         1 UNK         0.0600 
    210 H210       -5.2992  -22.2638  -48.3390 H         1 UNK         0.3000 
    211 H211       -6.9451  -20.7912  -48.2777 H         1 UNK         0.0600 
    212 H212       -8.5254  -22.7391  -50.0453 H         1 UNK         0.0600 
    213 H213       -9.2002  -21.4599  -49.0444 H         1 UNK         0.0600 
    214 H214       -8.4041  -22.8308  -48.2886 H         1 UNK         0.0600 
    215 H215       -4.9416  -20.3201  -50.0601 H         1 UNK         0.3000 
    216 H216       -4.1189  -19.2221  -51.7623 H         1 UNK         0.0600 
    217 H217       -5.3870  -17.3414  -52.8166 H         1 UNK         0.0600 
    218 H218       -5.5163  -17.3184  -51.0649 H         1 UNK         0.0600 
    219 H219       -6.8628  -17.8910  -52.0472 H         1 UNK         0.0600 
    220 H220       -7.2813  -20.5207  -52.6582 H         1 UNK         0.3000 
    221 H221       -7.0824  -20.4811  -55.4246 H         1 UNK         0.0600 
    222 H222       -8.6804  -22.3692  -53.6170 H         1 UNK         0.0600 
    223 H223       -9.1978  -20.7865  -54.1949 H         1 UNK         0.0600 
    224 H224       -8.9896  -22.1102  -55.3312 H         1 UNK         0.0600 
    225 H225       -6.1487  -23.2261  -53.2485 H         1 UNK         0.3000 
    226 H226       -5.6478  -25.0244  -55.4337 H         1 UNK         0.0600 
    227 H227       -6.2362  -25.7572  -53.1049 H         1 UNK         0.0600 
    228 H228       -4.7735  -26.5231  -53.7068 H         1 UNK         0.0600 
    229 H229       -4.6555  -25.2109  -52.5485 H         1 UNK         0.0600 
    230 H230       -3.7373  -22.5084  -54.0296 H         1 UNK         0.3000 
    231 H231       -1.1777  -23.4621  -55.2028 H         1 UNK         0.0600 
    232 H232       -1.1030  -22.5867  -52.8993 H         1 UNK         0.0600 
    233 H233       -0.2647  -21.4765  -53.9704 H         1 UNK         0.0600 
    234 H234       -1.8846  -21.0871  -53.4042 H         1 UNK         0.0600 
    235 H235       -3.9127  -21.8127  -56.2046 H         1 UNK         0.3000 
    236 H236       -4.5257  -20.4637  -57.8120 H         1 UNK         0.0600 
    237 H237       -1.7984  -20.9236  -59.1268 H         1 UNK         0.0600 
    238 H238       -3.1894  -21.9973  -59.2763 H         1 UNK         0.0600 
    239 H239       -3.2656  -20.3644  -59.9156 H         1 UNK         0.0600 
    240 H240       -3.4199  -19.2864  -55.4440 H         1 UNK         0.3000 
    241 H241       -2.0115  -16.8524  -56.2577 H         1 UNK         0.0600 
    242 H242       -5.9783  -16.0742  -56.3689 H         1 UNK         0.3800 
    243 H243       -5.3781  -17.7116  -56.3440 H         1 UNK         0.3800 
    244 H244       -2.2253  -16.2070  -53.8475 H         1 UNK         0.0800 
    245 H245       -3.1661  -17.6461  -53.5522 H         1 UNK         0.0800 
    246 H246       -1.7614  -19.1228  -51.8884 H         1 UNK         0.0800 
    247 H247       -1.3320  -17.4544  -51.6214 H         1 UNK         0.0800 
@<TRIPOS>BOND
     1    1    2 1    
     2    1  127 1    
     3    1  128 1    
     4    1  129 1    
     5    2    3 2    
     6    2    4 am   BACKBONE|DICT|INTERRES
     7    4    5 1    
     8    4  130 1    
     9    5    6 1    
    10    5   65 1    
    11    5  131 1    
    12    6    7 1    
    13    6  132 1    
    14    6  133 1    
    15    7    8 1    
    16    8    9 1    
    17    8  134 1    
    18    8  135 1    
    19    9   10 ar   
    20    9   14 ar   
    21   10   11 ar   
    22   10  136 1    
    23   11   12 ar   
    24   11  126 1    
    25   12   13 ar   
    26   12  137 1    
    27   13   14 ar   
    28   13   15 1    
    29   14  138 1    
    30   15   16 1    
    31   15  139 1    
    32   15  140 1    
    33   16   17 1    
    34   17   18 1    
    35   17  141 1    
    36   17  142 1    
    37   18   19 1    
    38   18   67 1    
    39   18  143 1    
    40   19   20 am   BACKBONE|DICT|INTERRES
    41   19  144 1    
    42   20   21 2    
    43   20   22 1    
    44   22   23 1    
    45   22   24 1    
    46   22  145 1    
    47   23  146 1    
    48   23  147 1    
    49   23  148 1    
    50   24   25 am   BACKBONE|DICT|INTERRES
    51   24  149 1    
    52   25   26 2    
    53   25   27 1    
    54   27   28 1    
    55   27   29 1    
    56   27  150 1    
    57   28  151 1    
    58   28  152 1    
    59   28  153 1    
    60   29   30 am   BACKBONE|DICT|INTERRES
    61   29  154 1    
    62   30   31 2    
    63   30   32 1    
    64   32   33 1    
    65   32   34 1    
    66   32  155 1    
    67   33  156 1    
    68   33  157 1    
    69   33  158 1    
    70   34   35 am   BACKBONE|DICT|INTERRES
    71   34  159 1    
    72   35   36 2    
    73   35   37 1    
    74   37   38 1    
    75   37   39 1    
    76   37  160 1    
    77   38  161 1    
    78   38  162 1    
    79   38  163 1    
    80   39   40 am   BACKBONE|DICT|INTERRES
    81   39  164 1    
    82   40   41 2    
    83   40   42 1    
    84   42   43 1    
    85   42   44 1    
    86   42  165 1    
    87   43  166 1    
    88   43  167 1    
    89   43  168 1    
    90   44   45 am   BACKBONE|DICT|INTERRES
    91   44  169 1    
    92   45   46 2    
    93   45   47 1    
    94   47   48 1    
    95   47   49 1    
    96   47  170 1    
    97   48  171 1    
    98   48  172 1    
    99   48  173 1    
   100   49   50 am   BACKBONE|DICT|INTERRES
   101   49  174 1    
   102   50   51 2    
   103   50   52 1    
   104   52   53 1    
   105   52   54 1    
   106   52  175 1    
   107   53  176 1    
   108   53  177 1    
   109   53  178 1    
   110   54   55 am   BACKBONE|DICT|INTERRES
   111   54  179 1    
   112   55   56 2    
   113   55   57 1    
   114   57   58 1    
   115   57   59 1    
   116   57  180 1    
   117   58  181 1    
   118   58  182 1    
   119   58  183 1    
   120   59   60 am   BACKBONE|DICT|INTERRES
   121   59  184 1    
   122   60   61 2    
   123   60   62 1    
   124   62   63 1    
   125   62   64 1    
   126   62  185 1    
   127   63  186 1    
   128   63  187 1    
   129   63  188 1    
   130   64   65 am   BACKBONE|DICT|INTERRES
   131   64  189 1    
   132   65   66 2    
   133   67   68 2    
   134   67   69 am   BACKBONE|DICT|INTERRES
   135   69   70 1    
   136   69  190 1    
   137   70   71 1    
   138   70   72 1    
   139   70  191 1    
   140   71  192 1    
   141   71  193 1    
   142   71  194 1    
   143   72   73 2    
   144   72   74 am   BACKBONE|DICT|INTERRES
   145   74   75 1    
   146   74  195 1    
   147   75   76 1    
   148   75   77 1    
   149   75  196 1    
   150   76  197 1    
   151   76  198 1    
   152   76  199 1    
   153   77   78 2    
   154   77   79 am   BACKBONE|DICT|INTERRES
   155   79   80 1    
   156   79  200 1    
   157   80   81 1    
   158   80   82 1    
   159   80  201 1    
   160   81  202 1    
   161   81  203 1    
   162   81  204 1    
   163   82   83 2    
   164   82   84 am   BACKBONE|DICT|INTERRES
   165   84   85 1    
   166   84  205 1    
   167   85   86 1    
   168   85   87 1    
   169   85  206 1    
   170   86  207 1    
   171   86  208 1    
   172   86  209 1    
   173   87   88 2    
   174   87   89 am   BACKBONE|DICT|INTERRES
   175   89   90 1    
   176   89  210 1    
   177   90   91 1    
   178   90   92 1    
   179   90  211 1    
   180   91  212 1    
   181   91  213 1    
   182   91  214 1    
   183   92   93 2    
   184   92   94 am   BACKBONE|DICT|INTERRES
   185   94   95 1    
   186   94  215 1    
   187   95   96 1    
   188   95   97 1    
   189   95  216 1    
   190   96  217 1    
   191   96  218 1    
   192   96  219 1    
   193   97   98 2    
   194   97   99 am   BACKBONE|DICT|INTERRES
   195   99  100 1    
   196   99  220 1    
   197  100  101 1    
   198  100  102 1    
   199  100  221 1    
   200  101  222 1    
   201  101  223 1    
   202  101  224 1    
   203  102  103 2    
   204  102  104 am   BACKBONE|DICT|INTERRES
   205  104  105 1    
   206  104  225 1    
   207  105  106 1    
   208  105  107 1    
   209  105  226 1    
   210  106  227 1    
   211  106  228 1    
   212  106  229 1    
   213  107  108 2    
   214  107  109 am   BACKBONE|DICT|INTERRES
   215  109  110 1    
   216  109  230 1    
   217  110  111 1    
   218  110  112 1    
   219  110  231 1    
   220  111  232 1    
   221  111  233 1    
   222  111  234 1    
   223  112  113 2    
   224  112  114 am   BACKBONE|DICT|INTERRES
   225  114  115 1    
   226  114  235 1    
   227  115  116 1    
   228  115  117 1    
   229  115  236 1    
   230  116  237 1    
   231  116  238 1    
   232  116  239 1    
   233  117  118 2    
   234  117  119 am   BACKBONE|DICT|INTERRES
   235  119  120 1    
   236  119  240 1    
   237  120  121 1    
   238  120  124 1    
   239  120  241 1    
   240  121  122 am   BACKBONE|DICT|INTERRES
   241  121  123 2    
   242  122  242 1    
   243  122  243 1    
   244  124  125 1    
   245  124  244 1    
   246  124  245 1    
   247  125  126 1    
   248  126  246 1    
   249  126  247 1    
@<TRIPOS>SUBSTRUCTURE
     1 UNK         1 GROUP             0       ****    0 ROOT    
