@<TRIPOS>MOLECULE
3R540
247   249    1
SMALL
USER_CHARGES


@<TRIPOS>ATOM
      1 CA          4.4773   -8.8761  -44.9548 C.3       0 UNK        -0.1800 
      2 C           4.1630  -10.1673  -45.6944 C.2       0 UNK         0.5000 
      3 O           3.9778  -11.2043  -45.0577 O.2       0 UNK        -0.5000 
      4 N           4.1147  -10.1183  -47.0331 N.am      1 UNK        -0.5000 
      5 CA          3.8222  -11.2226  -47.9601 C.3       1 UNK         0.1400 
      6 C6          2.4250  -11.8571  -47.7196 C.3       23 UNK        -0.0398 
      7 S7          1.8584  -12.8919  -49.1105 S.3       23 UNK        -0.2404 
      8 C8          1.7735  -14.5205  -48.2971 C.3       23 UNK        -0.0205 
      9 C9          1.4073  -15.6524  -49.2501 C.ar      23 UNK        -0.0193 
     10 C10         0.3406  -15.5235  -50.1461 C.ar      23 UNK        -0.1150 
     11 C11        -0.0236  -16.5791  -50.9894 C.ar      23 UNK        -0.0193 
     12 C12         0.7015  -17.7740  -50.9339 C.ar      23 UNK        -0.1150 
     13 C13         1.7764  -17.9158  -50.0497 C.ar      23 UNK        -0.0193 
     14 C14         2.1206  -16.8535  -49.2093 C.ar      23 UNK        -0.1150 
     15 C15         2.5894  -19.2032  -50.0197 C.3       23 UNK        -0.0205 
     16 S16         2.2030  -20.2371  -48.5717 S.3       23 UNK        -0.2404 
     17 C17         0.5064  -20.7647  -48.9706 C.3       23 UNK        -0.0398 
     18 CA         -0.0168  -21.8641  -48.0175 C.3       11 UNK         0.1400 
     19 N          -0.2298  -21.3841  -46.6478 N.am      11 UNK        -0.5000 
     20 C          -0.5436  -22.1688  -45.6060 C.2       10 UNK         0.5000 
     21 O          -0.6457  -23.3933  -45.6796 O.2       10 UNK        -0.5000 
     22 CA         -0.8468  -21.4714  -44.2668 C.3       10 UNK         0.1400 
     23 CB          0.4467  -21.0382  -43.5616 C.3       10 UNK        -0.1800 
     24 N          -1.7425  -20.3242  -44.4192 N.am      10 UNK        -0.5000 
     25 C          -3.0056  -20.4048  -44.8631 C.2       9 UNK         0.5000 
     26 O          -3.5635  -21.4620  -45.1521 O.2       9 UNK        -0.5000 
     27 CA         -3.7608  -19.0804  -45.0648 C.3       9 UNK         0.1400 
     28 CB         -4.3659  -18.5803  -43.7445 C.3       9 UNK        -0.1800 
     29 N          -2.9099  -18.0429  -45.6430 N.am      9 UNK        -0.5000 
     30 C          -2.3884  -18.0925  -46.8772 C.2       8 UNK         0.5000 
     31 O          -2.5951  -19.0065  -47.6753 O.2       8 UNK        -0.5000 
     32 CA         -1.4273  -16.9514  -47.2487 C.3       8 UNK         0.1400 
     33 CB         -2.2124  -15.6758  -47.5879 C.3       8 UNK        -0.1800 
     34 N          -0.4710  -16.6675  -46.1764 N.am      8 UNK        -0.5000 
     35 C           0.4465  -17.5444  -45.7395 C.2       7 UNK         0.5000 
     36 O           0.5929  -18.6671  -46.2148 O.2       7 UNK        -0.5000 
     37 CA          1.3027  -17.1339  -44.5275 C.3       7 UNK         0.1400 
     38 CB          2.5900  -16.4374  -44.9895 C.3       7 UNK        -0.1800 
     39 N           0.5831  -16.2797  -43.5821 N.am      7 UNK        -0.5000 
     40 C          -0.5219  -16.6539  -42.9166 C.2       6 UNK         0.5000 
     41 O          -0.9978  -17.7879  -42.9855 O.2       6 UNK        -0.5000 
     42 CA         -1.2469  -15.5896  -42.0656 C.3       6 UNK         0.1400 
     43 CB         -0.9295  -15.7906  -40.5762 C.3       6 UNK        -0.1800 
     44 N          -0.9295  -14.2079  -42.4335 N.am      6 UNK        -0.5000 
     45 C          -1.1543  -13.6411  -43.6283 C.2       5 UNK         0.5000 
     46 O          -1.7314  -14.2112  -44.5540 O.2       5 UNK        -0.5000 
     47 CA         -0.5775  -12.2259  -43.8458 C.3       5 UNK         0.1400 
     48 CB         -1.6641  -11.1630  -43.6265 C.3       5 UNK        -0.1800 
     49 N           0.5822  -11.9117  -42.9993 N.am      5 UNK        -0.5000 
     50 C           1.7341  -12.5959  -42.9962 C.2       4 UNK         0.5000 
     51 O           1.9345  -13.5937  -43.6958 O.2       4 UNK        -0.5000 
     52 CA          2.8183  -12.1260  -42.0158 C.3       4 UNK         0.1400 
     53 CB          2.4506  -12.4838  -40.5642 C.3       4 UNK        -0.1800 
     54 N           4.0576  -12.7903  -42.3908 N.am      4 UNK        -0.5000 
     55 C           5.3013  -12.3674  -42.1474 C.2       3 UNK         0.5000 
     56 O           5.5798  -11.3859  -41.4582 O.2       3 UNK        -0.5000 
     57 CA          6.4134  -13.1643  -42.8416 C.3       3 UNK         0.1400 
     58 CB          6.6055  -14.5319  -42.1531 C.3       3 UNK        -0.1800 
     59 N           6.0701  -13.3128  -44.2575 N.am      3 UNK        -0.5000 
     60 C           6.8575  -13.8263  -45.2136 C.2       2 UNK         0.5000 
     61 O           7.9950  -14.2486  -45.0033 O.2       2 UNK        -0.5000 
     62 CA          6.3064  -13.8683  -46.6513 C.3       2 UNK         0.1400 
     63 CB          5.7877  -15.2728  -47.0048 C.3       2 UNK        -0.1800 
     64 N           5.2460  -12.8858  -46.8626 N.am      2 UNK        -0.5000 
     65 C           4.9585  -12.2703  -48.0111 C.2       1 UNK         0.5000 
     66 O           5.5568  -12.4755  -49.0677 O.2       1 UNK        -0.5000 
     67 C          -1.2865  -22.5162  -48.5974 C.2       11 UNK         0.5000 
     68 O          -1.1949  -23.6080  -49.1590 O.2       11 UNK        -0.5000 
     69 N          -2.4460  -21.8645  -48.4216 N.am      12 UNK        -0.5000 
     70 CA         -3.7487  -22.3796  -48.8447 C.3       12 UNK         0.1400 
     71 CB         -4.8310  -21.3172  -48.6072 C.3       12 UNK        -0.1800 
     72 C          -4.1183  -23.6995  -48.1451 C.2       12 UNK         0.5000 
     73 O          -4.5741  -24.6263  -48.8127 O.2       12 UNK        -0.5000 
     74 N          -3.8819  -23.7778  -46.8274 N.am      13 UNK        -0.5000 
     75 CA         -4.0945  -24.9746  -46.0133 C.3       13 UNK         0.1400 
     76 CB         -3.9245  -24.6323  -44.5257 C.3       13 UNK        -0.1800 
     77 C          -3.1734  -26.1393  -46.4147 C.2       13 UNK         0.5000 
     78 O          -3.6526  -27.2656  -46.5474 O.2       13 UNK        -0.5000 
     79 N          -1.8847  -25.8485  -46.6462 N.am      14 UNK        -0.5000 
     80 CA         -0.8842  -26.8134  -47.1137 C.3       14 UNK         0.1400 
     81 CB          0.5060  -26.1605  -47.0955 C.3       14 UNK        -0.1800 
     82 C          -1.2010  -27.3798  -48.5114 C.2       14 UNK         0.5000 
     83 O          -0.9753  -28.5652  -48.7566 O.2       14 UNK        -0.5000 
     84 N          -1.7572  -26.5310  -49.3839 N.am      15 UNK        -0.5000 
     85 CA         -2.2464  -26.8835  -50.7163 C.3       15 UNK         0.1400 
     86 CB         -2.2033  -25.6215  -51.5890 C.3       15 UNK        -0.1800 
     87 C          -3.6641  -27.4962  -50.7131 C.2       15 UNK         0.5000 
     88 O          -4.1809  -27.8031  -51.7880 O.2       15 UNK        -0.5000 
     89 N          -4.2880  -27.6357  -49.5320 N.am      16 UNK        -0.5000 
     90 CA         -5.6408  -28.1562  -49.2911 C.3       16 UNK         0.1400 
     91 CB         -5.6868  -29.6725  -49.5698 C.3       16 UNK        -0.1800 
     92 C          -6.7436  -27.3760  -50.0423 C.2       16 UNK         0.5000 
     93 O          -7.7438  -27.9629  -50.4585 O.2       16 UNK        -0.5000 
     94 N          -6.5156  -26.0673  -50.2258 N.am      17 UNK        -0.5000 
     95 CA         -7.3173  -25.0944  -50.9741 C.3       17 UNK         0.1400 
     96 CB         -8.6935  -24.8915  -50.3090 C.3       17 UNK        -0.1800 
     97 C          -7.4322  -25.3744  -52.4904 C.2       17 UNK         0.5000 
     98 O          -8.2162  -24.7041  -53.1641 O.2       17 UNK        -0.5000 
     99 N          -6.6434  -26.3215  -53.0217 N.am      18 UNK        -0.5000 
    100 CA        -6.5799  -26.6373  -54.4526 C.3       18 UNK         0.1400 
    101 CB        -6.0331  -28.0620  -54.6309 C.3       18 UNK        -0.1800 
    102 C         -5.7227  -25.6257  -55.2388 C.2       18 UNK         0.5000 
    103 O         -5.8532  -25.5317  -56.4600 O.2       18 UNK        -0.5000 
    104 N         -4.8728  -24.8853  -54.5225 N.am      19 UNK        -0.5000 
    105 CA        -4.0251  -23.8050  -55.0015 C.3       19 UNK         0.1400 
    106 CB        -2.7275  -24.3849  -55.5946 C.3       19 UNK        -0.1800 
    107 C         -3.7416  -22.8727  -53.8133 C.2       19 UNK         0.5000 
    108 O         -4.1145  -23.1926  -52.6812 O.2       19 UNK        -0.5000 
    109 N         -3.0939  -21.7340  -54.0945 N.am      20 UNK        -0.5000 
    110 CA        -2.5908  -20.7369  -53.1365 C.3       20 UNK         0.1400 
    111 CB        -1.4738  -21.3429  -52.2639 C.3       20 UNK        -0.1800 
    112 C         -3.6645  -20.0295  -52.2799 C.2       20 UNK         0.5000 
    113 O         -3.3131  -19.3070  -51.3473 O.2       20 UNK        -0.5000 
    114 N         -4.9478  -20.1975  -52.6245 N.am      21 UNK        -0.5000 
    115 CA        -6.1022  -19.5869  -51.9644 C.3       21 UNK         0.1400 
    116 CB        -7.3388  -20.4658  -52.2278 C.3       21 UNK        -0.1800 
    117 C         -6.2926  -18.1200  -52.4067 C.2       21 UNK         0.5000 
    118 O         -7.3370  -17.7607  -52.9532 O.2       21 UNK        -0.5000 
    119 N         -5.2536  -17.3073  -52.1892 N.am      22 UNK        -0.5000 
    120 CA        -5.1788  -15.8842  -52.5533 C.3       22 UNK         0.1400 
    121 C         -5.9774  -14.9165  -51.6276 C.2       22 UNK         0.5000 
    122 N         -6.5195  -15.3638  -50.5006 N.am      22 UNK        -0.7600 
    123 O         -6.1231  -13.7394  -51.9484 O.2       22 UNK        -0.5000 
    124 C124       -3.7079  -15.4304  -52.7474 C.3       23 UNK        -0.0398 
    125 S125       -2.6592  -15.6694  -51.2681 S.3       23 UNK        -0.2404 
    126 C126       -1.1621  -16.4190  -51.9941 C.3       23 UNK        -0.0205 
    127 H127        5.3701   -9.0044  -44.3429 H         1 UNK         0.0600 
    128 H128        4.6489   -8.0463  -45.6406 H         1 UNK         0.0600 
    129 H129        3.6488   -8.6115  -44.2981 H         1 UNK         0.0600 
    130 H130        4.3102   -9.2357  -47.4852 H         1 UNK         0.3000 
    131 H131        3.7954  -10.7540  -48.9456 H         1 UNK         0.0600 
    132 H132        2.4026  -12.4303  -46.7912 H         1 UNK         0.0800 
    133 H133        1.6854  -11.0660  -47.5910 H         1 UNK         0.0800 
    134 H134        2.7373  -14.7217  -47.8272 H         1 UNK         0.0800 
    135 H135        1.0335  -14.4833  -47.4968 H         1 UNK         0.0800 
    136 H136       -0.2135  -14.5966  -50.1841 H         1 UNK         0.1150 
    137 H137        0.4386  -18.5909  -51.5906 H         1 UNK         0.1150 
    138 H138        2.9443  -16.9691  -48.5187 H         1 UNK         0.1150 
    139 H139        2.4346  -19.7808  -50.9324 H         1 UNK         0.0800 
    140 H140        3.6513  -18.9543  -49.9970 H         1 UNK         0.0800 
    141 H141        0.5230  -21.1324  -49.9974 H         1 UNK         0.0800 
    142 H142       -0.1532  -19.8946  -48.9569 H         1 UNK         0.0800 
    143 H143        0.7411  -22.6489  -47.9662 H         1 UNK         0.0600 
    144 H144       -0.1055  -20.3851  -46.4972 H         1 UNK         0.3000 
    145 H145       -1.3517  -22.1952  -43.6236 H         1 UNK         0.0600 
    146 H146        0.2351  -20.5425  -42.6139 H         1 UNK         0.0600 
    147 H147        1.0769  -21.9016  -43.3456 H         1 UNK         0.0600 
    148 H148        1.0325  -20.3549  -44.1750 H         1 UNK         0.0600 
    149 H149       -1.3742  -19.4142  -44.1634 H         1 UNK         0.3000 
    150 H150       -4.5796  -19.2679  -45.7625 H         1 UNK         0.0600 
    151 H151       -5.0380  -19.3267  -43.3193 H         1 UNK         0.0600 
    152 H152       -4.9459  -17.6699  -43.8959 H         1 UNK         0.0600 
    153 H153       -3.5992  -18.3696  -42.9989 H         1 UNK         0.0600 
    154 H154       -2.6476  -17.2781  -45.0388 H         1 UNK         0.3000 
    155 H155       -0.8681  -17.2631  -48.1328 H         1 UNK         0.0600 
    156 H156       -1.5513  -14.8819  -47.9346 H         1 UNK         0.0600 
    157 H157       -2.7677  -15.2997  -46.7286 H         1 UNK         0.0600 
    158 H158       -2.9383  -15.8672  -48.3779 H         1 UNK         0.0600 
    159 H159       -0.5785  -15.7851  -45.6925 H         1 UNK         0.3000 
    160 H160        1.5861  -18.0446  -43.9972 H         1 UNK         0.0600 
    161 H161        2.3772  -15.5052  -45.5122 H         1 UNK         0.0600 
    162 H162        3.1518  -17.0768  -45.6718 H         1 UNK         0.0600 
    163 H163        3.2412  -16.2076  -44.1460 H         1 UNK         0.0600 
    164 H164        0.9203  -15.3266  -43.4921 H         1 UNK         0.3000 
    165 H165       -2.3191  -15.7344  -42.2124 H         1 UNK         0.0600 
    166 H166        0.1290  -15.6312  -40.3661 H         1 UNK         0.0600 
    167 H167       -1.5037  -15.1042  -39.9534 H         1 UNK         0.0600 
    168 H168       -1.1790  -16.8033  -40.2561 H         1 UNK         0.0600 
    169 H169       -0.4433  -13.6606  -41.7393 H         1 UNK         0.3000 
    170 H170       -0.2489  -12.1698  -44.8860 H         1 UNK         0.0600 
    171 H171       -2.5309  -11.3535  -44.2611 H         1 UNK         0.0600 
    172 H172       -2.0106  -11.1494  -42.5923 H         1 UNK         0.0600 
    173 H173       -1.2971  -10.1662  -43.8723 H         1 UNK         0.0600 
    174 H174        0.4871  -11.1117  -42.3902 H         1 UNK         0.3000 
    175 H175        2.9376  -11.0457  -42.1215 H         1 UNK         0.0600 
    176 H176        3.2292  -12.1671  -39.8701 H         1 UNK         0.0600 
    177 H177        1.5269  -11.9919  -40.2574 H         1 UNK         0.0600 
    178 H178        2.3101  -13.5583  -40.4394 H         1 UNK         0.0600 
    179 H179        3.9058  -13.5899  -42.9931 H         1 UNK         0.3000 
    180 H180        7.3394  -12.5912  -42.7655 H         1 UNK         0.0600 
    181 H181        5.7402  -15.1803  -42.2949 H         1 UNK         0.0600 
    182 H182        6.7524  -14.4101  -41.0792 H         1 UNK         0.0600 
    183 H183        7.4808  -15.0565  -42.5349 H         1 UNK         0.0600 
    184 H184        5.1805  -12.9009  -44.5080 H         1 UNK         0.3000 
    185 H185        7.1428  -13.6303  -47.3118 H         1 UNK         0.0600 
    186 H186        5.4699  -15.3281  -48.0461 H         1 UNK         0.0600 
    187 H187        6.5636  -16.0257  -46.8606 H         1 UNK         0.0600 
    188 H188        4.9394  -15.5501  -46.3805 H         1 UNK         0.0600 
    189 H189        4.7404  -12.5566  -46.0471 H         1 UNK         0.3000 
    190 H190       -2.4410  -20.9467  -47.9849 H         1 UNK         0.3000 
    191 H191       -3.6946  -22.5735  -49.9180 H         1 UNK         0.0600 
    192 H192       -4.5765  -20.3816  -49.1040 H         1 UNK         0.0600 
    193 H193       -5.7935  -21.6468  -49.0002 H         1 UNK         0.0600 
    194 H194       -4.9614  -21.1031  -47.5463 H         1 UNK         0.0600 
    195 H195       -3.5504  -22.9511  -46.3367 H         1 UNK         0.3000 
    196 H196       -5.1251  -25.3006  -46.1682 H         1 UNK         0.0600 
    197 H197       -4.0821  -25.5121  -43.9007 H         1 UNK         0.0600 
    198 H198       -4.6453  -23.8774  -44.2114 H         1 UNK         0.0600 
    199 H199       -2.9261  -24.2501  -44.3112 H         1 UNK         0.0600 
    200 H200       -1.5565  -24.9011  -46.4767 H         1 UNK         0.3000 
    201 H201       -0.8763  -27.6501  -46.4124 H         1 UNK         0.0600 
    202 H202        0.7744  -25.8337  -46.0907 H         1 UNK         0.0600 
    203 H203        0.5505  -25.2912  -47.7523 H         1 UNK         0.0600 
    204 H204        1.2729  -26.8624  -47.4251 H         1 UNK         0.0600 
    205 H205       -1.8519  -25.5559  -49.1171 H         1 UNK         0.3000 
    206 H206       -1.5773  -27.6244  -51.1582 H         1 UNK         0.0600 
    207 H207       -1.1882  -25.2338  -51.6760 H         1 UNK         0.0600 
    208 H208       -2.5636  -25.8207  -52.5984 H         1 UNK         0.0600 
    209 H209       -2.8236  -24.8326  -51.1635 H         1 UNK         0.0600 
    210 H210       -3.7974  -27.3272  -48.7016 H         1 UNK         0.3000 
    211 H211       -5.8383  -28.0084  -48.2287 H         1 UNK         0.0600 
    212 H212       -5.5525  -29.8929  -50.6293 H         1 UNK         0.0600 
    213 H213       -6.6431  -30.0991  -49.2650 H         1 UNK         0.0600 
    214 H214       -4.9083  -30.1977  -49.0164 H         1 UNK         0.0600 
    215 H215       -5.6742  -25.6781  -49.8010 H         1 UNK         0.3000 
    216 H216       -6.7745  -24.1511  -50.8932 H         1 UNK         0.0600 
    217 H217       -8.5882  -24.6664  -49.2476 H         1 UNK         0.0600 
    218 H218       -9.3244  -25.7754  -50.4050 H         1 UNK         0.0600 
    219 H219       -9.2297  -24.0575  -50.7633 H         1 UNK         0.0600 
    220 H220       -6.0083  -26.8320  -52.4182 H         1 UNK         0.3000 
    221 H221       -7.5906  -26.6093  -54.8650 H         1 UNK         0.0600 
    222 H222       -4.9971  -28.1408  -54.3004 H         1 UNK         0.0600 
    223 H223       -6.6220  -28.7858  -54.0671 H         1 UNK         0.0600 
    224 H224       -6.0641  -28.3618  -55.6791 H         1 UNK         0.0600 
    225 H225       -4.8728  -24.9808  -53.5143 H         1 UNK         0.3000 
    226 H226       -4.5605  -23.2352  -55.7637 H         1 UNK         0.0600 
    227 H227       -2.9394  -25.0663  -56.4187 H         1 UNK         0.0600 
    228 H228       -2.0843  -23.5970  -55.9876 H         1 UNK         0.0600 
    229 H229       -2.1542  -24.9344  -54.8474 H         1 UNK         0.0600 
    230 H230       -2.8633  -21.5480  -55.0610 H         1 UNK         0.3000 
    231 H231       -2.1379  -19.9483  -53.7388 H         1 UNK         0.0600 
    232 H232       -1.0201  -20.5795  -51.6327 H         1 UNK         0.0600 
    233 H233       -0.6803  -21.7706  -52.8764 H         1 UNK         0.0600 
    234 H234       -1.8517  -22.1281  -51.6088 H         1 UNK         0.0600 
    235 H235       -5.1469  -20.7900  -53.4162 H         1 UNK         0.3000 
    236 H236       -5.9308  -19.5756  -50.8865 H         1 UNK         0.0600 
    237 H237       -8.2176  -20.0676  -51.7191 H         1 UNK         0.0600 
    238 H238       -7.5722  -20.5266  -53.2919 H         1 UNK         0.0600 
    239 H239       -7.1853  -21.4815  -51.8607 H         1 UNK         0.0600 
    240 H240       -4.4309  -17.6965  -51.7377 H         1 UNK         0.3000 
    241 H241       -5.6581  -15.7871  -53.5298 H         1 UNK         0.0600 
    242 H242       -6.4042  -16.3257  -50.2252 H         1 UNK         0.3800 
    243 H243       -7.0400  -14.7304  -49.9139 H         1 UNK         0.3800 
    244 H244       -3.2756  -15.9845  -53.5820 H         1 UNK         0.0800 
    245 H245       -3.6613  -14.3799  -53.0408 H         1 UNK         0.0800 
    246 H246       -1.4320  -17.3863  -52.4223 H         1 UNK         0.0800 
    247 H247       -0.8102  -15.7950  -52.8175 H         1 UNK         0.0800 
@<TRIPOS>BOND
     1    1    2 1    
     2    1  127 1    
     3    1  128 1    
     4    1  129 1    
     5    2    3 2    
     6    2    4 am   BACKBONE|DICT|INTERRES
     7    4    5 1    
     8    4  130 1    
     9    5    6 1    
    10    5   65 1    
    11    5  131 1    
    12    6    7 1    
    13    6  132 1    
    14    6  133 1    
    15    7    8 1    
    16    8    9 1    
    17    8  134 1    
    18    8  135 1    
    19    9   10 ar   
    20    9   14 ar   
    21   10   11 ar   
    22   10  136 1    
    23   11   12 ar   
    24   11  126 1    
    25   12   13 ar   
    26   12  137 1    
    27   13   14 ar   
    28   13   15 1    
    29   14  138 1    
    30   15   16 1    
    31   15  139 1    
    32   15  140 1    
    33   16   17 1    
    34   17   18 1    
    35   17  141 1    
    36   17  142 1    
    37   18   19 1    
    38   18   67 1    
    39   18  143 1    
    40   19   20 am   BACKBONE|DICT|INTERRES
    41   19  144 1    
    42   20   21 2    
    43   20   22 1    
    44   22   23 1    
    45   22   24 1    
    46   22  145 1    
    47   23  146 1    
    48   23  147 1    
    49   23  148 1    
    50   24   25 am   BACKBONE|DICT|INTERRES
    51   24  149 1    
    52   25   26 2    
    53   25   27 1    
    54   27   28 1    
    55   27   29 1    
    56   27  150 1    
    57   28  151 1    
    58   28  152 1    
    59   28  153 1    
    60   29   30 am   BACKBONE|DICT|INTERRES
    61   29  154 1    
    62   30   31 2    
    63   30   32 1    
    64   32   33 1    
    65   32   34 1    
    66   32  155 1    
    67   33  156 1    
    68   33  157 1    
    69   33  158 1    
    70   34   35 am   BACKBONE|DICT|INTERRES
    71   34  159 1    
    72   35   36 2    
    73   35   37 1    
    74   37   38 1    
    75   37   39 1    
    76   37  160 1    
    77   38  161 1    
    78   38  162 1    
    79   38  163 1    
    80   39   40 am   BACKBONE|DICT|INTERRES
    81   39  164 1    
    82   40   41 2    
    83   40   42 1    
    84   42   43 1    
    85   42   44 1    
    86   42  165 1    
    87   43  166 1    
    88   43  167 1    
    89   43  168 1    
    90   44   45 am   BACKBONE|DICT|INTERRES
    91   44  169 1    
    92   45   46 2    
    93   45   47 1    
    94   47   48 1    
    95   47   49 1    
    96   47  170 1    
    97   48  171 1    
    98   48  172 1    
    99   48  173 1    
   100   49   50 am   BACKBONE|DICT|INTERRES
   101   49  174 1    
   102   50   51 2    
   103   50   52 1    
   104   52   53 1    
   105   52   54 1    
   106   52  175 1    
   107   53  176 1    
   108   53  177 1    
   109   53  178 1    
   110   54   55 am   BACKBONE|DICT|INTERRES
   111   54  179 1    
   112   55   56 2    
   113   55   57 1    
   114   57   58 1    
   115   57   59 1    
   116   57  180 1    
   117   58  181 1    
   118   58  182 1    
   119   58  183 1    
   120   59   60 am   BACKBONE|DICT|INTERRES
   121   59  184 1    
   122   60   61 2    
   123   60   62 1    
   124   62   63 1    
   125   62   64 1    
   126   62  185 1    
   127   63  186 1    
   128   63  187 1    
   129   63  188 1    
   130   64   65 am   BACKBONE|DICT|INTERRES
   131   64  189 1    
   132   65   66 2    
   133   67   68 2    
   134   67   69 am   BACKBONE|DICT|INTERRES
   135   69   70 1    
   136   69  190 1    
   137   70   71 1    
   138   70   72 1    
   139   70  191 1    
   140   71  192 1    
   141   71  193 1    
   142   71  194 1    
   143   72   73 2    
   144   72   74 am   BACKBONE|DICT|INTERRES
   145   74   75 1    
   146   74  195 1    
   147   75   76 1    
   148   75   77 1    
   149   75  196 1    
   150   76  197 1    
   151   76  198 1    
   152   76  199 1    
   153   77   78 2    
   154   77   79 am   BACKBONE|DICT|INTERRES
   155   79   80 1    
   156   79  200 1    
   157   80   81 1    
   158   80   82 1    
   159   80  201 1    
   160   81  202 1    
   161   81  203 1    
   162   81  204 1    
   163   82   83 2    
   164   82   84 am   BACKBONE|DICT|INTERRES
   165   84   85 1    
   166   84  205 1    
   167   85   86 1    
   168   85   87 1    
   169   85  206 1    
   170   86  207 1    
   171   86  208 1    
   172   86  209 1    
   173   87   88 2    
   174   87   89 am   BACKBONE|DICT|INTERRES
   175   89   90 1    
   176   89  210 1    
   177   90   91 1    
   178   90   92 1    
   179   90  211 1    
   180   91  212 1    
   181   91  213 1    
   182   91  214 1    
   183   92   93 2    
   184   92   94 am   BACKBONE|DICT|INTERRES
   185   94   95 1    
   186   94  215 1    
   187   95   96 1    
   188   95   97 1    
   189   95  216 1    
   190   96  217 1    
   191   96  218 1    
   192   96  219 1    
   193   97   98 2    
   194   97   99 am   BACKBONE|DICT|INTERRES
   195   99  100 1    
   196   99  220 1    
   197  100  101 1    
   198  100  102 1    
   199  100  221 1    
   200  101  222 1    
   201  101  223 1    
   202  101  224 1    
   203  102  103 2    
   204  102  104 am   BACKBONE|DICT|INTERRES
   205  104  105 1    
   206  104  225 1    
   207  105  106 1    
   208  105  107 1    
   209  105  226 1    
   210  106  227 1    
   211  106  228 1    
   212  106  229 1    
   213  107  108 2    
   214  107  109 am   BACKBONE|DICT|INTERRES
   215  109  110 1    
   216  109  230 1    
   217  110  111 1    
   218  110  112 1    
   219  110  231 1    
   220  111  232 1    
   221  111  233 1    
   222  111  234 1    
   223  112  113 2    
   224  112  114 am   BACKBONE|DICT|INTERRES
   225  114  115 1    
   226  114  235 1    
   227  115  116 1    
   228  115  117 1    
   229  115  236 1    
   230  116  237 1    
   231  116  238 1    
   232  116  239 1    
   233  117  118 2    
   234  117  119 am   BACKBONE|DICT|INTERRES
   235  119  120 1    
   236  119  240 1    
   237  120  121 1    
   238  120  124 1    
   239  120  241 1    
   240  121  122 am   BACKBONE|DICT|INTERRES
   241  121  123 2    
   242  122  242 1    
   243  122  243 1    
   244  124  125 1    
   245  124  244 1    
   246  124  245 1    
   247  125  126 1    
   248  126  246 1    
   249  126  247 1    
@<TRIPOS>SUBSTRUCTURE
     1 UNK         1 GROUP             0       ****    0 ROOT    
