@<TRIPOS>MOLECULE
3R540
247   249    1
SMALL
USER_CHARGES


@<TRIPOS>ATOM
      1 CA         -5.9379  -16.9337  -47.3022 C.3       0 UNK        -0.1800 
      2 C          -4.5746  -16.2576  -47.2780 C.2       0 UNK         0.5000 
      3 O          -3.7140  -16.6455  -46.4892 O.2       0 UNK        -0.5000 
      4 N          -4.3811  -15.2411  -48.1291 N.am      1 UNK        -0.5000 
      5 CA         -3.1489  -14.4654  -48.3602 C.3       1 UNK         0.1400 
      6 C6         -1.9348  -15.3236  -48.8107 C.3       23 UNK        -0.0398 
      7 S7         -2.2352  -16.0915  -50.4369 S.3       23 UNK        -0.2404 
      8 C8         -0.5528  -16.2125  -51.1162 C.3       23 UNK        -0.0205 
      9 C9          0.1297  -17.5134  -50.7212 C.ar      23 UNK        -0.0193 
     10 C10        -0.1811  -18.6910  -51.4049 C.ar      23 UNK        -0.1150 
     11 C11         0.4843  -19.8888  -51.1139 C.ar      23 UNK        -0.0193 
     12 C12         1.4588  -19.8899  -50.1120 C.ar      23 UNK        -0.1150 
     13 C13         1.7616  -18.7269  -49.3923 C.ar      23 UNK        -0.0193 
     14 C14         1.0921  -17.5397  -49.7084 C.ar      23 UNK        -0.1150 
     15 C15         2.8320  -18.7131  -48.2998 C.3       23 UNK        -0.0205 
     16 S16         2.9881  -20.2663  -47.3477 S.3       23 UNK        -0.2404 
     17 C17         1.3582  -20.3322  -46.5419 C.3       23 UNK        -0.0398 
     18 CA          1.1150  -21.6521  -45.7669 C.3       11 UNK         0.1400 
     19 N           2.0522  -21.8294  -44.6565 N.am      11 UNK        -0.5000 
     20 C           2.7475  -22.9410  -44.3838 C.2       10 UNK         0.5000 
     21 O           2.7357  -23.9511  -45.0870 O.2       10 UNK        -0.5000 
     22 CA          3.5267  -22.9407  -43.0560 C.3       10 UNK         0.1400 
     23 CB          4.8695  -22.2078  -43.1998 C.3       10 UNK        -0.1800 
     24 N           2.7296  -22.3069  -42.0056 N.am      10 UNK        -0.5000 
     25 C           1.7366  -22.9150  -41.3435 C.2       9 UNK         0.5000 
     26 O           1.5153  -24.1241  -41.4233 O.2       9 UNK        -0.5000 
     27 CA          0.8069  -22.0185  -40.4976 C.3       9 UNK         0.1400 
     28 CB          0.1459  -22.7692  -39.3227 C.3       9 UNK        -0.1800 
     29 N           1.4318  -20.7702  -40.0483 N.am      9 UNK        -0.5000 
     30 C           2.4500  -20.6265  -39.1862 C.2       8 UNK         0.5000 
     31 O           3.0098  -21.5704  -38.6273 O.2       8 UNK        -0.5000 
     32 CA          2.9502  -19.1923  -38.9075 C.3       8 UNK         0.1400 
     33 CB          4.3826  -19.0190  -39.4374 C.3       8 UNK        -0.1800 
     34 N           2.1042  -18.1451  -39.4870 N.am      8 UNK        -0.5000 
     35 C           0.9116  -17.7597  -39.0114 C.2       7 UNK         0.5000 
     36 O           0.4131  -18.2031  -37.9767 O.2       7 UNK        -0.5000 
     37 CA          0.1223  -16.7454  -39.8643 C.3       7 UNK         0.1400 
     38 CB          0.5435  -15.3056  -39.5346 C.3       7 UNK        -0.1800 
     39 N           0.2687  -16.9741  -41.3040 N.am      7 UNK        -0.5000 
     40 C          -0.1338  -18.0760  -41.9535 C.2       6 UNK         0.5000 
     41 O          -0.7169  -19.0155  -41.4140 O.2       6 UNK        -0.5000 
     42 CA          0.2552  -18.1816  -43.4362 C.3       6 UNK         0.1400 
     43 CB         -0.7119  -17.4005  -44.3403 C.3       6 UNK        -0.1800 
     44 N           1.6319  -17.7317  -43.6514 N.am      6 UNK        -0.5000 
     45 C           2.7093  -18.4565  -43.3186 C.2       5 UNK         0.5000 
     46 O           2.6354  -19.6023  -42.8755 O.2       5 UNK        -0.5000 
     47 CA          4.0942  -17.8041  -43.4915 C.3       5 UNK         0.1400 
     48 CB          4.6858  -18.1499  -44.8639 C.3       5 UNK        -0.1800 
     49 N           4.0687  -16.3504  -43.3348 N.am      5 UNK        -0.5000 
     50 C           3.8566  -15.7155  -42.1737 C.2       4 UNK         0.5000 
     51 O           3.7007  -16.2928  -41.0994 O.2       4 UNK        -0.5000 
     52 CA          3.7218  -14.1814  -42.2447 C.3       4 UNK         0.1400 
     53 CB          5.1021  -13.5117  -42.1771 C.3       4 UNK        -0.1800 
     54 N           3.0137  -13.7267  -43.4473 N.am      4 UNK        -0.5000 
     55 C           1.7599  -14.0806  -43.7580 C.2       3 UNK         0.5000 
     56 O           1.0687  -14.8132  -43.0458 O.2       3 UNK        -0.5000 
     57 CA          1.2279  -13.6146  -45.1249 C.3       3 UNK         0.1400 
     58 CB          1.8219  -14.4812  -46.2491 C.3       3 UNK        -0.1800 
     59 N          -0.2271  -13.7170  -45.1954 N.am      3 UNK        -0.5000 
     60 C          -1.0960  -12.9270  -44.5516 C.2       2 UNK         0.5000 
     61 O          -0.7604  -11.9507  -43.8780 O.2       2 UNK        -0.5000 
     62 CA         -2.5881  -13.3065  -44.6884 C.3       2 UNK         0.1400 
     63 CB         -3.5358  -12.1095  -44.4662 C.3       2 UNK        -0.1800 
     64 N          -2.9034  -13.9958  -45.9475 N.am      2 UNK        -0.5000 
     65 C          -2.7660  -13.5253  -47.1956 C.2       1 UNK         0.5000 
     66 O          -2.3557  -12.3941  -47.4573 O.2       1 UNK        -0.5000 
     67 C          -0.3218  -21.7392  -45.2114 C.2       11 UNK         0.5000 
     68 O          -1.1284  -20.8358  -45.4308 O.2       11 UNK        -0.5000 
     69 N          -0.6213  -22.8174  -44.4719 N.am      12 UNK        -0.5000 
     70 CA         -1.9254  -23.0536  -43.8400 C.3       12 UNK         0.1400 
     71 CB         -1.8159  -24.2579  -42.8929 C.3       12 UNK        -0.1800 
     72 C          -3.0780  -23.2678  -44.8429 C.2       12 UNK         0.5000 
     73 O          -4.2324  -23.0086  -44.5023 O.2       12 UNK        -0.5000 
     74 N          -2.7421  -23.7246  -46.0553 N.am      13 UNK        -0.5000 
     75 CA         -3.6641  -23.9688  -47.1625 C.3       13 UNK         0.1400 
     76 CB         -3.6085  -25.4618  -47.5361 C.3       13 UNK        -0.1800 
     77 C          -3.3313  -23.0428  -48.3478 C.2       13 UNK         0.5000 
     78 O          -3.3008  -23.4961  -49.4920 O.2       13 UNK        -0.5000 
     79 N          -3.0713  -21.7591  -48.0538 N.am      14 UNK        -0.5000 
     80 CA         -2.7727  -20.7181  -49.0435 C.3       14 UNK         0.1400 
     81 CB         -2.3940  -19.4194  -48.3187 C.3       14 UNK        -0.1800 
     82 C          -3.9311  -20.4501  -50.0218 C.2       14 UNK         0.5000 
     83 O          -3.6841  -20.1841  -51.1972 O.2       14 UNK        -0.5000 
     84 N          -5.1722  -20.5126  -49.5095 N.am      15 UNK        -0.5000 
     85 CA         -6.4466  -20.4110  -50.2377 C.3       15 UNK         0.1400 
     86 CB         -6.7006  -21.7147  -51.0204 C.3       15 UNK        -0.1800 
     87 C          -6.5679  -19.1611  -51.1388 C.2       15 UNK         0.5000 
     88 O          -7.1676  -19.2322  -52.2134 O.2       15 UNK        -0.5000 
     89 N          -5.9339  -18.0568  -50.7126 N.am      16 UNK        -0.5000 
     90 CA         -5.7835  -16.7828  -51.4302 C.3       16 UNK         0.1400 
     91 CB         -7.1451  -16.0650  -51.5331 C.3       16 UNK        -0.1800 
     92 C          -5.0808  -16.9140  -52.8035 C.2       16 UNK         0.5000 
     93 O          -5.2641  -16.0515  -53.6637 O.2       16 UNK        -0.5000 
     94 N          -4.3241  -18.0077  -52.9955 N.am      17 UNK        -0.5000 
     95 CA         -3.7168  -18.4745  -54.2452 C.3       17 UNK         0.1400 
     96 CB         -2.6110  -17.5092  -54.7179 C.3       17 UNK        -0.1800 
     97 C          -4.7431  -18.7973  -55.3559 C.2       17 UNK         0.5000 
     98 O          -4.3660  -18.8662  -56.5255 O.2       17 UNK        -0.5000 
     99 N          -6.0179  -18.9964  -54.9882 N.am      18 UNK        -0.5000 
    100 CA        -7.1058  -19.2972  -55.9129 C.3       18 UNK         0.1400 
    101 CB        -8.4256  -18.7222  -55.3664 C.3       18 UNK        -0.1800 
    102 C         -7.1706  -20.8108  -56.1601 C.2       18 UNK         0.5000 
    103 O         -6.6847  -21.2812  -57.1888 O.2       18 UNK        -0.5000 
    104 N         -7.7415  -21.5526  -55.2009 N.am      19 UNK        -0.5000 
    105 CA        -7.9320  -23.0040  -55.2817 C.3       19 UNK         0.1400 
    106 CB        -8.8935  -23.4490  -54.1693 C.3       19 UNK        -0.1800 
    107 C         -6.6143  -23.7978  -55.2057 C.2       19 UNK         0.5000 
    108 O         -6.5131  -24.8694  -55.8037 O.2       19 UNK        -0.5000 
    109 N         -5.6308  -23.2526  -54.4788 N.am      20 UNK        -0.5000 
    110 CA        -4.3018  -23.8399  -54.3064 C.3       20 UNK         0.1400 
    111 CB        -3.7177  -23.3419  -52.9771 C.3       20 UNK        -0.1800 
    112 C         -3.3429  -23.5272  -55.4723 C.2       20 UNK         0.5000 
    113 O         -2.3195  -24.2016  -55.5978 O.2       20 UNK        -0.5000 
    114 N         -3.6758  -22.5142  -56.2886 N.am      21 UNK        -0.5000 
    115 CA        -2.9350  -21.9535  -57.4290 C.3       21 UNK         0.1400 
    116 CB        -2.7347  -22.9986  -58.5431 C.3       21 UNK        -0.1800 
    117 C         -1.6039  -21.2706  -57.0491 C.2       21 UNK         0.5000 
    118 O         -1.3886  -20.1171  -57.4203 O.2       21 UNK        -0.5000 
    119 N         -0.7489  -21.9849  -56.3079 N.am      22 UNK        -0.5000 
    120 CA         0.5015  -21.5102  -55.6853 C.3       22 UNK         0.1400 
    121 C          1.6232  -21.0796  -56.6805 C.2       22 UNK         0.5000 
    122 N          1.5690  -21.4745  -57.9466 N.am      22 UNK        -0.7600 
    123 O          2.5782  -20.4086  -56.2981 O.2       22 UNK        -0.5000 
    124 C124        0.2444  -20.4570  -54.5702 C.3       23 UNK        -0.0398 
    125 S125       -0.8996  -21.0896  -53.2948 S.3       23 UNK        -0.2404 
    126 C126        0.1846  -21.2074  -51.8319 C.3       23 UNK        -0.0205 
    127 H127       -6.5814  -16.5256  -48.0820 H         1 UNK         0.0600 
    128 H128       -5.8231  -18.0030  -47.4789 H         1 UNK         0.0600 
    129 H129       -6.4380  -16.7992  -46.3432 H         1 UNK         0.0600 
    130 H130       -5.1626  -14.9428  -48.6947 H         1 UNK         0.3000 
    131 H131       -3.3936  -13.7998  -49.1901 H         1 UNK         0.0600 
    132 H132       -1.7002  -16.1045  -48.0862 H         1 UNK         0.0800 
    133 H133       -1.0418  -14.7006  -48.8847 H         1 UNK         0.0800 
    134 H134        0.0456  -15.3512  -50.8167 H         1 UNK         0.0800 
    135 H135       -0.6163  -16.1618  -52.2037 H         1 UNK         0.0800 
    136 H136       -0.9449  -18.6564  -52.1669 H         1 UNK         0.1150 
    137 H137        1.9812  -20.8095  -49.8906 H         1 UNK         0.1150 
    138 H138        1.3321  -16.6293  -49.1773 H         1 UNK         0.1150 
    139 H139        2.6364  -17.9003  -47.5991 H         1 UNK         0.0800 
    140 H140        3.7939  -18.4950  -48.7651 H         1 UNK         0.0800 
    141 H141        1.2568  -19.4653  -45.8902 H         1 UNK         0.0800 
    142 H142        0.6078  -20.2208  -47.3237 H         1 UNK         0.0800 
    143 H143        1.2185  -22.4725  -46.4801 H         1 UNK         0.0600 
    144 H144        2.1325  -21.0507  -44.0098 H         1 UNK         0.3000 
    145 H145        3.7337  -23.9766  -42.7789 H         1 UNK         0.0600 
    146 H146        5.4294  -22.2275  -42.2647 H         1 UNK         0.0600 
    147 H147        5.4903  -22.6806  -43.9618 H         1 UNK         0.0600 
    148 H148        4.7371  -21.1651  -43.4870 H         1 UNK         0.0600 
    149 H149        2.8058  -21.2971  -41.9353 H         1 UNK         0.3000 
    150 H150        0.0064  -21.7159  -41.1742 H         1 UNK         0.0600 
    151 H151       -0.4630  -23.5999  -39.6805 H         1 UNK         0.0600 
    152 H152       -0.5106  -22.1102  -38.7545 H         1 UNK         0.0600 
    153 H153        0.8852  -23.1817  -38.6359 H         1 UNK         0.0600 
    154 H154        1.0342  -19.9296  -40.4482 H         1 UNK         0.3000 
    155 H155        2.9695  -19.0597  -37.8239 H         1 UNK         0.0600 
    156 H156        5.0599  -19.7461  -38.9877 H         1 UNK         0.0600 
    157 H157        4.7731  -18.0282  -39.2051 H         1 UNK         0.0600 
    158 H158        4.4276  -19.1544  -40.5180 H         1 UNK         0.0600 
    159 H159        2.4824  -17.6575  -40.2929 H         1 UNK         0.3000 
    160 H160       -0.9354  -16.8563  -39.6171 H         1 UNK         0.0600 
    161 H161        1.5947  -15.1307  -39.7639 H         1 UNK         0.0600 
    162 H162       -0.0458  -14.5830  -40.0997 H         1 UNK         0.0600 
    163 H163        0.3979  -15.0892  -38.4756 H         1 UNK         0.0600 
    164 H164        0.7055  -16.2300  -41.8421 H         1 UNK         0.3000 
    165 H165        0.1883  -19.2340  -43.7130 H         1 UNK         0.0600 
    166 H166       -0.4153  -17.4639  -45.3874 H         1 UNK         0.0600 
    167 H167       -1.7203  -17.8100  -44.2686 H         1 UNK         0.0600 
    168 H168       -0.7707  -16.3480  -44.0674 H         1 UNK         0.0600 
    169 H169        1.7556  -16.7695  -43.9303 H         1 UNK         0.3000 
    170 H170        4.7517  -18.2203  -42.7259 H         1 UNK         0.0600 
    171 H171        4.7197  -19.2291  -45.0169 H         1 UNK         0.0600 
    172 H172        4.0974  -17.7202  -45.6744 H         1 UNK         0.0600 
    173 H173        5.7064  -17.7787  -44.9578 H         1 UNK         0.0600 
    174 H174        4.1911  -15.7981  -44.1703 H         1 UNK         0.3000 
    175 H175        3.1431  -13.8609  -41.3759 H         1 UNK         0.0600 
    176 H176        5.7193  -13.7698  -43.0385 H         1 UNK         0.0600 
    177 H177        5.0122  -12.4259  -42.1410 H         1 UNK         0.0600 
    178 H178        5.6422  -13.8215  -41.2813 H         1 UNK         0.0600 
    179 H179        3.5302  -13.1305  -44.0781 H         1 UNK         0.3000 
    180 H180        1.5169  -12.5731  -45.2796 H         1 UNK         0.0600 
    181 H181        2.9100  -14.4107  -46.2712 H         1 UNK         0.0600 
    182 H182        1.5633  -15.5344  -46.1294 H         1 UNK         0.0600 
    183 H183        1.4606  -14.1591  -47.2262 H         1 UNK         0.0600 
    184 H184       -0.5985  -14.5060  -45.7004 H         1 UNK         0.3000 
    185 H185       -2.7831  -14.0291  -43.8947 H         1 UNK         0.0600 
    186 H186       -3.3525  -11.3084  -45.1827 H         1 UNK         0.0600 
    187 H187       -4.5792  -12.4107  -44.5588 H         1 UNK         0.0600 
    188 H188       -3.4087  -11.6894  -43.4679 H         1 UNK         0.0600 
    189 H189       -3.2271  -14.9572  -45.8628 H         1 UNK         0.3000 
    190 H190        0.0893  -23.5205  -44.3253 H         1 UNK         0.3000 
    191 H191       -2.1734  -22.1728  -43.2436 H         1 UNK         0.0600 
    192 H192       -2.7720  -24.4660  -42.4107 H         1 UNK         0.0600 
    193 H193       -1.0926  -24.0732  -42.1006 H         1 UNK         0.0600 
    194 H194       -1.5119  -25.1613  -43.4229 H         1 UNK         0.0600 
    195 H195       -1.7643  -23.8871  -46.2475 H         1 UNK         0.3000 
    196 H196       -4.6896  -23.7367  -46.8687 H         1 UNK         0.0600 
    197 H197       -4.3193  -25.6955  -48.3297 H         1 UNK         0.0600 
    198 H198       -3.8613  -26.0899  -46.6817 H         1 UNK         0.0600 
    199 H199       -2.6167  -25.7530  -47.8841 H         1 UNK         0.0600 
    200 H200       -3.0629  -21.4761  -47.0833 H         1 UNK         0.3000 
    201 H201       -1.9142  -21.0469  -49.6300 H         1 UNK         0.0600 
    202 H202       -3.1971  -19.0694  -47.6703 H         1 UNK         0.0600 
    203 H203       -2.1744  -18.6262  -49.0319 H         1 UNK         0.0600 
    204 H204       -1.5055  -19.5464  -47.7057 H         1 UNK         0.0600 
    205 H205       -5.2524  -20.7204  -48.5244 H         1 UNK         0.3000 
    206 H206       -7.2282  -20.3175  -49.4827 H         1 UNK         0.0600 
    207 H207       -5.9980  -21.8260  -51.8454 H         1 UNK         0.0600 
    208 H208       -6.6031  -22.5895  -50.3775 H         1 UNK         0.0600 
    209 H209       -7.7074  -21.7301  -51.4386 H         1 UNK         0.0600 
    210 H210       -5.4236  -18.1297  -49.8454 H         1 UNK         0.3000 
    211 H211       -5.1336  -16.1601  -50.8170 H         1 UNK         0.0600 
    212 H212       -7.8301  -16.5920  -52.1981 H         1 UNK         0.0600 
    213 H213       -7.0273  -15.0529  -51.9215 H         1 UNK         0.0600 
    214 H214       -7.6227  -15.9820  -50.5569 H         1 UNK         0.0600 
    215 H215       -4.2220  -18.6593  -52.2208 H         1 UNK         0.3000 
    216 H216       -3.2409  -19.4247  -54.0029 H         1 UNK         0.0600 
    217 H217       -3.0189  -16.5522  -55.0429 H         1 UNK         0.0600 
    218 H218       -2.0580  -17.9301  -55.5584 H         1 UNK         0.0600 
    219 H219       -1.8914  -17.3157  -53.9239 H         1 UNK         0.0600 
    220 H220       -6.2626  -18.9484  -54.0041 H         1 UNK         0.3000 
    221 H221       -6.9151  -18.8127  -56.8730 H         1 UNK         0.0600 
    222 H222       -8.6779  -19.1138  -54.3812 H         1 UNK         0.0600 
    223 H223       -8.3694  -17.6368  -55.2816 H         1 UNK         0.0600 
    224 H224       -9.2564  -18.9522  -56.0345 H         1 UNK         0.0600 
    225 H225       -8.1012  -21.0893  -54.3783 H         1 UNK         0.3000 
    226 H226       -8.3974  -23.2308  -56.2433 H         1 UNK         0.0600 
    227 H227       -9.8527  -22.9369  -54.2474 H         1 UNK         0.0600 
    228 H228       -9.0922  -24.5197  -54.2316 H         1 UNK         0.0600 
    229 H229       -8.4847  -23.2498  -53.1786 H         1 UNK         0.0600 
    230 H230       -5.8056  -22.3717  -54.0195 H         1 UNK         0.3000 
    231 H231       -4.3954  -24.9263  -54.2456 H         1 UNK         0.0600 
    232 H232       -3.6502  -22.2543  -52.9516 H         1 UNK         0.0600 
    233 H233       -4.3300  -23.6587  -52.1328 H         1 UNK         0.0600 
    234 H234       -2.7144  -23.7366  -52.8116 H         1 UNK         0.0600 
    235 H235       -4.5552  -22.0533  -56.1029 H         1 UNK         0.3000 
    236 H236       -3.5802  -21.1730  -57.8355 H         1 UNK         0.0600 
    237 H237       -3.6879  -23.4242  -58.8570 H         1 UNK         0.0600 
    238 H238       -2.2765  -22.5441  -59.4222 H         1 UNK         0.0600 
    239 H239       -2.0893  -23.8187  -58.2281 H         1 UNK         0.0600 
    240 H240       -1.0479  -22.9198  -56.0425 H         1 UNK         0.3000 
    241 H241        0.9175  -22.3895  -55.1926 H         1 UNK         0.0600 
    242 H242        2.3009  -21.2042  -58.5849 H         1 UNK         0.3800 
    243 H243        0.7948  -22.0296  -58.2744 H         1 UNK         0.3800 
    244 H244       -0.1774  -19.5450  -54.9937 H         1 UNK         0.0800 
    245 H245        1.1788  -20.1611  -54.0907 H         1 UNK         0.0800 
    246 H246       -0.2884  -21.8849  -51.1206 H         1 UNK         0.0800 
    247 H247        1.1205  -21.6838  -52.1274 H         1 UNK         0.0800 
@<TRIPOS>BOND
     1    1    2 1    
     2    1  127 1    
     3    1  128 1    
     4    1  129 1    
     5    2    3 2    
     6    2    4 am   BACKBONE|DICT|INTERRES
     7    4    5 1    
     8    4  130 1    
     9    5    6 1    
    10    5   65 1    
    11    5  131 1    
    12    6    7 1    
    13    6  132 1    
    14    6  133 1    
    15    7    8 1    
    16    8    9 1    
    17    8  134 1    
    18    8  135 1    
    19    9   10 ar   
    20    9   14 ar   
    21   10   11 ar   
    22   10  136 1    
    23   11   12 ar   
    24   11  126 1    
    25   12   13 ar   
    26   12  137 1    
    27   13   14 ar   
    28   13   15 1    
    29   14  138 1    
    30   15   16 1    
    31   15  139 1    
    32   15  140 1    
    33   16   17 1    
    34   17   18 1    
    35   17  141 1    
    36   17  142 1    
    37   18   19 1    
    38   18   67 1    
    39   18  143 1    
    40   19   20 am   BACKBONE|DICT|INTERRES
    41   19  144 1    
    42   20   21 2    
    43   20   22 1    
    44   22   23 1    
    45   22   24 1    
    46   22  145 1    
    47   23  146 1    
    48   23  147 1    
    49   23  148 1    
    50   24   25 am   BACKBONE|DICT|INTERRES
    51   24  149 1    
    52   25   26 2    
    53   25   27 1    
    54   27   28 1    
    55   27   29 1    
    56   27  150 1    
    57   28  151 1    
    58   28  152 1    
    59   28  153 1    
    60   29   30 am   BACKBONE|DICT|INTERRES
    61   29  154 1    
    62   30   31 2    
    63   30   32 1    
    64   32   33 1    
    65   32   34 1    
    66   32  155 1    
    67   33  156 1    
    68   33  157 1    
    69   33  158 1    
    70   34   35 am   BACKBONE|DICT|INTERRES
    71   34  159 1    
    72   35   36 2    
    73   35   37 1    
    74   37   38 1    
    75   37   39 1    
    76   37  160 1    
    77   38  161 1    
    78   38  162 1    
    79   38  163 1    
    80   39   40 am   BACKBONE|DICT|INTERRES
    81   39  164 1    
    82   40   41 2    
    83   40   42 1    
    84   42   43 1    
    85   42   44 1    
    86   42  165 1    
    87   43  166 1    
    88   43  167 1    
    89   43  168 1    
    90   44   45 am   BACKBONE|DICT|INTERRES
    91   44  169 1    
    92   45   46 2    
    93   45   47 1    
    94   47   48 1    
    95   47   49 1    
    96   47  170 1    
    97   48  171 1    
    98   48  172 1    
    99   48  173 1    
   100   49   50 am   BACKBONE|DICT|INTERRES
   101   49  174 1    
   102   50   51 2    
   103   50   52 1    
   104   52   53 1    
   105   52   54 1    
   106   52  175 1    
   107   53  176 1    
   108   53  177 1    
   109   53  178 1    
   110   54   55 am   BACKBONE|DICT|INTERRES
   111   54  179 1    
   112   55   56 2    
   113   55   57 1    
   114   57   58 1    
   115   57   59 1    
   116   57  180 1    
   117   58  181 1    
   118   58  182 1    
   119   58  183 1    
   120   59   60 am   BACKBONE|DICT|INTERRES
   121   59  184 1    
   122   60   61 2    
   123   60   62 1    
   124   62   63 1    
   125   62   64 1    
   126   62  185 1    
   127   63  186 1    
   128   63  187 1    
   129   63  188 1    
   130   64   65 am   BACKBONE|DICT|INTERRES
   131   64  189 1    
   132   65   66 2    
   133   67   68 2    
   134   67   69 am   BACKBONE|DICT|INTERRES
   135   69   70 1    
   136   69  190 1    
   137   70   71 1    
   138   70   72 1    
   139   70  191 1    
   140   71  192 1    
   141   71  193 1    
   142   71  194 1    
   143   72   73 2    
   144   72   74 am   BACKBONE|DICT|INTERRES
   145   74   75 1    
   146   74  195 1    
   147   75   76 1    
   148   75   77 1    
   149   75  196 1    
   150   76  197 1    
   151   76  198 1    
   152   76  199 1    
   153   77   78 2    
   154   77   79 am   BACKBONE|DICT|INTERRES
   155   79   80 1    
   156   79  200 1    
   157   80   81 1    
   158   80   82 1    
   159   80  201 1    
   160   81  202 1    
   161   81  203 1    
   162   81  204 1    
   163   82   83 2    
   164   82   84 am   BACKBONE|DICT|INTERRES
   165   84   85 1    
   166   84  205 1    
   167   85   86 1    
   168   85   87 1    
   169   85  206 1    
   170   86  207 1    
   171   86  208 1    
   172   86  209 1    
   173   87   88 2    
   174   87   89 am   BACKBONE|DICT|INTERRES
   175   89   90 1    
   176   89  210 1    
   177   90   91 1    
   178   90   92 1    
   179   90  211 1    
   180   91  212 1    
   181   91  213 1    
   182   91  214 1    
   183   92   93 2    
   184   92   94 am   BACKBONE|DICT|INTERRES
   185   94   95 1    
   186   94  215 1    
   187   95   96 1    
   188   95   97 1    
   189   95  216 1    
   190   96  217 1    
   191   96  218 1    
   192   96  219 1    
   193   97   98 2    
   194   97   99 am   BACKBONE|DICT|INTERRES
   195   99  100 1    
   196   99  220 1    
   197  100  101 1    
   198  100  102 1    
   199  100  221 1    
   200  101  222 1    
   201  101  223 1    
   202  101  224 1    
   203  102  103 2    
   204  102  104 am   BACKBONE|DICT|INTERRES
   205  104  105 1    
   206  104  225 1    
   207  105  106 1    
   208  105  107 1    
   209  105  226 1    
   210  106  227 1    
   211  106  228 1    
   212  106  229 1    
   213  107  108 2    
   214  107  109 am   BACKBONE|DICT|INTERRES
   215  109  110 1    
   216  109  230 1    
   217  110  111 1    
   218  110  112 1    
   219  110  231 1    
   220  111  232 1    
   221  111  233 1    
   222  111  234 1    
   223  112  113 2    
   224  112  114 am   BACKBONE|DICT|INTERRES
   225  114  115 1    
   226  114  235 1    
   227  115  116 1    
   228  115  117 1    
   229  115  236 1    
   230  116  237 1    
   231  116  238 1    
   232  116  239 1    
   233  117  118 2    
   234  117  119 am   BACKBONE|DICT|INTERRES
   235  119  120 1    
   236  119  240 1    
   237  120  121 1    
   238  120  124 1    
   239  120  241 1    
   240  121  122 am   BACKBONE|DICT|INTERRES
   241  121  123 2    
   242  122  242 1    
   243  122  243 1    
   244  124  125 1    
   245  124  244 1    
   246  124  245 1    
   247  125  126 1    
   248  126  246 1    
   249  126  247 1    
@<TRIPOS>SUBSTRUCTURE
     1 UNK         1 GROUP             0       ****    0 ROOT    
