@<TRIPOS>MOLECULE
3R540
247   249    1
SMALL
USER_CHARGES


@<TRIPOS>ATOM
      1 CA          6.4927  -11.1710  -44.9626 C.3       0 UNK        -0.1800 
      2 C           5.2692  -11.8924  -45.5065 C.2       0 UNK         0.5000 
      3 O           4.1431  -11.4668  -45.2425 O.2       0 UNK        -0.5000 
      4 N           5.4819  -12.9735  -46.2699 N.am      1 UNK        -0.5000 
      5 CA          4.4580  -13.8151  -46.9040 C.3       1 UNK         0.1400 
      6 C6          5.0423  -15.2010  -47.2789 C.3       23 UNK        -0.0398 
      7 S7          3.7604  -16.4699  -47.5615 S.3       23 UNK        -0.2404 
      8 C8          4.0676  -16.8575  -49.3118 C.3       23 UNK        -0.0205 
      9 C9          3.0806  -17.8795  -49.8499 C.ar      23 UNK        -0.0193 
     10 C10         1.9837  -17.4713  -50.6122 C.ar      23 UNK        -0.1150 
     11 C11         1.1023  -18.4078  -51.1614 C.ar      23 UNK        -0.0193 
     12 C12         1.3257  -19.7707  -50.9188 C.ar      23 UNK        -0.1150 
     13 C13         2.4168  -20.1963  -50.1503 C.ar      23 UNK        -0.0193 
     14 C14         3.2939  -19.2401  -49.6272 C.ar      23 UNK        -0.1150 
     15 C15         2.6590  -21.6930  -49.9501 C.3       23 UNK        -0.0205 
     16 S16         3.4325  -22.1537  -48.3543 S.3       23 UNK        -0.2404 
     17 C17         2.1999  -21.5501  -47.1485 C.3       23 UNK        -0.0398 
     18 CA          1.2498  -22.6355  -46.5836 C.3       11 UNK         0.1400 
     19 N           0.3554  -22.0725  -45.5693 N.am      11 UNK        -0.5000 
     20 C          -0.5360  -22.7616  -44.8433 C.2       10 UNK         0.5000 
     21 O          -0.6603  -23.9851  -44.8879 O.2       10 UNK        -0.5000 
     22 CA         -1.4867  -21.9391  -43.9559 C.3       10 UNK         0.1400 
     23 CB         -0.7977  -21.5449  -42.6414 C.3       10 UNK        -0.1800 
     24 N          -2.0005  -20.7443  -44.6309 N.am      10 UNK        -0.5000 
     25 C          -2.7720  -20.7680  -45.7287 C.2       9 UNK         0.5000 
     26 O          -3.1592  -21.8035  -46.2667 O.2       9 UNK        -0.5000 
     27 CA         -3.1406  -19.4161  -46.3637 C.3       9 UNK         0.1400 
     28 CB         -4.2857  -18.7437  -45.5935 C.3       9 UNK        -0.1800 
     29 N          -2.0015  -18.5053  -46.4536 N.am      9 UNK        -0.5000 
     30 C          -0.8928  -18.7430  -47.1678 C.2       8 UNK         0.5000 
     31 O          -0.7279  -19.7525  -47.8532 O.2       8 UNK        -0.5000 
     32 CA          0.2417  -17.7084  -47.0486 C.3       8 UNK         0.1400 
     33 CB         -0.0642  -16.4446  -47.8667 C.3       8 UNK        -0.1800 
     34 N           0.5060  -17.3387  -45.6574 N.am      8 UNK        -0.5000 
     35 C           0.9176  -18.1946  -44.7111 C.2       7 UNK         0.5000 
     36 O           1.1763  -19.3794  -44.9199 O.2       7 UNK        -0.5000 
     37 CA          0.9967  -17.6487  -43.2768 C.3       7 UNK         0.1400 
     38 CB          2.3114  -16.8866  -43.0488 C.3       7 UNK        -0.1800 
     39 N          -0.1467  -16.7908  -42.9620 N.am      7 UNK        -0.5000 
     40 C          -1.3975  -17.2433  -42.7854 C.2       6 UNK         0.5000 
     41 O          -1.7061  -18.4328  -42.8406 O.2       6 UNK        -0.5000 
     42 CA         -2.4968  -16.1916  -42.5433 C.3       6 UNK         0.1400 
     43 CB         -2.5620  -15.8096  -41.0572 C.3       6 UNK        -0.1800 
     44 N          -2.3130  -14.9831  -43.3465 N.am      6 UNK        -0.5000 
     45 C          -2.3620  -14.9475  -44.6860 C.2       5 UNK         0.5000 
     46 O          -2.6304  -15.9250  -45.3801 O.2       5 UNK        -0.5000 
     47 CA         -1.9899  -13.6137  -45.3615 C.3       5 UNK         0.1400 
     48 CB         -3.2392  -12.7488  -45.5812 C.3       5 UNK        -0.1800 
     49 N          -0.9957  -12.8456  -44.6076 N.am      5 UNK        -0.5000 
     50 C           0.2412  -13.2675  -44.3175 C.2       4 UNK         0.5000 
     51 O           0.6927  -14.3513  -44.6932 O.2       4 UNK        -0.5000 
     52 CA          1.0993  -12.3124  -43.4669 C.3       4 UNK         0.1400 
     53 CB          2.3567  -12.9983  -42.9036 C.3       4 UNK        -0.1800 
     54 N           1.4994  -11.1479  -44.2510 N.am      4 UNK        -0.5000 
     55 C           0.7193  -10.0971  -44.5427 C.2       3 UNK         0.5000 
     56 O          -0.4255   -9.9551  -44.1099 O.2       3 UNK        -0.5000 
     57 CA          1.3042   -9.0624  -45.5199 C.3       3 UNK         0.1400 
     58 CB          2.2978   -8.1347  -44.8039 C.3       3 UNK        -0.1800 
     59 N           1.9772   -9.7243  -46.6370 N.am      3 UNK        -0.5000 
     60 C           1.3469  -10.3059  -47.6696 C.2       2 UNK         0.5000 
     61 O           0.1346  -10.2317  -47.8682 O.2       2 UNK        -0.5000 
     62 CA          2.2192  -11.1705  -48.5893 C.3       2 UNK         0.1400 
     63 CB          3.1137  -10.2978  -49.4905 C.3       2 UNK        -0.1800 
     64 N           3.0096  -12.0507  -47.7377 N.am      2 UNK        -0.5000 
     65 C           3.7827  -13.0784  -48.0875 C.2       1 UNK         0.5000 
     66 O           3.9900  -13.4163  -49.2532 O.2       1 UNK        -0.5000 
     67 C           0.4503  -23.3436  -47.6953 C.2       11 UNK         0.5000 
     68 O           0.7137  -24.5097  -47.9914 O.2       11 UNK        -0.5000 
     69 N          -0.5333  -22.6377  -48.2676 N.am      12 UNK        -0.5000 
     70 CA         -1.3955  -23.1569  -49.3242 C.3       12 UNK         0.1400 
     71 CB         -2.2392  -22.0182  -49.8975 C.3       12 UNK        -0.1800 
     72 C          -2.2828  -24.3233  -48.8634 C.2       12 UNK         0.5000 
     73 O          -2.4968  -25.2519  -49.6420 O.2       12 UNK        -0.5000 
     74 N          -2.7766  -24.2733  -47.6198 N.am      13 UNK        -0.5000 
     75 CA         -3.5392  -25.3501  -46.9892 C.3       13 UNK         0.1400 
     76 CB         -4.1616  -24.8534  -45.6767 C.3       13 UNK        -0.1800 
     77 C          -2.6857  -26.6083  -46.7536 C.2       13 UNK         0.5000 
     78 O          -3.1483  -27.7101  -47.0472 O.2       13 UNK        -0.5000 
     79 N          -1.4417  -26.4266  -46.2857 N.am      14 UNK        -0.5000 
     80 CA         -0.4533  -27.4962  -46.1131 C.3       14 UNK         0.1400 
     81 CB          0.7686  -26.9537  -45.3568 C.3       14 UNK        -0.1800 
     82 C          -0.0309  -28.1411  -47.4478 C.2       14 UNK         0.5000 
     83 O           0.1786  -29.3534  -47.4997 O.2       14 UNK        -0.5000 
     84 N           0.0376  -27.3280  -48.5105 N.am      15 UNK        -0.5000 
     85 CA          0.2650  -27.7571  -49.8924 C.3       15 UNK         0.1400 
     86 CB          0.7259  -26.5421  -50.7141 C.3       15 UNK        -0.1800 
     87 C          -0.9684  -28.4172  -50.5495 C.2       15 UNK         0.5000 
     88 O          -0.8427  -28.9427  -51.6561 O.2       15 UNK        -0.5000 
     89 N          -2.1292  -28.3661  -49.8768 N.am      16 UNK        -0.5000 
     90 CA         -3.4449  -28.8591  -50.3014 C.3       16 UNK         0.1400 
     91 CB         -3.4309  -30.3901  -50.4932 C.3       16 UNK        -0.1800 
     92 C          -4.0295  -28.1029  -51.5147 C.2       16 UNK         0.5000 
     93 O          -4.8702  -28.6485  -52.2319 O.2       16 UNK        -0.5000 
     94 N          -3.5903  -26.8544  -51.7115 N.am      17 UNK        -0.5000 
     95 CA         -4.0795  -25.9416  -52.7412 C.3       17 UNK         0.1400 
     96 CB         -2.9038  -25.0988  -53.2628 C.3       17 UNK        -0.1800 
     97 C          -5.1894  -25.0372  -52.1815 C.2       17 UNK         0.5000 
     98 O          -6.2259  -24.8784  -52.8275 O.2       17 UNK        -0.5000 
     99 N          -4.9454  -24.4846  -50.9824 N.am      18 UNK        -0.5000 
    100 CA        -5.7836  -23.5389  -50.2373 C.3       18 UNK         0.1400 
    101 CB        -6.9684  -24.2926  -49.5934 C.3       18 UNK        -0.1800 
    102 C         -6.1869  -22.3070  -51.0849 C.2       18 UNK         0.5000 
    103 O         -5.3253  -21.7351  -51.7556 O.2       18 UNK        -0.5000 
    104 N         -7.4787  -21.9479  -51.0477 N.am      19 UNK        -0.5000 
    105 CA        -8.1650  -20.9011  -51.8128 C.3       19 UNK         0.1400 
    106 CB        -7.9950  -21.1265  -53.3304 C.3       19 UNK        -0.1800 
    107 C         -7.7902  -19.4576  -51.4216 C.2       19 UNK         0.5000 
    108 O         -6.7585  -19.1989  -50.7952 O.2       19 UNK        -0.5000 
    109 N         -8.6506  -18.5210  -51.8439 N.am      20 UNK        -0.5000 
    110 CA        -8.5242  -17.0746  -51.6310 C.3       20 UNK         0.1400 
    111 CB        -9.8511  -16.4029  -52.0190 C.3       20 UNK        -0.1800 
    112 C         -7.3454  -16.4237  -52.3848 C.2       20 UNK         0.5000 
    113 O         -7.0143  -15.2709  -52.1057 O.2       20 UNK        -0.5000 
    114 N         -6.7243  -17.1708  -53.3095 N.am      21 UNK        -0.5000 
    115 CA        -5.4918  -16.8070  -54.0093 C.3       21 UNK         0.1400 
    116 CB        -5.1958  -17.8670  -55.0814 C.3       21 UNK        -0.1800 
    117 C         -4.2849  -16.6453  -53.0630 C.2       21 UNK         0.5000 
    118 O         -3.4074  -15.8289  -53.3480 O.2       21 UNK        -0.5000 
    119 N         -4.2797  -17.3994  -51.9556 N.am      22 UNK        -0.5000 
    120 CA        -3.3048  -17.2747  -50.8626 C.3       22 UNK         0.1400 
    121 C         -3.9880  -16.9415  -49.5098 C.2       22 UNK         0.5000 
    122 N         -5.1895  -17.4323  -49.2235 N.am      22 UNK        -0.7600 
    123 O         -3.4253  -16.2022  -48.7104 O.2       22 UNK        -0.5000 
    124 C124       -2.4084  -18.5278  -50.7138 C.3       23 UNK        -0.0398 
    125 S125       -1.4882  -18.9676  -52.2261 S.3       23 UNK        -0.2404 
    126 C126       -0.0107  -17.9037  -52.0838 C.3       23 UNK        -0.0205 
    127 H127        7.4201  -11.6525  -45.2734 H         1 UNK         0.0600 
    128 H128        6.5073  -10.1406  -45.3173 H         1 UNK         0.0600 
    129 H129        6.4638  -11.1572  -43.8732 H         1 UNK         0.0600 
    130 H130        6.4360  -13.2396  -46.4676 H         1 UNK         0.3000 
    131 H131        3.6811  -13.9882  -46.1550 H         1 UNK         0.0600 
    132 H132        5.6590  -15.5704  -46.4584 H         1 UNK         0.0800 
    133 H133        5.7118  -15.1271  -48.1376 H         1 UNK         0.0800 
    134 H134        5.0841  -17.2379  -49.4234 H         1 UNK         0.0800 
    135 H135        4.0163  -15.9441  -49.9050 H         1 UNK         0.0800 
    136 H136        1.8339  -16.4178  -50.8033 H         1 UNK         0.1150 
    137 H137        0.6673  -20.5092  -51.3526 H         1 UNK         0.1150 
    138 H138        4.1557  -19.5491  -49.0533 H         1 UNK         0.1150 
    139 H139        1.7229  -22.2411  -50.0593 H         1 UNK         0.0800 
    140 H140        3.3072  -22.0406  -50.7551 H         1 UNK         0.0800 
    141 H141        1.6319  -20.7315  -47.5882 H         1 UNK         0.0800 
    142 H142        2.7584  -21.1021  -46.3259 H         1 UNK         0.0800 
    143 H143        1.8599  -23.3933  -46.0879 H         1 UNK         0.0600 
    144 H144        0.4172  -21.0671  -45.4315 H         1 UNK         0.3000 
    145 H145       -2.3409  -22.5734  -43.7111 H         1 UNK         0.0600 
    146 H146       -1.4956  -21.0533  -41.9636 H         1 UNK         0.0600 
    147 H147       -0.4086  -22.4233  -42.1250 H         1 UNK         0.0600 
    148 H148        0.0381  -20.8661  -42.8120 H         1 UNK         0.0600 
    149 H149       -1.7593  -19.8498  -44.2149 H         1 UNK         0.3000 
    150 H150       -3.4863  -19.6100  -47.3814 H         1 UNK         0.0600 
    151 H151       -5.1553  -19.3993  -45.5343 H         1 UNK         0.0600 
    152 H152       -4.6030  -17.8249  -46.0871 H         1 UNK         0.0600 
    153 H153       -3.9918  -18.4908  -44.5745 H         1 UNK         0.0600 
    154 H154       -2.0925  -17.6172  -45.9653 H         1 UNK         0.3000 
    155 H155        1.1479  -18.1639  -47.4527 H         1 UNK         0.0600 
    156 H156       -0.9480  -15.9275  -47.4956 H         1 UNK         0.0600 
    157 H157       -0.2479  -16.6907  -48.9123 H         1 UNK         0.0600 
    158 H158        0.7697  -15.7433  -47.8388 H         1 UNK         0.0600 
    159 H159        0.3431  -16.3731  -45.3971 H         1 UNK         0.3000 
    160 H160        0.9808  -18.4997  -42.5925 H         1 UNK         0.0600 
    161 H161        2.3722  -16.4963  -42.0329 H         1 UNK         0.0600 
    162 H162        2.4253  -16.0509  -43.7390 H         1 UNK         0.0600 
    163 H163        3.1684  -17.5448  -43.1962 H         1 UNK         0.0600 
    164 H164        0.0168  -15.7946  -42.9811 H         1 UNK         0.3000 
    165 H165       -3.4525  -16.6396  -42.8234 H         1 UNK         0.0600 
    166 H166       -3.3884  -15.1260  -40.8616 H         1 UNK         0.0600 
    167 H167       -2.7174  -16.6919  -40.4348 H         1 UNK         0.0600 
    168 H168       -1.6416  -15.3296  -40.7225 H         1 UNK         0.0600 
    169 H169       -2.0911  -14.1324  -42.8512 H         1 UNK         0.3000 
    170 H170       -1.5592  -13.8464  -46.3373 H         1 UNK         0.0600 
    171 H171       -3.9873  -13.2873  -46.1648 H         1 UNK         0.0600 
    172 H172       -3.7020  -12.4615  -44.6363 H         1 UNK         0.0600 
    173 H173       -2.9957  -11.8374  -46.1277 H         1 UNK         0.0600 
    174 H174       -1.2598  -11.9122  -44.3133 H         1 UNK         0.3000 
    175 H175        0.4949  -11.9809  -42.6199 H         1 UNK         0.0600 
    176 H176        2.0870  -13.8337  -42.2567 H         1 UNK         0.0600 
    177 H177        2.9962  -13.3906  -43.6949 H         1 UNK         0.0600 
    178 H178        2.9510  -12.3051  -42.3083 H         1 UNK         0.0600 
    179 H179        2.4422  -11.1794  -44.6309 H         1 UNK         0.3000 
    180 H180        0.4835   -8.4545  -45.9066 H         1 UNK         0.0600 
    181 H181        3.1538   -8.6843  -44.4098 H         1 UNK         0.0600 
    182 H182        1.8204   -7.6245  -43.9664 H         1 UNK         0.0600 
    183 H183        2.6753   -7.3669  -45.4794 H         1 UNK         0.0600 
    184 H184        2.9784   -9.8326  -46.5517 H         1 UNK         0.3000 
    185 H185        1.5645  -11.7825  -49.2129 H         1 UNK         0.0600 
    186 H186        2.5150   -9.5860  -50.0602 H         1 UNK         0.0600 
    187 H187        3.8396   -9.7277  -48.9098 H         1 UNK         0.0600 
    188 H188        3.6645  -10.9018  -50.2112 H         1 UNK         0.0600 
    189 H189        2.9714  -11.8385  -46.7466 H         1 UNK         0.3000 
    190 H190       -0.6809  -21.6704  -47.9885 H         1 UNK         0.3000 
    191 H191       -0.7512  -23.5287  -50.1231 H         1 UNK         0.0600 
    192 H192       -2.9073  -21.5897  -49.1496 H         1 UNK         0.0600 
    193 H193       -2.8460  -22.3594  -50.7364 H         1 UNK         0.0600 
    194 H194       -1.5921  -21.2252  -50.2678 H         1 UNK         0.0600 
    195 H195       -2.6324  -23.4327  -47.0656 H         1 UNK         0.3000 
    196 H196       -4.3528  -25.6233  -47.6645 H         1 UNK         0.0600 
    197 H197       -4.7430  -25.6415  -45.1966 H         1 UNK         0.0600 
    198 H198       -4.8351  -24.0148  -45.8541 H         1 UNK         0.0600 
    199 H199       -3.4006  -24.5271  -44.9677 H         1 UNK         0.0600 
    200 H200       -1.1444  -25.4896  -46.0265 H         1 UNK         0.3000 
    201 H201       -0.9108  -28.2762  -45.5010 H         1 UNK         0.0600 
    202 H202        0.4858  -26.5701  -44.3764 H         1 UNK         0.0600 
    203 H203        1.2556  -26.1455  -45.9030 H         1 UNK         0.0600 
    204 H204        1.5103  -27.7374  -45.1983 H         1 UNK         0.0600 
    205 H205       -0.0648  -26.3293  -48.3579 H         1 UNK         0.3000 
    206 H206        1.0696  -28.4950  -49.8956 H         1 UNK         0.0600 
    207 H207        1.6105  -26.0797  -50.2755 H         1 UNK         0.0600 
    208 H208        0.9830  -26.8323  -51.7335 H         1 UNK         0.0600 
    209 H209       -0.0525  -25.7821  -50.7778 H         1 UNK         0.0600 
    210 H210       -2.1239  -27.9063  -48.9749 H         1 UNK         0.3000 
    211 H211       -4.1204  -28.6447  -49.4725 H         1 UNK         0.0600 
    212 H212       -2.8434  -30.6860  -51.3625 H         1 UNK         0.0600 
    213 H213       -4.4409  -30.7754  -50.6371 H         1 UNK         0.0600 
    214 H214       -3.0157  -30.8923  -49.6194 H         1 UNK         0.0600 
    215 H215       -2.9486  -26.4631  -51.0278 H         1 UNK         0.3000 
    216 H216       -4.4891  -26.5071  -53.5809 H         1 UNK         0.0600 
    217 H217       -3.2359  -24.3996  -54.0312 H         1 UNK         0.0600 
    218 H218       -2.1354  -25.7315  -53.7075 H         1 UNK         0.0600 
    219 H219       -2.4359  -24.5159  -52.4683 H         1 UNK         0.0600 
    220 H220       -4.0591  -24.7139  -50.5455 H         1 UNK         0.3000 
    221 H221       -5.1635  -23.1525  -49.4274 H         1 UNK         0.0600 
    222 H222       -7.6572  -24.6844  -50.3429 H         1 UNK         0.0600 
    223 H223       -6.6144  -25.1366  -49.0011 H         1 UNK         0.0600 
    224 H224       -7.5322  -23.6487  -48.9175 H         1 UNK         0.0600 
    225 H225       -8.0798  -22.4820  -50.4368 H         1 UNK         0.3000 
    226 H226       -9.2233  -21.0240  -51.5772 H         1 UNK         0.0600 
    227 H227       -8.2430  -22.1517  -53.6063 H         1 UNK         0.0600 
    228 H228       -8.6514  -20.4721  -53.9047 H         1 UNK         0.0600 
    229 H229       -6.9743  -20.9306  -53.6607 H         1 UNK         0.0600 
    230 H230       -9.4689  -18.8158  -52.3575 H         1 UNK         0.3000 
    231 H231       -8.3537  -16.9063  -50.5656 H         1 UNK         0.0600 
    232 H232      -10.6810  -16.8005  -51.4345 H         1 UNK         0.0600 
    233 H233      -10.0817  -16.5492  -53.0749 H         1 UNK         0.0600 
    234 H234       -9.8150  -15.3280  -51.8369 H         1 UNK         0.0600 
    235 H235       -7.0814  -18.0984  -53.4802 H         1 UNK         0.3000 
    236 H236       -5.6569  -15.8485  -54.5057 H         1 UNK         0.0600 
    237 H237       -4.2930  -17.6154  -55.6395 H         1 UNK         0.0600 
    238 H238       -5.0442  -18.8533  -54.6403 H         1 UNK         0.0600 
    239 H239       -6.0117  -17.9411  -55.8006 H         1 UNK         0.0600 
    240 H240       -5.0485  -18.0363  -51.7958 H         1 UNK         0.3000 
    241 H241       -2.6417  -16.4318  -51.0652 H         1 UNK         0.0600 
    242 H242       -5.6095  -17.1772  -48.3453 H         1 UNK         0.3800 
    243 H243       -5.6822  -18.0779  -49.8360 H         1 UNK         0.3800 
    244 H244       -1.6888  -18.3921  -49.9082 H         1 UNK         0.0800 
    245 H245       -3.0258  -19.3824  -50.4360 H         1 UNK         0.0800 
    246 H246        0.4149  -17.7922  -53.0816 H         1 UNK         0.0800 
    247 H247       -0.3285  -16.9055  -51.7791 H         1 UNK         0.0800 
@<TRIPOS>BOND
     1    1    2 1    
     2    1  127 1    
     3    1  128 1    
     4    1  129 1    
     5    2    3 2    
     6    2    4 am   BACKBONE|DICT|INTERRES
     7    4    5 1    
     8    4  130 1    
     9    5    6 1    
    10    5   65 1    
    11    5  131 1    
    12    6    7 1    
    13    6  132 1    
    14    6  133 1    
    15    7    8 1    
    16    8    9 1    
    17    8  134 1    
    18    8  135 1    
    19    9   10 ar   
    20    9   14 ar   
    21   10   11 ar   
    22   10  136 1    
    23   11   12 ar   
    24   11  126 1    
    25   12   13 ar   
    26   12  137 1    
    27   13   14 ar   
    28   13   15 1    
    29   14  138 1    
    30   15   16 1    
    31   15  139 1    
    32   15  140 1    
    33   16   17 1    
    34   17   18 1    
    35   17  141 1    
    36   17  142 1    
    37   18   19 1    
    38   18   67 1    
    39   18  143 1    
    40   19   20 am   BACKBONE|DICT|INTERRES
    41   19  144 1    
    42   20   21 2    
    43   20   22 1    
    44   22   23 1    
    45   22   24 1    
    46   22  145 1    
    47   23  146 1    
    48   23  147 1    
    49   23  148 1    
    50   24   25 am   BACKBONE|DICT|INTERRES
    51   24  149 1    
    52   25   26 2    
    53   25   27 1    
    54   27   28 1    
    55   27   29 1    
    56   27  150 1    
    57   28  151 1    
    58   28  152 1    
    59   28  153 1    
    60   29   30 am   BACKBONE|DICT|INTERRES
    61   29  154 1    
    62   30   31 2    
    63   30   32 1    
    64   32   33 1    
    65   32   34 1    
    66   32  155 1    
    67   33  156 1    
    68   33  157 1    
    69   33  158 1    
    70   34   35 am   BACKBONE|DICT|INTERRES
    71   34  159 1    
    72   35   36 2    
    73   35   37 1    
    74   37   38 1    
    75   37   39 1    
    76   37  160 1    
    77   38  161 1    
    78   38  162 1    
    79   38  163 1    
    80   39   40 am   BACKBONE|DICT|INTERRES
    81   39  164 1    
    82   40   41 2    
    83   40   42 1    
    84   42   43 1    
    85   42   44 1    
    86   42  165 1    
    87   43  166 1    
    88   43  167 1    
    89   43  168 1    
    90   44   45 am   BACKBONE|DICT|INTERRES
    91   44  169 1    
    92   45   46 2    
    93   45   47 1    
    94   47   48 1    
    95   47   49 1    
    96   47  170 1    
    97   48  171 1    
    98   48  172 1    
    99   48  173 1    
   100   49   50 am   BACKBONE|DICT|INTERRES
   101   49  174 1    
   102   50   51 2    
   103   50   52 1    
   104   52   53 1    
   105   52   54 1    
   106   52  175 1    
   107   53  176 1    
   108   53  177 1    
   109   53  178 1    
   110   54   55 am   BACKBONE|DICT|INTERRES
   111   54  179 1    
   112   55   56 2    
   113   55   57 1    
   114   57   58 1    
   115   57   59 1    
   116   57  180 1    
   117   58  181 1    
   118   58  182 1    
   119   58  183 1    
   120   59   60 am   BACKBONE|DICT|INTERRES
   121   59  184 1    
   122   60   61 2    
   123   60   62 1    
   124   62   63 1    
   125   62   64 1    
   126   62  185 1    
   127   63  186 1    
   128   63  187 1    
   129   63  188 1    
   130   64   65 am   BACKBONE|DICT|INTERRES
   131   64  189 1    
   132   65   66 2    
   133   67   68 2    
   134   67   69 am   BACKBONE|DICT|INTERRES
   135   69   70 1    
   136   69  190 1    
   137   70   71 1    
   138   70   72 1    
   139   70  191 1    
   140   71  192 1    
   141   71  193 1    
   142   71  194 1    
   143   72   73 2    
   144   72   74 am   BACKBONE|DICT|INTERRES
   145   74   75 1    
   146   74  195 1    
   147   75   76 1    
   148   75   77 1    
   149   75  196 1    
   150   76  197 1    
   151   76  198 1    
   152   76  199 1    
   153   77   78 2    
   154   77   79 am   BACKBONE|DICT|INTERRES
   155   79   80 1    
   156   79  200 1    
   157   80   81 1    
   158   80   82 1    
   159   80  201 1    
   160   81  202 1    
   161   81  203 1    
   162   81  204 1    
   163   82   83 2    
   164   82   84 am   BACKBONE|DICT|INTERRES
   165   84   85 1    
   166   84  205 1    
   167   85   86 1    
   168   85   87 1    
   169   85  206 1    
   170   86  207 1    
   171   86  208 1    
   172   86  209 1    
   173   87   88 2    
   174   87   89 am   BACKBONE|DICT|INTERRES
   175   89   90 1    
   176   89  210 1    
   177   90   91 1    
   178   90   92 1    
   179   90  211 1    
   180   91  212 1    
   181   91  213 1    
   182   91  214 1    
   183   92   93 2    
   184   92   94 am   BACKBONE|DICT|INTERRES
   185   94   95 1    
   186   94  215 1    
   187   95   96 1    
   188   95   97 1    
   189   95  216 1    
   190   96  217 1    
   191   96  218 1    
   192   96  219 1    
   193   97   98 2    
   194   97   99 am   BACKBONE|DICT|INTERRES
   195   99  100 1    
   196   99  220 1    
   197  100  101 1    
   198  100  102 1    
   199  100  221 1    
   200  101  222 1    
   201  101  223 1    
   202  101  224 1    
   203  102  103 2    
   204  102  104 am   BACKBONE|DICT|INTERRES
   205  104  105 1    
   206  104  225 1    
   207  105  106 1    
   208  105  107 1    
   209  105  226 1    
   210  106  227 1    
   211  106  228 1    
   212  106  229 1    
   213  107  108 2    
   214  107  109 am   BACKBONE|DICT|INTERRES
   215  109  110 1    
   216  109  230 1    
   217  110  111 1    
   218  110  112 1    
   219  110  231 1    
   220  111  232 1    
   221  111  233 1    
   222  111  234 1    
   223  112  113 2    
   224  112  114 am   BACKBONE|DICT|INTERRES
   225  114  115 1    
   226  114  235 1    
   227  115  116 1    
   228  115  117 1    
   229  115  236 1    
   230  116  237 1    
   231  116  238 1    
   232  116  239 1    
   233  117  118 2    
   234  117  119 am   BACKBONE|DICT|INTERRES
   235  119  120 1    
   236  119  240 1    
   237  120  121 1    
   238  120  124 1    
   239  120  241 1    
   240  121  122 am   BACKBONE|DICT|INTERRES
   241  121  123 2    
   242  122  242 1    
   243  122  243 1    
   244  124  125 1    
   245  124  244 1    
   246  124  245 1    
   247  125  126 1    
   248  126  246 1    
   249  126  247 1    
@<TRIPOS>SUBSTRUCTURE
     1 UNK         1 GROUP             0       ****    0 ROOT    
