@<TRIPOS>MOLECULE
3R540
247   249    1
SMALL
USER_CHARGES


@<TRIPOS>ATOM
      1 CA          5.9939  -13.5263  -46.0608 C.3       0 UNK        -0.1800 
      2 C           4.4744  -13.5594  -46.1119 C.2       0 UNK         0.5000 
      3 O           3.8179  -12.8938  -45.3125 O.2       0 UNK        -0.5000 
      4 N           3.9040  -14.3072  -47.0638 N.am      1 UNK        -0.5000 
      5 CA          2.4548  -14.5179  -47.2154 C.3       1 UNK         0.1400 
      6 C6          2.1318  -15.7705  -48.0665 C.3       23 UNK        -0.0398 
      7 S7          2.9392  -17.2671  -47.3968 S.3       23 UNK        -0.2404 
      8 C8          3.7685  -17.9632  -48.8581 C.3       23 UNK        -0.0205 
      9 C9          2.8093  -18.8055  -49.6827 C.ar      23 UNK        -0.0193 
     10 C10         2.2221  -18.2887  -50.8392 C.ar      23 UNK        -0.1150 
     11 C11         1.3401  -19.0677  -51.5930 C.ar      23 UNK        -0.0193 
     12 C12         1.0298  -20.3629  -51.1675 C.ar      23 UNK        -0.1150 
     13 C13         1.5960  -20.8904  -50.0020 C.ar      23 UNK        -0.0193 
     14 C14         2.5075  -20.1092  -49.2801 C.ar      23 UNK        -0.1150 
     15 C15         1.1991  -22.2998  -49.5626 C.3       23 UNK        -0.0205 
     16 S16         1.3453  -22.6204  -47.7683 S.3       23 UNK        -0.2404 
     17 C17         0.5680  -24.2663  -47.6447 C.3       23 UNK        -0.0398 
     18 CA         -0.6172  -24.3261  -46.6428 C.3       11 UNK         0.1400 
     19 N          -1.5926  -23.2460  -46.8497 N.am      11 UNK        -0.5000 
     20 C          -2.4580  -22.7743  -45.9409 C.2       10 UNK         0.5000 
     21 O          -2.5745  -23.2539  -44.8115 O.2       10 UNK        -0.5000 
     22 CA         -3.3171  -21.5621  -46.3608 C.3       10 UNK         0.1400 
     23 CB         -4.3489  -21.1644  -45.2910 C.3       10 UNK        -0.1800 
     24 N          -2.4695  -20.4075  -46.6454 N.am      10 UNK        -0.5000 
     25 C          -1.8036  -20.2086  -47.7896 C.2       9 UNK         0.5000 
     26 O          -1.9459  -20.9392  -48.7723 O.2       9 UNK        -0.5000 
     27 CA         -0.8492  -18.9993  -47.8685 C.3       9 UNK         0.1400 
     28 CB         -1.3412  -17.9880  -48.9139 C.3       9 UNK        -0.1800 
     29 N          -0.6516  -18.3087  -46.5924 N.am      9 UNK        -0.5000 
     30 C           0.0658  -18.7732  -45.5584 C.2       8 UNK         0.5000 
     31 O           0.6773  -19.8399  -45.5739 O.2       8 UNK        -0.5000 
     32 CA          0.0666  -17.9227  -44.2716 C.3       8 UNK         0.1400 
     33 CB          1.3951  -17.1768  -44.0940 C.3       8 UNK        -0.1800 
     34 N          -1.0372  -16.9604  -44.2178 N.am      8 UNK        -0.5000 
     35 C          -2.3142  -17.3016  -43.9940 C.2       7 UNK         0.5000 
     36 O          -2.6894  -18.4579  -43.8023 O.2       7 UNK        -0.5000 
     37 CA         -3.3409  -16.1640  -44.0482 C.3       7 UNK         0.1400 
     38 CB         -3.2746  -15.3019  -42.7777 C.3       7 UNK        -0.1800 
     39 N          -3.1109  -15.3215  -45.2180 N.am      7 UNK        -0.5000 
     40 C          -3.5621  -15.5797  -46.4513 C.2       6 UNK         0.5000 
     41 O          -4.2146  -16.5858  -46.7302 O.2       6 UNK        -0.5000 
     42 CA         -3.2111  -14.5767  -47.5735 C.3       6 UNK         0.1400 
     43 CB         -4.4654  -14.1477  -48.3616 C.3       6 UNK        -0.1800 
     44 N          -2.4438  -13.4022  -47.1396 N.am      6 UNK        -0.5000 
     45 C          -2.8437  -12.4082  -46.3339 C.2       5 UNK         0.5000 
     46 O          -3.9499  -12.3451  -45.7946 O.2       5 UNK        -0.5000 
     47 CA         -1.7995  -11.3113  -46.0719 C.3       5 UNK         0.1400 
     48 CB         -2.4526   -9.9216  -45.9803 C.3       5 UNK        -0.1800 
     49 N          -0.9693  -11.5094  -44.8818 N.am      5 UNK        -0.5000 
     50 C          -0.4206  -12.6264  -44.3784 C.2       4 UNK         0.5000 
     51 O          -0.6907  -13.7774  -44.7309 O.2       4 UNK        -0.5000 
     52 CA          0.6888  -12.3801  -43.3351 C.3       4 UNK         0.1400 
     53 CB          1.3296  -13.6831  -42.8272 C.3       4 UNK        -0.1800 
     54 N           1.7332  -11.5421  -43.9271 N.am      4 UNK        -0.5000 
     55 C           1.7044  -10.2053  -44.0128 C.2       3 UNK         0.5000 
     56 O           0.8545   -9.5055  -43.4611 O.2       3 UNK        -0.5000 
     57 CA          2.7256   -9.5625  -44.9634 C.3       3 UNK         0.1400 
     58 CB          4.1404   -9.5775  -44.3630 C.3       3 UNK        -0.1800 
     59 N           2.7212  -10.2542  -46.2546 N.am      3 UNK        -0.5000 
     60 C           1.8298  -10.0319  -47.2335 C.2       2 UNK         0.5000 
     61 O           0.9544   -9.1689  -47.1729 O.2       2 UNK        -0.5000 
     62 CA          1.9209  -10.9190  -48.4915 C.3       2 UNK         0.1400 
     63 CB          2.8237  -10.2618  -49.5463 C.3       2 UNK        -0.1800 
     64 N           2.4371  -12.2523  -48.1862 N.am      2 UNK        -0.5000 
     65 C           1.6974  -13.2713  -47.7274 C.2       1 UNK         0.5000 
     66 O           0.4665  -13.2495  -47.6769 O.2       1 UNK        -0.5000 
     67 C          -1.2873  -25.7221  -46.6299 C.2       11 UNK         0.5000 
     68 O          -0.8960  -26.6114  -47.3897 O.2       11 UNK        -0.5000 
     69 N          -2.2961  -25.9009  -45.7681 N.am      12 UNK        -0.5000 
     70 CA         -3.0825  -27.1274  -45.6123 C.3       12 UNK         0.1400 
     71 CB         -4.2311  -26.8675  -44.6272 C.3       12 UNK        -0.1800 
     72 C          -2.2479  -28.3431  -45.1704 C.2       12 UNK         0.5000 
     73 O          -2.5415  -29.4618  -45.5901 O.2       12 UNK        -0.5000 
     74 N          -1.1853  -28.0975  -44.3907 N.am      13 UNK        -0.5000 
     75 CA         -0.2056  -29.1013  -43.9634 C.3       13 UNK         0.1400 
     76 CB          0.7156  -28.4781  -42.9038 C.3       13 UNK        -0.1800 
     77 C           0.6267  -29.6842  -45.1252 C.2       13 UNK         0.5000 
     78 O           1.0994  -30.8163  -45.0215 O.2       13 UNK        -0.5000 
     79 N           0.7719  -28.9128  -46.2112 N.am      14 UNK        -0.5000 
     80 CA          1.4271  -29.3179  -47.4558 C.3       14 UNK         0.1400 
     81 CB          2.2472  -28.1263  -47.9801 C.3       14 UNK        -0.1800 
     82 C           0.4118  -29.7833  -48.5203 C.2       14 UNK         0.5000 
     83 O           0.8254  -30.1287  -49.6277 O.2       14 UNK        -0.5000 
     84 N          -0.8891  -29.7569  -48.1839 N.am      15 UNK        -0.5000 
     85 CA         -2.0447  -29.9930  -49.0564 C.3       15 UNK         0.1400 
     86 CB         -2.0938  -31.4630  -49.5224 C.3       15 UNK        -0.1800 
     87 C          -2.1280  -28.9806  -50.2207 C.2       15 UNK         0.5000 
     88 O          -2.5480  -29.3368  -51.3232 O.2       15 UNK        -0.5000 
     89 N          -1.7203  -27.7341  -49.9514 N.am      16 UNK        -0.5000 
     90 CA         -1.6255  -26.6426  -50.9158 C.3       16 UNK         0.1400 
     91 CB         -0.1489  -26.4493  -51.3086 C.3       16 UNK        -0.1800 
     92 C          -2.2604  -25.3771  -50.3194 C.2       16 UNK         0.5000 
     93 O          -1.6421  -24.3122  -50.3124 O.2       16 UNK        -0.5000 
     94 N          -3.4854  -25.5166  -49.7960 N.am      17 UNK        -0.5000 
     95 CA         -4.2674  -24.4473  -49.1733 C.3       17 UNK         0.1400 
     96 CB         -5.3692  -25.0728  -48.3009 C.3       17 UNK        -0.1800 
     97 C          -4.8200  -23.4421  -50.2054 C.2       17 UNK         0.5000 
     98 O          -6.0299  -23.3845  -50.4297 O.2       17 UNK        -0.5000 
     99 N          -3.9112  -22.6851  -50.8311 N.am      18 UNK        -0.5000 
    100 CA        -4.2022  -21.6425  -51.8126 C.3       18 UNK         0.1400 
    101 CB        -2.8880  -21.1826  -52.4612 C.3       18 UNK        -0.1800 
    102 C         -4.9520  -20.4560  -51.1864 C.2       18 UNK         0.5000 
    103 O         -5.9680  -20.0224  -51.7314 O.2       18 UNK        -0.5000 
    104 N         -4.4504  -19.9836  -50.0353 N.am      19 UNK        -0.5000 
    105 CA        -5.0075  -18.9107  -49.2081 C.3       19 UNK         0.1400 
    106 CB        -6.2379  -19.4378  -48.4375 C.3       19 UNK        -0.1800 
    107 C         -5.2743  -17.6290  -50.0278 C.2       19 UNK         0.5000 
    108 O         -4.3301  -17.0331  -50.5515 O.2       19 UNK        -0.5000 
    109 N         -6.5526  -17.2542  -50.1696 N.am      20 UNK        -0.5000 
    110 CA        -7.0418  -16.1013  -50.9291 C.3       20 UNK         0.1400 
    111 CB        -8.5561  -15.9741  -50.7021 C.3       20 UNK        -0.1800 
    112 C         -6.7217  -16.1269  -52.4388 C.2       20 UNK         0.5000 
    113 O         -6.8168  -15.0806  -53.0817 O.2       20 UNK        -0.5000 
    114 N         -6.3376  -17.2914  -52.9843 N.am      21 UNK        -0.5000 
    115 CA        -5.8932  -17.4419  -54.3718 C.3       21 UNK         0.1400 
    116 CB        -5.8748  -18.9311  -54.7488 C.3       21 UNK        -0.1800 
    117 C         -4.5192  -16.7992  -54.6548 C.2       21 UNK         0.5000 
    118 O         -4.2067  -16.5688  -55.8243 O.2       21 UNK        -0.5000 
    119 N         -3.7274  -16.5177  -53.6106 N.am      22 UNK        -0.5000 
    120 CA        -2.4121  -15.8688  -53.7281 C.3       22 UNK         0.1400 
    121 C         -2.0675  -14.8803  -52.5784 C.2       22 UNK         0.5000 
    122 N         -2.7128  -14.9305  -51.4197 N.am      22 UNK        -0.7600 
    123 O         -1.2081  -14.0208  -52.7539 O.2       22 UNK        -0.5000 
    124 C124       -1.2757  -16.8873  -54.0028 C.3       23 UNK        -0.0398 
    125 S125       -1.0111  -18.0552  -52.6252 S.3       23 UNK        -0.2404 
    126 C126        0.7308  -18.5097  -52.8694 C.3       23 UNK        -0.0205 
    127 H127        6.3425  -13.8947  -45.0961 H         1 UNK         0.0600 
    128 H128        6.3509  -12.5040  -46.1857 H         1 UNK         0.0600 
    129 H129        6.4394  -14.1421  -46.8424 H         1 UNK         0.0600 
    130 H130        4.4894  -14.8401  -47.6911 H         1 UNK         0.3000 
    131 H131        2.0553  -14.6949  -46.2159 H         1 UNK         0.0600 
    132 H132        1.0566  -15.9526  -48.0779 H         1 UNK         0.0800 
    133 H133        2.4288  -15.6168  -49.1048 H         1 UNK         0.0800 
    134 H134        4.5975  -18.5885  -48.5234 H         1 UNK         0.0800 
    135 H135        4.2131  -17.1686  -49.4589 H         1 UNK         0.0800 
    136 H136        2.4556  -17.2819  -51.1556 H         1 UNK         0.1150 
    137 H137        0.3345  -20.9577  -51.7433 H         1 UNK         0.1150 
    138 H138        2.9677  -20.4964  -48.3826 H         1 UNK         0.1150 
    139 H139        0.1628  -22.4764  -49.8531 H         1 UNK         0.0800 
    140 H140        1.8067  -23.0238  -50.1066 H         1 UNK         0.0800 
    141 H141        1.3444  -24.9713  -47.3436 H         1 UNK         0.0800 
    142 H142        0.2520  -24.5842  -48.6369 H         1 UNK         0.0800 
    143 H143       -0.1901  -24.1872  -45.6474 H         1 UNK         0.0600 
    144 H144       -1.5340  -22.7684  -47.7422 H         1 UNK         0.3000 
    145 H145       -3.8680  -21.8360  -47.2623 H         1 UNK         0.0600 
    146 H146       -4.9338  -20.3001  -45.6059 H         1 UNK         0.0600 
    147 H147       -5.0476  -21.9799  -45.1004 H         1 UNK         0.0600 
    148 H148       -3.8710  -20.9119  -44.3437 H         1 UNK         0.0600 
    149 H149       -2.3035  -19.7756  -45.8738 H         1 UNK         0.3000 
    150 H150        0.1152  -19.3837  -48.1962 H         1 UNK         0.0600 
    151 H151       -1.6003  -18.4870  -49.8473 H         1 UNK         0.0600 
    152 H152       -0.5731  -17.2531  -49.1504 H         1 UNK         0.0600 
    153 H153       -2.2287  -17.4555  -48.5777 H         1 UNK         0.0600 
    154 H154       -1.1336  -17.4314  -46.4722 H         1 UNK         0.3000 
    155 H155       -0.0391  -18.6148  -43.4334 H         1 UNK         0.0600 
    156 H156        1.5167  -16.3993  -44.8450 H         1 UNK         0.0600 
    157 H157        2.2444  -17.8557  -44.1818 H         1 UNK         0.0600 
    158 H158        1.4543  -16.7093  -43.1114 H         1 UNK         0.0600 
    159 H159       -0.8118  -15.9854  -44.3791 H         1 UNK         0.3000 
    160 H160       -4.3385  -16.6043  -44.1099 H         1 UNK         0.0600 
    161 H161       -2.2984  -14.8314  -42.6545 H         1 UNK         0.0600 
    162 H162       -3.4639  -15.9041  -41.8882 H         1 UNK         0.0600 
    163 H163       -4.0246  -14.5111  -42.8015 H         1 UNK         0.0600 
    164 H164       -2.5117  -14.5131  -45.0865 H         1 UNK         0.3000 
    165 H165       -2.5592  -15.1140  -48.2625 H         1 UNK         0.0600 
    166 H166       -5.1915  -13.6368  -47.7295 H         1 UNK         0.0600 
    167 H167       -4.2101  -13.4825  -49.1861 H         1 UNK         0.0600 
    168 H168       -4.9698  -15.0125  -48.7873 H         1 UNK         0.0600 
    169 H169       -1.4702  -13.3865  -47.4370 H         1 UNK         0.3000 
    170 H170       -1.1238  -11.2865  -46.9277 H         1 UNK         0.0600 
    171 H171       -3.0787   -9.8285  -45.0920 H         1 UNK         0.0600 
    172 H172       -1.6995   -9.1340  -45.9432 H         1 UNK         0.0600 
    173 H173       -3.0820   -9.7260  -46.8495 H         1 UNK         0.0600 
    174 H174       -0.6417  -10.6478  -44.4621 H         1 UNK         0.3000 
    175 H175        0.2389  -11.8683  -42.4820 H         1 UNK         0.0600 
    176 H176        1.8238  -14.2254  -43.6336 H         1 UNK         0.0600 
    177 H177        2.0753  -13.4798  -42.0588 H         1 UNK         0.0600 
    178 H178        0.5818  -14.3450  -42.3887 H         1 UNK         0.0600 
    179 H179        2.4651  -12.0383  -44.4324 H         1 UNK         0.3000 
    180 H180        2.4386   -8.5197  -45.1155 H         1 UNK         0.0600 
    181 H181        4.8548   -9.0950  -45.0300 H         1 UNK         0.0600 
    182 H182        4.4951  -10.5901  -44.1702 H         1 UNK         0.0600 
    183 H183        4.1647   -9.0376  -43.4157 H         1 UNK         0.0600 
    184 H184        3.3612  -11.0315  -46.3421 H         1 UNK         0.3000 
    185 H185        0.9169  -11.0082  -48.9123 H         1 UNK         0.0600 
    186 H186        2.8545  -10.8532  -50.4616 H         1 UNK         0.0600 
    187 H187        2.4540   -9.2707  -49.8130 H         1 UNK         0.0600 
    188 H188        3.8469  -10.1449  -49.1869 H         1 UNK         0.0600 
    189 H189        3.4383  -12.3742  -48.2241 H         1 UNK         0.3000 
    190 H190       -2.5579  -25.1071  -45.1889 H         1 UNK         0.3000 
    191 H191       -3.5122  -27.3704  -46.5860 H         1 UNK         0.0600 
    192 H192       -4.8561  -27.7541  -44.5121 H         1 UNK         0.0600 
    193 H193       -4.8750  -26.0596  -44.9752 H         1 UNK         0.0600 
    194 H194       -3.8587  -26.5960  -43.6387 H         1 UNK         0.0600 
    195 H195       -1.0216  -27.1472  -44.0921 H         1 UNK         0.3000 
    196 H196       -0.7494  -29.9283  -43.5021 H         1 UNK         0.0600 
    197 H197        1.2727  -27.6297  -43.3034 H         1 UNK         0.0600 
    198 H198        0.1469  -28.1313  -42.0408 H         1 UNK         0.0600 
    199 H199        1.4422  -29.2062  -42.5407 H         1 UNK         0.0600 
    200 H200        0.3191  -28.0080  -46.2310 H         1 UNK         0.3000 
    201 H201        2.1118  -30.1476  -47.2692 H         1 UNK         0.0600 
    202 H202        2.8227  -28.4052  -48.8636 H         1 UNK         0.0600 
    203 H203        1.6073  -27.2891  -48.2597 H         1 UNK         0.0600 
    204 H204        2.9559  -27.7732  -47.2309 H         1 UNK         0.0600 
    205 H205       -1.1217  -29.4907  -47.2358 H         1 UNK         0.3000 
    206 H206       -2.9282  -29.8156  -48.4417 H         1 UNK         0.0600 
    207 H207       -2.0369  -32.1462  -48.6751 H         1 UNK         0.0600 
    208 H208       -3.0260  -31.6755  -50.0468 H         1 UNK         0.0600 
    209 H209       -1.2757  -31.7020  -50.2022 H         1 UNK         0.0600 
    210 H210       -1.4123  -27.5066  -49.0088 H         1 UNK         0.3000 
    211 H211       -2.1926  -26.8755  -51.8190 H         1 UNK         0.0600 
    212 H212       -0.0355  -25.6413  -52.0322 H         1 UNK         0.0600 
    213 H213        0.2564  -27.3531  -51.7639 H         1 UNK         0.0600 
    214 H214        0.4687  -26.2088  -50.4428 H         1 UNK         0.0600 
    215 H215       -3.9302  -26.4206  -49.8584 H         1 UNK         0.3000 
    216 H216       -3.6088  -23.8883  -48.5110 H         1 UNK         0.0600 
    217 H217       -6.0512  -25.6871  -48.8900 H         1 UNK         0.0600 
    218 H218       -5.9622  -24.3016  -47.8074 H         1 UNK         0.0600 
    219 H219       -4.9440  -25.6995  -47.5190 H         1 UNK         0.0600 
    220 H220       -2.9323  -22.8525  -50.6170 H         1 UNK         0.3000 
    221 H221       -4.8382  -22.0716  -52.5896 H         1 UNK         0.0600 
    222 H222       -2.3927  -22.0058  -52.9762 H         1 UNK         0.0600 
    223 H223       -2.1920  -20.7870  -51.7201 H         1 UNK         0.0600 
    224 H224       -3.0651  -20.3973  -53.1967 H         1 UNK         0.0600 
    225 H225       -3.5859  -20.3966  -49.6979 H         1 UNK         0.3000 
    226 H226       -4.2490  -18.6521  -48.4713 H         1 UNK         0.0600 
    227 H227       -7.0465  -19.7397  -49.1043 H         1 UNK         0.0600 
    228 H228       -5.9740  -20.3080  -47.8372 H         1 UNK         0.0600 
    229 H229       -6.6260  -18.6830  -47.7521 H         1 UNK         0.0600 
    230 H230       -7.2599  -17.8307  -49.7381 H         1 UNK         0.3000 
    231 H231       -6.5622  -15.2098  -50.5222 H         1 UNK         0.0600 
    232 H232       -9.0914  -16.8513  -51.0679 H         1 UNK         0.0600 
    233 H233       -8.9595  -15.1034  -51.2209 H         1 UNK         0.0600 
    234 H234       -8.7885  -15.8543  -49.6437 H         1 UNK         0.0600 
    235 H235       -6.2863  -18.1204  -52.4001 H         1 UNK         0.3000 
    236 H236       -6.6236  -16.9443  -55.0132 H         1 UNK         0.0600 
    237 H237       -6.8332  -19.4068  -54.5399 H         1 UNK         0.0600 
    238 H238       -5.6723  -19.0602  -55.8127 H         1 UNK         0.0600 
    239 H239       -5.1024  -19.4734  -54.2044 H         1 UNK         0.0600 
    240 H240       -4.0366  -16.7430  -52.6737 H         1 UNK         0.3000 
    241 H241       -2.4572  -15.2185  -54.6041 H         1 UNK         0.0600 
    242 H242       -2.4689  -14.2546  -50.7167 H         1 UNK         0.3800 
    243 H243       -3.3512  -15.6872  -51.1844 H         1 UNK         0.3800 
    244 H244       -0.3480  -16.3538  -54.2147 H         1 UNK         0.0800 
    245 H245       -1.4993  -17.4629  -54.9017 H         1 UNK         0.0800 
    246 H246        1.2990  -17.6398  -53.2014 H         1 UNK         0.0800 
    247 H247        0.8018  -19.2489  -53.6684 H         1 UNK         0.0800 
@<TRIPOS>BOND
     1    1    2 1    
     2    1  127 1    
     3    1  128 1    
     4    1  129 1    
     5    2    3 2    
     6    2    4 am   BACKBONE|DICT|INTERRES
     7    4    5 1    
     8    4  130 1    
     9    5    6 1    
    10    5   65 1    
    11    5  131 1    
    12    6    7 1    
    13    6  132 1    
    14    6  133 1    
    15    7    8 1    
    16    8    9 1    
    17    8  134 1    
    18    8  135 1    
    19    9   10 ar   
    20    9   14 ar   
    21   10   11 ar   
    22   10  136 1    
    23   11   12 ar   
    24   11  126 1    
    25   12   13 ar   
    26   12  137 1    
    27   13   14 ar   
    28   13   15 1    
    29   14  138 1    
    30   15   16 1    
    31   15  139 1    
    32   15  140 1    
    33   16   17 1    
    34   17   18 1    
    35   17  141 1    
    36   17  142 1    
    37   18   19 1    
    38   18   67 1    
    39   18  143 1    
    40   19   20 am   BACKBONE|DICT|INTERRES
    41   19  144 1    
    42   20   21 2    
    43   20   22 1    
    44   22   23 1    
    45   22   24 1    
    46   22  145 1    
    47   23  146 1    
    48   23  147 1    
    49   23  148 1    
    50   24   25 am   BACKBONE|DICT|INTERRES
    51   24  149 1    
    52   25   26 2    
    53   25   27 1    
    54   27   28 1    
    55   27   29 1    
    56   27  150 1    
    57   28  151 1    
    58   28  152 1    
    59   28  153 1    
    60   29   30 am   BACKBONE|DICT|INTERRES
    61   29  154 1    
    62   30   31 2    
    63   30   32 1    
    64   32   33 1    
    65   32   34 1    
    66   32  155 1    
    67   33  156 1    
    68   33  157 1    
    69   33  158 1    
    70   34   35 am   BACKBONE|DICT|INTERRES
    71   34  159 1    
    72   35   36 2    
    73   35   37 1    
    74   37   38 1    
    75   37   39 1    
    76   37  160 1    
    77   38  161 1    
    78   38  162 1    
    79   38  163 1    
    80   39   40 am   BACKBONE|DICT|INTERRES
    81   39  164 1    
    82   40   41 2    
    83   40   42 1    
    84   42   43 1    
    85   42   44 1    
    86   42  165 1    
    87   43  166 1    
    88   43  167 1    
    89   43  168 1    
    90   44   45 am   BACKBONE|DICT|INTERRES
    91   44  169 1    
    92   45   46 2    
    93   45   47 1    
    94   47   48 1    
    95   47   49 1    
    96   47  170 1    
    97   48  171 1    
    98   48  172 1    
    99   48  173 1    
   100   49   50 am   BACKBONE|DICT|INTERRES
   101   49  174 1    
   102   50   51 2    
   103   50   52 1    
   104   52   53 1    
   105   52   54 1    
   106   52  175 1    
   107   53  176 1    
   108   53  177 1    
   109   53  178 1    
   110   54   55 am   BACKBONE|DICT|INTERRES
   111   54  179 1    
   112   55   56 2    
   113   55   57 1    
   114   57   58 1    
   115   57   59 1    
   116   57  180 1    
   117   58  181 1    
   118   58  182 1    
   119   58  183 1    
   120   59   60 am   BACKBONE|DICT|INTERRES
   121   59  184 1    
   122   60   61 2    
   123   60   62 1    
   124   62   63 1    
   125   62   64 1    
   126   62  185 1    
   127   63  186 1    
   128   63  187 1    
   129   63  188 1    
   130   64   65 am   BACKBONE|DICT|INTERRES
   131   64  189 1    
   132   65   66 2    
   133   67   68 2    
   134   67   69 am   BACKBONE|DICT|INTERRES
   135   69   70 1    
   136   69  190 1    
   137   70   71 1    
   138   70   72 1    
   139   70  191 1    
   140   71  192 1    
   141   71  193 1    
   142   71  194 1    
   143   72   73 2    
   144   72   74 am   BACKBONE|DICT|INTERRES
   145   74   75 1    
   146   74  195 1    
   147   75   76 1    
   148   75   77 1    
   149   75  196 1    
   150   76  197 1    
   151   76  198 1    
   152   76  199 1    
   153   77   78 2    
   154   77   79 am   BACKBONE|DICT|INTERRES
   155   79   80 1    
   156   79  200 1    
   157   80   81 1    
   158   80   82 1    
   159   80  201 1    
   160   81  202 1    
   161   81  203 1    
   162   81  204 1    
   163   82   83 2    
   164   82   84 am   BACKBONE|DICT|INTERRES
   165   84   85 1    
   166   84  205 1    
   167   85   86 1    
   168   85   87 1    
   169   85  206 1    
   170   86  207 1    
   171   86  208 1    
   172   86  209 1    
   173   87   88 2    
   174   87   89 am   BACKBONE|DICT|INTERRES
   175   89   90 1    
   176   89  210 1    
   177   90   91 1    
   178   90   92 1    
   179   90  211 1    
   180   91  212 1    
   181   91  213 1    
   182   91  214 1    
   183   92   93 2    
   184   92   94 am   BACKBONE|DICT|INTERRES
   185   94   95 1    
   186   94  215 1    
   187   95   96 1    
   188   95   97 1    
   189   95  216 1    
   190   96  217 1    
   191   96  218 1    
   192   96  219 1    
   193   97   98 2    
   194   97   99 am   BACKBONE|DICT|INTERRES
   195   99  100 1    
   196   99  220 1    
   197  100  101 1    
   198  100  102 1    
   199  100  221 1    
   200  101  222 1    
   201  101  223 1    
   202  101  224 1    
   203  102  103 2    
   204  102  104 am   BACKBONE|DICT|INTERRES
   205  104  105 1    
   206  104  225 1    
   207  105  106 1    
   208  105  107 1    
   209  105  226 1    
   210  106  227 1    
   211  106  228 1    
   212  106  229 1    
   213  107  108 2    
   214  107  109 am   BACKBONE|DICT|INTERRES
   215  109  110 1    
   216  109  230 1    
   217  110  111 1    
   218  110  112 1    
   219  110  231 1    
   220  111  232 1    
   221  111  233 1    
   222  111  234 1    
   223  112  113 2    
   224  112  114 am   BACKBONE|DICT|INTERRES
   225  114  115 1    
   226  114  235 1    
   227  115  116 1    
   228  115  117 1    
   229  115  236 1    
   230  116  237 1    
   231  116  238 1    
   232  116  239 1    
   233  117  118 2    
   234  117  119 am   BACKBONE|DICT|INTERRES
   235  119  120 1    
   236  119  240 1    
   237  120  121 1    
   238  120  124 1    
   239  120  241 1    
   240  121  122 am   BACKBONE|DICT|INTERRES
   241  121  123 2    
   242  122  242 1    
   243  122  243 1    
   244  124  125 1    
   245  124  244 1    
   246  124  245 1    
   247  125  126 1    
   248  126  246 1    
   249  126  247 1    
@<TRIPOS>SUBSTRUCTURE
     1 UNK         1 GROUP             0       ****    0 ROOT    
