@<TRIPOS>MOLECULE
3R540
247   249    1
SMALL
USER_CHARGES


@<TRIPOS>ATOM
      1 CA         -0.0794  -15.6332  -46.6585 C.3       0 UNK        -0.1800 
      2 C           0.0472  -14.1533  -46.9739 C.2       0 UNK         0.5000 
      3 O          -0.5488  -13.3228  -46.2888 O.2       0 UNK        -0.5000 
      4 N           0.8328  -13.8255  -48.0064 N.am      1 UNK        -0.5000 
      5 CA          0.9905  -12.4822  -48.5828 C.3       1 UNK         0.1400 
      6 C6          1.8621  -12.5084  -49.8611 C.3       23 UNK        -0.0398 
      7 S7          1.2259  -13.6646  -51.1257 S.3       23 UNK        -0.2404 
      8 C8          2.4670  -15.0038  -51.1162 C.3       23 UNK        -0.0205 
      9 C9          1.8662  -16.3600  -50.7665 C.ar      23 UNK        -0.0193 
     10 C10         0.8770  -16.9182  -51.5826 C.ar      23 UNK        -0.1150 
     11 C11         0.3737  -18.1958  -51.3230 C.ar      23 UNK        -0.0193 
     12 C12         0.8731  -18.9222  -50.2396 C.ar      23 UNK        -0.1150 
     13 C13         1.8488  -18.3717  -49.4023 C.ar      23 UNK        -0.0193 
     14 C14         2.3387  -17.0880  -49.6681 C.ar      23 UNK        -0.1150 
     15 C15         2.4055  -19.1857  -48.2409 C.3       23 UNK        -0.0205 
     16 S16         1.6091  -18.7979  -46.6488 S.3       23 UNK        -0.2404 
     17 C17        -0.0816  -19.4339  -46.8934 C.3       23 UNK        -0.0398 
     18 CA         -0.2238  -20.9410  -46.5781 C.3       11 UNK         0.1400 
     19 N           0.1428  -21.2931  -45.2006 N.am      11 UNK        -0.5000 
     20 C           0.2012  -22.5484  -44.7291 C.2       10 UNK         0.5000 
     21 O           0.0151  -23.5475  -45.4221 O.2       10 UNK        -0.5000 
     22 CA          0.4492  -22.7218  -43.2226 C.3       10 UNK         0.1400 
     23 CB          1.9526  -22.7216  -42.9061 C.3       10 UNK        -0.1800 
     24 N          -0.2280  -21.6828  -42.4492 N.am      10 UNK        -0.5000 
     25 C          -1.5491  -21.6517  -42.2239 C.2       9 UNK         0.5000 
     26 O          -2.3257  -22.5294  -42.6024 O.2       9 UNK        -0.5000 
     27 CA         -2.1000  -20.4108  -41.4921 C.3       9 UNK         0.1400 
     28 CB         -1.9669  -20.5763  -39.9711 C.3       9 UNK        -0.1800 
     29 N          -1.4435  -19.1672  -41.9035 N.am      9 UNK        -0.5000 
     30 C          -1.5119  -18.6562  -43.1400 C.2       8 UNK         0.5000 
     31 O          -2.1963  -19.1458  -44.0374 O.2       8 UNK        -0.5000 
     32 CA         -0.6405  -17.4257  -43.4575 C.3       8 UNK         0.1400 
     33 CB         -1.4485  -16.1335  -43.2785 C.3       8 UNK        -0.1800 
     34 N           0.6247  -17.3144  -42.7241 N.am      8 UNK        -0.5000 
     35 C           1.5578  -18.2699  -42.6024 C.2       7 UNK         0.5000 
     36 O           1.4274  -19.4135  -43.0386 O.2       7 UNK        -0.5000 
     37 CA          2.8508  -17.8498  -41.8821 C.3       7 UNK         0.1400 
     38 CB          3.8131  -19.0245  -41.6064 C.3       7 UNK        -0.1800 
     39 N           3.5064  -16.7607  -42.6068 N.am      7 UNK        -0.5000 
     40 C           4.0633  -16.7974  -43.8272 C.2       6 UNK         0.5000 
     41 O           4.2481  -17.8245  -44.4782 O.2       6 UNK        -0.5000 
     42 CA          4.4828  -15.4450  -44.4338 C.3       6 UNK         0.1400 
     43 CB          3.4674  -15.0001  -45.4988 C.3       6 UNK        -0.1800 
     44 N           4.6109  -14.3941  -43.4204 N.am      6 UNK        -0.5000 
     45 C           5.7065  -14.1958  -42.6734 C.2       5 UNK         0.5000 
     46 O           6.7642  -14.8046  -42.8368 O.2       5 UNK        -0.5000 
     47 CA          5.5969  -13.1664  -41.5325 C.3       5 UNK         0.1400 
     48 CB          6.1216  -11.7938  -41.9773 C.3       5 UNK        -0.1800 
     49 N           4.2280  -13.0307  -41.0266 N.am      5 UNK        -0.5000 
     50 C           3.6429  -13.9235  -40.2135 C.2       4 UNK         0.5000 
     51 O           4.2052  -14.9381  -39.8021 O.2       4 UNK        -0.5000 
     52 CA          2.1767  -13.6703  -39.8128 C.3       4 UNK         0.1400 
     53 CB          2.1075  -12.9087  -38.4808 C.3       4 UNK        -0.1800 
     54 N           1.4063  -12.9415  -40.8204 N.am      4 UNK        -0.5000 
     55 C           1.1243  -13.3903  -42.0498 C.2       3 UNK         0.5000 
     56 O           1.4923  -14.4896  -42.4697 O.2       3 UNK        -0.5000 
     57 CA          0.3234  -12.4540  -42.9787 C.3       3 UNK         0.1400 
     58 CB         -0.2638  -11.2114  -42.2723 C.3       3 UNK        -0.1800 
     59 N           1.1023  -12.0476  -44.1511 N.am      3 UNK        -0.5000 
     60 C           2.2916  -11.4242  -44.1578 C.2       2 UNK         0.5000 
     61 O           2.9193  -11.1533  -43.1327 O.2       2 UNK        -0.5000 
     62 CA          2.8831  -11.0485  -45.5320 C.3       2 UNK         0.1400 
     63 CB          4.4174  -11.1680  -45.5590 C.3       2 UNK        -0.1800 
     64 N           2.3192  -11.8718  -46.6044 N.am      2 UNK        -0.5000 
     65 C           1.5339  -11.4266  -47.5936 C.2       1 UNK         0.5000 
     66 O           1.2227  -10.2444  -47.7434 O.2       1 UNK        -0.5000 
     67 C          -1.6490  -21.4146  -46.9218 C.2       11 UNK         0.5000 
     68 O          -1.8437  -22.0302  -47.9684 O.2       11 UNK        -0.5000 
     69 N          -2.6060  -21.1578  -46.0184 N.am      12 UNK        -0.5000 
     70 CA         -3.9961  -21.5982  -46.1277 C.3       12 UNK         0.1400 
     71 CB         -4.8221  -20.9838  -44.9881 C.3       12 UNK        -0.1800 
     72 C          -4.1346  -23.1300  -46.1387 C.2       12 UNK         0.5000 
     73 O          -4.8919  -23.6600  -46.9515 O.2       12 UNK        -0.5000 
     74 N          -3.3748  -23.8138  -45.2709 N.am      13 UNK        -0.5000 
     75 CA         -3.3106  -25.2747  -45.2066 C.3       13 UNK         0.1400 
     76 CB         -2.5205  -25.7025  -43.9608 C.3       13 UNK        -0.1800 
     77 C          -2.7125  -25.9040  -46.4794 C.2       13 UNK         0.5000 
     78 O          -3.2280  -26.9181  -46.9503 O.2       13 UNK        -0.5000 
     79 N          -1.6553  -25.2833  -47.0214 N.am      14 UNK        -0.5000 
     80 CA         -1.0004  -25.6876  -48.2652 C.3       14 UNK         0.1400 
     81 CB          0.3409  -24.9505  -48.4038 C.3       14 UNK        -0.1800 
     82 C          -1.8825  -25.4521  -49.5042 C.2       14 UNK         0.5000 
     83 O          -1.9488  -26.3225  -50.3731 O.2       14 UNK        -0.5000 
     84 N          -2.5450  -24.2878  -49.5622 N.am      15 UNK        -0.5000 
     85 CA         -3.4587  -23.9081  -50.6397 C.3       15 UNK         0.1400 
     86 CB         -3.7716  -22.4066  -50.5439 C.3       15 UNK        -0.1800 
     87 C          -4.7607  -24.7265  -50.6386 C.2       15 UNK         0.5000 
     88 O          -5.2921  -25.0180  -51.7121 O.2       15 UNK        -0.5000 
     89 N          -5.2611  -25.0524  -49.4361 N.am      16 UNK        -0.5000 
     90 CA         -6.4264  -25.8952  -49.1339 C.3       16 UNK         0.1400 
     91 CB         -6.1253  -27.3574  -49.5210 C.3       16 UNK        -0.1800 
     92 C          -7.7556  -25.3960  -49.7444 C.2       16 UNK         0.5000 
     93 O          -8.6896  -26.1840  -49.8987 O.2       16 UNK        -0.5000 
     94 N          -7.7975  -24.1078  -50.1208 N.am      17 UNK        -0.5000 
     95 CA         -8.8265  -23.4358  -50.9265 C.3       17 UNK         0.1400 
     96 CB        -10.1750  -23.3921  -50.1783 C.3       17 UNK        -0.1800 
     97 C          -8.9654  -23.9972  -52.3634 C.2       17 UNK         0.5000 
     98 O          -9.9433  -23.6831  -53.0439 O.2       17 UNK        -0.5000 
     99 N          -7.9896  -24.8016  -52.8065 N.am      18 UNK        -0.5000 
    100 CA        -7.9449  -25.4418  -54.1190 C.3       18 UNK         0.1400 
    101 CB        -7.5157  -26.9064  -53.9395 C.3       18 UNK        -0.1800 
    102 C         -6.9752  -24.7144  -55.0626 C.2       18 UNK         0.5000 
    103 O         -7.2320  -24.6566  -56.2666 O.2       18 UNK        -0.5000 
    104 N         -5.8866  -24.1577  -54.5114 N.am      19 UNK        -0.5000 
    105 CA        -4.8579  -23.4092  -55.2351 C.3       19 UNK         0.1400 
    106 CB        -3.5651  -23.3970  -54.4022 C.3       19 UNK        -0.1800 
    107 C         -5.3308  -21.9876  -55.6018 C.2       19 UNK         0.5000 
    108 O         -4.7798  -20.9990  -55.1122 O.2       19 UNK        -0.5000 
    109 N         -6.3429  -21.9063  -56.4739 N.am      20 UNK        -0.5000 
    110 CA        -6.9508  -20.6664  -56.9683 C.3       20 UNK         0.1400 
    111 CB        -8.1753  -21.0205  -57.8254 C.3       20 UNK        -0.1800 
    112 C         -5.9806  -19.7614  -57.7556 C.2       20 UNK         0.5000 
    113 O         -6.1854  -18.5481  -57.8000 O.2       20 UNK        -0.5000 
    114 N         -4.9325  -20.3606  -58.3390 N.am      21 UNK        -0.5000 
    115 CA        -3.8252  -19.6590  -58.9901 C.3       21 UNK         0.1400 
    116 CB        -3.0258  -20.6631  -59.8346 C.3       21 UNK        -0.1800 
    117 C         -2.8990  -18.9389  -57.9882 C.2       21 UNK         0.5000 
    118 O         -2.2898  -17.9315  -58.3503 O.2       21 UNK        -0.5000 
    119 N         -2.8117  -19.4612  -56.7574 N.am      22 UNK        -0.5000 
    120 CA        -2.1047  -18.8390  -55.6307 C.3       22 UNK         0.1400 
    121 C         -3.0234  -17.8360  -54.8831 C.2       22 UNK         0.5000 
    122 N         -4.2424  -18.2292  -54.5326 N.am      22 UNK        -0.7600 
    123 O         -2.6367  -16.6986  -54.6307 O.2       22 UNK        -0.5000 
    124 C124       -1.5235  -19.9097  -54.6675 C.3       23 UNK        -0.0398 
    125 S125       -0.0183  -19.3456  -53.8047 S.3       23 UNK        -0.2404 
    126 C126       -0.7063  -18.7873  -52.2155 C.3       23 UNK        -0.0205 
    127 H127        0.1821  -16.2473  -47.5206 H         1 UNK         0.0600 
    128 H128       -1.1025  -15.8751  -46.3714 H         1 UNK         0.0600 
    129 H129        0.5844  -15.8938  -45.8358 H         1 UNK         0.0600 
    130 H130        1.2716  -14.5659  -48.5349 H         1 UNK         0.3000 
    131 H131       -0.0096  -12.1499  -48.8695 H         1 UNK         0.0600 
    132 H132        1.8850  -11.5169  -50.3173 H         1 UNK         0.0800 
    133 H133        2.8988  -12.7444  -49.6172 H         1 UNK         0.0800 
    134 H134        2.9082  -15.0687  -52.1118 H         1 UNK         0.0800 
    135 H135        3.2917  -14.7687  -50.4429 H         1 UNK         0.0800 
    136 H136        0.5084  -16.3630  -52.4342 H         1 UNK         0.1150 
    137 H137        0.5008  -19.9189  -50.0475 H         1 UNK         0.1150 
    138 H138        3.1092  -16.6719  -49.0340 H         1 UNK         0.1150 
    139 H139        2.3106  -20.2536  -48.4428 H         1 UNK         0.0800 
    140 H140        3.4753  -18.9938  -48.1460 H         1 UNK         0.0800 
    141 H141       -0.7540  -18.8520  -46.2656 H         1 UNK         0.0800 
    142 H142       -0.4000  -19.2212  -47.9128 H         1 UNK         0.0800 
    143 H143        0.4576  -21.4839  -47.2363 H         1 UNK         0.0600 
    144 H144        0.3660  -20.5297  -44.5728 H         1 UNK         0.3000 
    145 H145        0.0458  -23.6915  -42.9240 H         1 UNK         0.0600 
    146 H146        2.1314  -22.8368  -41.8370 H         1 UNK         0.0600 
    147 H147        2.4530  -23.5487  -43.4110 H         1 UNK         0.0600 
    148 H148        2.4397  -21.8021  -43.2307 H         1 UNK         0.0600 
    149 H149        0.3310  -20.8700  -42.2146 H         1 UNK         0.3000 
    150 H150       -3.1616  -20.3281  -41.7350 H         1 UNK         0.0600 
    151 H151       -2.4634  -21.4869  -39.6332 H         1 UNK         0.0600 
    152 H152       -2.4264  -19.7414  -39.4418 H         1 UNK         0.0600 
    153 H153       -0.9227  -20.6372  -39.6617 H         1 UNK         0.0600 
    154 H154       -0.8548  -18.7097  -41.2235 H         1 UNK         0.3000 
    155 H155       -0.3721  -17.5086  -44.5082 H         1 UNK         0.0600 
    156 H156       -0.9207  -15.2854  -43.7113 H         1 UNK         0.0600 
    157 H157       -1.6360  -15.9172  -42.2263 H         1 UNK         0.0600 
    158 H158       -2.4144  -16.1978  -43.7815 H         1 UNK         0.0600 
    159 H159        0.8630  -16.3802  -42.4062 H         1 UNK         0.3000 
    160 H160        2.5535  -17.4398  -40.9158 H         1 UNK         0.0600 
    161 H161        4.1126  -19.5375  -42.5206 H         1 UNK         0.0600 
    162 H162        3.3400  -19.7669  -40.9628 H         1 UNK         0.0600 
    163 H163        4.7164  -18.6828  -41.1013 H         1 UNK         0.0600 
    164 H164        3.3867  -15.8459  -42.1955 H         1 UNK         0.3000 
    165 H165        5.4446  -15.5957  -44.9287 H         1 UNK         0.0600 
    166 H166        2.5271  -14.6837  -45.0472 H         1 UNK         0.0600 
    167 H167        3.8624  -14.1765  -46.0905 H         1 UNK         0.0600 
    168 H168        3.2426  -15.8104  -46.1943 H         1 UNK         0.0600 
    169 H169        3.7769  -13.8684  -43.1997 H         1 UNK         0.3000 
    170 H170        6.2342  -13.5146  -40.7166 H         1 UNK         0.0600 
    171 H171        7.1553  -11.8632  -42.3183 H         1 UNK         0.0600 
    172 H172        5.5347  -11.3828  -42.7968 H         1 UNK         0.0600 
    173 H173        6.0976  -11.0775  -41.1560 H         1 UNK         0.0600 
    174 H174        3.6917  -12.2407  -41.3672 H         1 UNK         0.3000 
    175 H175        1.7035  -14.6446  -39.6735 H         1 UNK         0.0600 
    176 H176        2.5426  -11.9120  -38.5643 H         1 UNK         0.0600 
    177 H177        1.0773  -12.7990  -38.1417 H         1 UNK         0.0600 
    178 H178        2.6509  -13.4398  -37.6980 H         1 UNK         0.0600 
    179 H179        1.0903  -12.0172  -40.5650 H         1 UNK         0.3000 
    180 H180       -0.5154  -13.0390  -43.3550 H         1 UNK         0.0600 
    181 H181        0.5108  -10.5442  -41.8924 H         1 UNK         0.0600 
    182 H182       -0.9022  -11.4971  -41.4352 H         1 UNK         0.0600 
    183 H183       -0.8825  -10.6341  -42.9596 H         1 UNK         0.0600 
    184 H184        0.6678  -12.2676  -45.0415 H         1 UNK         0.3000 
    185 H185        2.6333   -9.9979  -45.6911 H         1 UNK         0.0600 
    186 H186        4.8113  -10.9651  -46.5550 H         1 UNK         0.0600 
    187 H187        4.7573  -12.1588  -45.2596 H         1 UNK         0.0600 
    188 H188        4.8744  -10.4452  -44.8828 H         1 UNK         0.0600 
    189 H189        2.5002  -12.8634  -46.5541 H         1 UNK         0.3000 
    190 H190       -2.3754  -20.5950  -45.2028 H         1 UNK         0.3000 
    191 H191       -4.3900  -21.2231  -47.0745 H         1 UNK         0.0600 
    192 H192       -4.7991  -19.8947  -45.0289 H         1 UNK         0.0600 
    193 H193       -5.8669  -21.2901  -45.0526 H         1 UNK         0.0600 
    194 H194       -4.4485  -21.2885  -44.0099 H         1 UNK         0.0600 
    195 H195       -2.8034  -23.3017  -44.6096 H         1 UNK         0.3000 
    196 H196       -4.3318  -25.6472  -45.1023 H         1 UNK         0.0600 
    197 H197       -2.4947  -26.7890  -43.8697 H         1 UNK         0.0600 
    198 H198       -2.9756  -25.3103  -43.0511 H         1 UNK         0.0600 
    199 H199       -1.4891  -25.3521  -43.9968 H         1 UNK         0.0600 
    200 H200       -1.2499  -24.4894  -46.5334 H         1 UNK         0.3000 
    201 H201       -0.7919  -26.7577  -48.2036 H         1 UNK         0.0600 
    202 H202        1.0037  -25.1800  -47.5692 H         1 UNK         0.0600 
    203 H203        0.2061  -23.8689  -48.4341 H         1 UNK         0.0600 
    204 H204        0.8561  -25.2441  -49.3191 H         1 UNK         0.0600 
    205 H205       -2.3830  -23.5925  -48.8372 H         1 UNK         0.3000 
    206 H206       -2.9519  -24.0949  -51.5877 H         1 UNK         0.0600 
    207 H207       -2.8672  -21.8092  -50.6614 H         1 UNK         0.0600 
    208 H208       -4.4699  -22.0957  -51.3219 H         1 UNK         0.0600 
    209 H209       -4.2177  -22.1505  -49.5822 H         1 UNK         0.0600 
    210 H210       -4.7982  -24.6735  -48.6145 H         1 UNK         0.3000 
    211 H211       -6.5553  -25.8561  -48.0514 H         1 UNK         0.0600 
    212 H212       -6.0452  -27.4799  -50.6018 H         1 UNK         0.0600 
    213 H213       -6.9105  -28.0286  -49.1715 H         1 UNK         0.0600 
    214 H214       -5.1897  -27.6964  -49.0753 H         1 UNK         0.0600 
    215 H215       -6.9727  -23.5571  -49.9293 H         1 UNK         0.3000 
    216 H216       -8.4856  -22.4063  -51.0442 H         1 UNK         0.0600 
    217 H217      -10.0543  -22.9954  -49.1703 H         1 UNK         0.0600 
    218 H218      -10.6287  -24.3801  -50.0989 H         1 UNK         0.0600 
    219 H219      -10.8882  -22.7486  -50.6947 H         1 UNK         0.0600 
    220 H220       -7.1954  -24.9784  -52.1999 H         1 UNK         0.3000 
    221 H221       -8.9343  -25.4320  -54.5809 H         1 UNK         0.0600 
    222 H222       -6.5271  -26.9849  -53.4848 H         1 UNK         0.0600 
    223 H223       -8.2183  -27.4457  -53.3038 H         1 UNK         0.0600 
    224 H224       -7.4800  -27.4242  -54.8988 H         1 UNK         0.0600 
    225 H225       -5.7357  -24.2813  -53.5162 H         1 UNK         0.3000 
    226 H226       -4.6404  -23.9322  -56.1688 H         1 UNK         0.0600 
    227 H227       -3.2506  -24.4081  -54.1428 H         1 UNK         0.0600 
    228 H228       -2.7483  -22.9351  -54.9577 H         1 UNK         0.0600 
    229 H229       -3.6902  -22.8338  -53.4785 H         1 UNK         0.0600 
    230 H230       -6.7624  -22.7778  -56.7826 H         1 UNK         0.3000 
    231 H231       -7.2923  -20.0978  -56.1009 H         1 UNK         0.0600 
    232 H232       -8.6740  -20.1203  -58.1872 H         1 UNK         0.0600 
    233 H233       -8.9077  -21.5881  -57.2509 H         1 UNK         0.0600 
    234 H234       -7.8973  -21.6155  -58.6962 H         1 UNK         0.0600 
    235 H235       -4.8609  -21.3651  -58.2742 H         1 UNK         0.3000 
    236 H236       -4.2417  -18.9036  -59.6599 H         1 UNK         0.0600 
    237 H237       -3.6551  -21.1314  -60.5916 H         1 UNK         0.0600 
    238 H238       -2.2056  -20.1682  -60.3565 H         1 UNK         0.0600 
    239 H239       -2.5938  -21.4536  -59.2196 H         1 UNK         0.0600 
    240 H240       -3.4105  -20.2404  -56.5187 H         1 UNK         0.3000 
    241 H241       -1.2663  -18.2699  -56.0379 H         1 UNK         0.0600 
    242 H242       -4.8559  -17.5879  -54.0564 H         1 UNK         0.3800 
    243 H243       -4.5480  -19.1811  -54.7175 H         1 UNK         0.3800 
    244 H244       -1.2276  -20.7916  -55.2373 H         1 UNK         0.0800 
    245 H245       -2.2669  -20.2653  -53.9512 H         1 UNK         0.0800 
    246 H246       -1.1983  -19.6254  -51.7192 H         1 UNK         0.0800 
    247 H247       -1.4761  -18.0347  -52.3888 H         1 UNK         0.0800 
@<TRIPOS>BOND
     1    1    2 1    
     2    1  127 1    
     3    1  128 1    
     4    1  129 1    
     5    2    3 2    
     6    2    4 am   BACKBONE|DICT|INTERRES
     7    4    5 1    
     8    4  130 1    
     9    5    6 1    
    10    5   65 1    
    11    5  131 1    
    12    6    7 1    
    13    6  132 1    
    14    6  133 1    
    15    7    8 1    
    16    8    9 1    
    17    8  134 1    
    18    8  135 1    
    19    9   10 ar   
    20    9   14 ar   
    21   10   11 ar   
    22   10  136 1    
    23   11   12 ar   
    24   11  126 1    
    25   12   13 ar   
    26   12  137 1    
    27   13   14 ar   
    28   13   15 1    
    29   14  138 1    
    30   15   16 1    
    31   15  139 1    
    32   15  140 1    
    33   16   17 1    
    34   17   18 1    
    35   17  141 1    
    36   17  142 1    
    37   18   19 1    
    38   18   67 1    
    39   18  143 1    
    40   19   20 am   BACKBONE|DICT|INTERRES
    41   19  144 1    
    42   20   21 2    
    43   20   22 1    
    44   22   23 1    
    45   22   24 1    
    46   22  145 1    
    47   23  146 1    
    48   23  147 1    
    49   23  148 1    
    50   24   25 am   BACKBONE|DICT|INTERRES
    51   24  149 1    
    52   25   26 2    
    53   25   27 1    
    54   27   28 1    
    55   27   29 1    
    56   27  150 1    
    57   28  151 1    
    58   28  152 1    
    59   28  153 1    
    60   29   30 am   BACKBONE|DICT|INTERRES
    61   29  154 1    
    62   30   31 2    
    63   30   32 1    
    64   32   33 1    
    65   32   34 1    
    66   32  155 1    
    67   33  156 1    
    68   33  157 1    
    69   33  158 1    
    70   34   35 am   BACKBONE|DICT|INTERRES
    71   34  159 1    
    72   35   36 2    
    73   35   37 1    
    74   37   38 1    
    75   37   39 1    
    76   37  160 1    
    77   38  161 1    
    78   38  162 1    
    79   38  163 1    
    80   39   40 am   BACKBONE|DICT|INTERRES
    81   39  164 1    
    82   40   41 2    
    83   40   42 1    
    84   42   43 1    
    85   42   44 1    
    86   42  165 1    
    87   43  166 1    
    88   43  167 1    
    89   43  168 1    
    90   44   45 am   BACKBONE|DICT|INTERRES
    91   44  169 1    
    92   45   46 2    
    93   45   47 1    
    94   47   48 1    
    95   47   49 1    
    96   47  170 1    
    97   48  171 1    
    98   48  172 1    
    99   48  173 1    
   100   49   50 am   BACKBONE|DICT|INTERRES
   101   49  174 1    
   102   50   51 2    
   103   50   52 1    
   104   52   53 1    
   105   52   54 1    
   106   52  175 1    
   107   53  176 1    
   108   53  177 1    
   109   53  178 1    
   110   54   55 am   BACKBONE|DICT|INTERRES
   111   54  179 1    
   112   55   56 2    
   113   55   57 1    
   114   57   58 1    
   115   57   59 1    
   116   57  180 1    
   117   58  181 1    
   118   58  182 1    
   119   58  183 1    
   120   59   60 am   BACKBONE|DICT|INTERRES
   121   59  184 1    
   122   60   61 2    
   123   60   62 1    
   124   62   63 1    
   125   62   64 1    
   126   62  185 1    
   127   63  186 1    
   128   63  187 1    
   129   63  188 1    
   130   64   65 am   BACKBONE|DICT|INTERRES
   131   64  189 1    
   132   65   66 2    
   133   67   68 2    
   134   67   69 am   BACKBONE|DICT|INTERRES
   135   69   70 1    
   136   69  190 1    
   137   70   71 1    
   138   70   72 1    
   139   70  191 1    
   140   71  192 1    
   141   71  193 1    
   142   71  194 1    
   143   72   73 2    
   144   72   74 am   BACKBONE|DICT|INTERRES
   145   74   75 1    
   146   74  195 1    
   147   75   76 1    
   148   75   77 1    
   149   75  196 1    
   150   76  197 1    
   151   76  198 1    
   152   76  199 1    
   153   77   78 2    
   154   77   79 am   BACKBONE|DICT|INTERRES
   155   79   80 1    
   156   79  200 1    
   157   80   81 1    
   158   80   82 1    
   159   80  201 1    
   160   81  202 1    
   161   81  203 1    
   162   81  204 1    
   163   82   83 2    
   164   82   84 am   BACKBONE|DICT|INTERRES
   165   84   85 1    
   166   84  205 1    
   167   85   86 1    
   168   85   87 1    
   169   85  206 1    
   170   86  207 1    
   171   86  208 1    
   172   86  209 1    
   173   87   88 2    
   174   87   89 am   BACKBONE|DICT|INTERRES
   175   89   90 1    
   176   89  210 1    
   177   90   91 1    
   178   90   92 1    
   179   90  211 1    
   180   91  212 1    
   181   91  213 1    
   182   91  214 1    
   183   92   93 2    
   184   92   94 am   BACKBONE|DICT|INTERRES
   185   94   95 1    
   186   94  215 1    
   187   95   96 1    
   188   95   97 1    
   189   95  216 1    
   190   96  217 1    
   191   96  218 1    
   192   96  219 1    
   193   97   98 2    
   194   97   99 am   BACKBONE|DICT|INTERRES
   195   99  100 1    
   196   99  220 1    
   197  100  101 1    
   198  100  102 1    
   199  100  221 1    
   200  101  222 1    
   201  101  223 1    
   202  101  224 1    
   203  102  103 2    
   204  102  104 am   BACKBONE|DICT|INTERRES
   205  104  105 1    
   206  104  225 1    
   207  105  106 1    
   208  105  107 1    
   209  105  226 1    
   210  106  227 1    
   211  106  228 1    
   212  106  229 1    
   213  107  108 2    
   214  107  109 am   BACKBONE|DICT|INTERRES
   215  109  110 1    
   216  109  230 1    
   217  110  111 1    
   218  110  112 1    
   219  110  231 1    
   220  111  232 1    
   221  111  233 1    
   222  111  234 1    
   223  112  113 2    
   224  112  114 am   BACKBONE|DICT|INTERRES
   225  114  115 1    
   226  114  235 1    
   227  115  116 1    
   228  115  117 1    
   229  115  236 1    
   230  116  237 1    
   231  116  238 1    
   232  116  239 1    
   233  117  118 2    
   234  117  119 am   BACKBONE|DICT|INTERRES
   235  119  120 1    
   236  119  240 1    
   237  120  121 1    
   238  120  124 1    
   239  120  241 1    
   240  121  122 am   BACKBONE|DICT|INTERRES
   241  121  123 2    
   242  122  242 1    
   243  122  243 1    
   244  124  125 1    
   245  124  244 1    
   246  124  245 1    
   247  125  126 1    
   248  126  246 1    
   249  126  247 1    
@<TRIPOS>SUBSTRUCTURE
     1 UNK         1 GROUP             0       ****    0 ROOT    
