@<TRIPOS>MOLECULE
3R540
247   249    1
SMALL
USER_CHARGES


@<TRIPOS>ATOM
      1 CA          4.0206  -12.5086  -50.7612 C.3       0 UNK        -0.1800 
      2 C           3.3616  -13.3856  -49.7060 C.2       0 UNK         0.5000 
      3 O           4.0533  -13.9330  -48.8478 O.2       0 UNK        -0.5000 
      4 N           2.0301  -13.5221  -49.7709 N.am      1 UNK        -0.5000 
      5 CA          1.2144  -14.2970  -48.8291 C.3       1 UNK         0.1400 
      6 C6         -0.2322  -14.4749  -49.3655 C.3       23 UNK        -0.0398 
      7 S7         -1.2922  -15.5531  -48.3368 S.3       23 UNK        -0.2404 
      8 C8         -1.9135  -16.7764  -49.5417 C.3       23 UNK        -0.0205 
      9 C9         -0.8768  -17.7410  -50.1192 C.ar      23 UNK        -0.0193 
     10 C10        -1.2255  -18.4803  -51.2524 C.ar      23 UNK        -0.1150 
     11 C11        -0.3251  -19.3759  -51.8378 C.ar      23 UNK        -0.0193 
     12 C12         0.9551  -19.5063  -51.2913 C.ar      23 UNK        -0.1150 
     13 C13         1.3269  -18.7689  -50.1643 C.ar      23 UNK        -0.0193 
     14 C14         0.3995  -17.9112  -49.5682 C.ar      23 UNK        -0.1150 
     15 C15         2.7480  -18.8538  -49.6256 C.3       23 UNK        -0.0205 
     16 S16         3.0687  -20.3949  -48.7172 S.3       23 UNK        -0.2404 
     17 C17         2.0731  -20.1503  -47.2085 C.3       23 UNK        -0.0398 
     18 CA          1.3128  -21.4287  -46.7926 C.3       11 UNK         0.1400 
     19 N           0.8876  -21.3775  -45.3936 N.am      11 UNK        -0.5000 
     20 C           0.4503  -22.4368  -44.7000 C.2       10 UNK         0.5000 
     21 O           0.3627  -23.5715  -45.1678 O.2       10 UNK        -0.5000 
     22 CA          0.0058  -22.1840  -43.2504 C.3       10 UNK         0.1400 
     23 CB          1.2241  -22.0590  -42.3237 C.3       10 UNK        -0.1800 
     24 N          -0.8455  -21.0022  -43.1152 N.am      10 UNK        -0.5000 
     25 C          -2.0512  -20.8686  -43.6864 C.2       9 UNK         0.5000 
     26 O          -2.5752  -21.7314  -44.3910 O.2       9 UNK        -0.5000 
     27 CA         -2.7832  -19.5340  -43.4620 C.3       9 UNK         0.1400 
     28 CB         -3.3881  -19.4704  -42.0516 C.3       9 UNK        -0.1800 
     29 N          -1.9265  -18.3696  -43.6787 N.am      9 UNK        -0.5000 
     30 C          -1.3307  -18.0652  -44.8414 C.2       8 UNK         0.5000 
     31 O          -1.4293  -18.7373  -45.8676 O.2       8 UNK        -0.5000 
     32 CA         -0.4231  -16.8260  -44.8311 C.3       8 UNK         0.1400 
     33 CB         -1.2608  -15.5419  -44.7045 C.3       8 UNK        -0.1800 
     34 N           0.5562  -16.8748  -43.7477 N.am      8 UNK        -0.5000 
     35 C           1.4576  -17.8476  -43.5533 C.2       7 UNK         0.5000 
     36 O           1.6098  -18.8111  -44.3032 O.2       7 UNK        -0.5000 
     37 CA          2.2930  -17.7568  -42.2666 C.3       7 UNK         0.1400 
     38 CB          3.4448  -16.7536  -42.4303 C.3       7 UNK        -0.1800 
     39 N           1.4789  -17.3978  -41.1039 N.am      7 UNK        -0.5000 
     40 C           0.5141  -18.1709  -40.5833 C.2       6 UNK         0.5000 
     41 O           0.2103  -19.2793  -41.0219 O.2       6 UNK        -0.5000 
     42 CA         -0.2653  -17.5913  -39.3905 C.3       6 UNK         0.1400 
     43 CB          0.5153  -17.7894  -38.0826 C.3       6 UNK        -0.1800 
     44 N          -0.5705  -16.1719  -39.5658 N.am      6 UNK        -0.5000 
     45 C          -1.4337  -15.6933  -40.4724 C.2       5 UNK         0.5000 
     46 O          -2.0917  -16.4022  -41.2354 O.2       5 UNK        -0.5000 
     47 CA         -1.5343  -14.1585  -40.5706 C.3       5 UNK         0.1400 
     48 CB         -2.4723  -13.6042  -39.4878 C.3       5 UNK        -0.1800 
     49 N          -0.2310  -13.4869  -40.4823 N.am      5 UNK        -0.5000 
     50 C           0.7569  -13.6637  -41.3681 C.2       4 UNK         0.5000 
     51 O           0.6749  -14.4350  -42.3274 O.2       4 UNK        -0.5000 
     52 CA          2.0598  -12.8820  -41.1505 C.3       4 UNK         0.1400 
     53 CB          2.9400  -13.5701  -40.0900 C.3       4 UNK        -0.1800 
     54 N           2.7291  -12.8475  -42.4444 N.am      4 UNK        -0.5000 
     55 C           3.8053  -12.1480  -42.8144 C.2       3 UNK         0.5000 
     56 O           4.4643  -11.4339  -42.0582 O.2       3 UNK        -0.5000 
     57 CA          4.1751  -12.2439  -44.3086 C.3       3 UNK         0.1400 
     58 CB          5.0394  -13.4853  -44.5777 C.3       3 UNK        -0.1800 
     59 N           2.9821  -12.2966  -45.1588 N.am      3 UNK        -0.5000 
     60 C           2.1532  -11.2673  -45.3709 C.2       2 UNK         0.5000 
     61 O           2.3907  -10.1219  -44.9824 O.2       2 UNK        -0.5000 
     62 CA          0.8374  -11.5730  -46.1210 C.3       2 UNK         0.1400 
     63 CB          0.0402  -10.3013  -46.4643 C.3       2 UNK        -0.1800 
     64 N           1.0184  -12.3506  -47.3486 N.am      2 UNK        -0.5000 
     65 C           1.2364  -13.6708  -47.4172 C.2       1 UNK         0.5000 
     66 O           1.4662  -14.3755  -46.4337 O.2       1 UNK        -0.5000 
     67 C           0.1387  -21.7581  -47.7370 C.2       11 UNK         0.5000 
     68 O           0.2929  -22.6113  -48.6104 O.2       11 UNK        -0.5000 
     69 N          -1.0286  -21.1390  -47.5062 N.am      12 UNK        -0.5000 
     70 CA         -2.2634  -21.4191  -48.2390 C.3       12 UNK         0.1400 
     71 CB         -3.3505  -20.4272  -47.8025 C.3       12 UNK        -0.1800 
     72 C          -2.7424  -22.8729  -48.0619 C.2       12 UNK         0.5000 
     73 O          -3.1288  -23.5060  -49.0444 O.2       12 UNK        -0.5000 
     74 N          -2.6718  -23.3867  -46.8249 N.am      13 UNK        -0.5000 
     75 CA         -2.9852  -24.7750  -46.4868 C.3       13 UNK         0.1400 
     76 CB         -3.0242  -24.9442  -44.9607 C.3       13 UNK        -0.1800 
     77 C          -2.0065  -25.7766  -47.1259 C.2       13 UNK         0.5000 
     78 O          -2.4508  -26.7821  -47.6798 O.2       13 UNK        -0.5000 
     79 N          -0.7011  -25.4720  -47.0781 N.am      14 UNK        -0.5000 
     80 CA          0.3641  -26.2642  -47.7012 C.3       14 UNK         0.1400 
     81 CB          1.7326  -25.7141  -47.2725 C.3       14 UNK        -0.1800 
     82 C           0.2579  -26.3180  -49.2374 C.2       14 UNK         0.5000 
     83 O           0.5596  -27.3525  -49.8332 O.2       14 UNK        -0.5000 
     84 N          -0.2063  -25.2181  -49.8441 N.am      15 UNK        -0.5000 
     85 CA         -0.4907  -25.0939  -51.2739 C.3       15 UNK         0.1400 
     86 CB         -0.4933  -23.6055  -51.6420 C.3       15 UNK        -0.1800 
     87 C          -1.8051  -25.7781  -51.7134 C.2       15 UNK         0.5000 
     88 O          -2.0892  -25.8138  -52.9118 O.2       15 UNK        -0.5000 
     89 N          -2.5756  -26.3096  -50.7532 N.am      16 UNK        -0.5000 
     90 CA         -3.7892  -27.1255  -50.8684 C.3       16 UNK         0.1400 
     91 CB         -3.5226  -28.4206  -51.6589 C.3       16 UNK        -0.1800 
     92 C          -5.0312  -26.3904  -51.4034 C.2       16 UNK         0.5000 
     93 O          -6.0938  -26.4929  -50.7888 O.2       16 UNK        -0.5000 
     94 N          -4.8979  -25.6799  -52.5309 N.am      17 UNK        -0.5000 
     95 CA         -5.9908  -24.9400  -53.1703 C.3       17 UNK         0.1400 
     96 CB         -5.6099  -24.5960  -54.6181 C.3       17 UNK        -0.1800 
     97 C          -6.3961  -23.6770  -52.3869 C.2       17 UNK         0.5000 
     98 O          -7.5728  -23.3131  -52.4054 O.2       17 UNK        -0.5000 
     99 N          -5.4206  -23.0718  -51.6914 N.am      18 UNK        -0.5000 
    100 CA        -5.5346  -21.9078  -50.8077 C.3       18 UNK         0.1400 
    101 CB        -6.4066  -22.2636  -49.5817 C.3       18 UNK        -0.1800 
    102 C         -6.0012  -20.6159  -51.5138 C.2       18 UNK         0.5000 
    103 O         -6.1068  -20.5758  -52.7421 O.2       18 UNK        -0.5000 
    104 N         -6.2424  -19.5662  -50.7115 N.am      19 UNK        -0.5000 
    105 CA        -6.7044  -18.2322  -51.1098 C.3       19 UNK         0.1400 
    106 CB        -8.2054  -18.2889  -51.4759 C.3       19 UNK        -0.1800 
    107 C         -5.8059  -17.6174  -52.2049 C.2       19 UNK         0.5000 
    108 O         -4.6083  -17.4512  -51.9723 O.2       19 UNK        -0.5000 
    109 N         -6.3882  -17.3242  -53.3727 N.am      20 UNK        -0.5000 
    110 CA        -5.6802  -16.9378  -54.5924 C.3       20 UNK         0.1400 
    111 CB        -6.3349  -15.6644  -55.1535 C.3       20 UNK        -0.1800 
    112 C         -5.6985  -18.0667  -55.6438 C.2       20 UNK         0.5000 
    113 O         -5.1006  -17.9009  -56.7079 O.2       20 UNK        -0.5000 
    114 N         -6.3727  -19.1915  -55.3539 N.am      21 UNK        -0.5000 
    115 CA        -6.5522  -20.3196  -56.2730 C.3       21 UNK         0.1400 
    116 CB        -7.6287  -21.2680  -55.7238 C.3       21 UNK        -0.1800 
    117 C         -5.2449  -21.0786  -56.5601 C.2       21 UNK         0.5000 
    118 O         -5.0874  -21.6163  -57.6569 O.2       21 UNK        -0.5000 
    119 N         -4.3198  -21.0715  -55.5928 N.am      22 UNK        -0.5000 
    120 CA        -2.9335  -21.5295  -55.7638 C.3       22 UNK         0.1400 
    121 C         -2.0002  -20.5267  -56.5107 C.2       22 UNK         0.5000 
    122 N         -2.4505  -19.3407  -56.9052 N.am      22 UNK        -0.7600 
    123 O         -0.8380  -20.8388  -56.7546 O.2       22 UNK        -0.5000 
    124 C124       -2.3143  -22.0332  -54.4349 C.3       23 UNK        -0.0398 
    125 S125       -2.3890  -20.8502  -53.0454 S.3       23 UNK        -0.2404 
    126 C126       -0.6970  -20.1668  -53.0878 C.3       23 UNK        -0.0205 
    127 H127        3.2918  -12.0936  -51.4578 H         1 UNK         0.0600 
    128 H128        4.5457  -11.6804  -50.2852 H         1 UNK         0.0600 
    129 H129        4.7446  -13.0894  -51.3326 H         1 UNK         0.0600 
    130 H130        1.5267  -13.0523  -50.5100 H         1 UNK         0.3000 
    131 H131        1.6706  -15.2852  -48.7499 H         1 UNK         0.0600 
    132 H132       -0.1932  -14.8871  -50.3748 H         1 UNK         0.0800 
    133 H133       -0.7286  -13.5078  -49.4600 H         1 UNK         0.0800 
    134 H134       -2.6937  -17.3623  -49.0567 H         1 UNK         0.0800 
    135 H135       -2.4017  -16.2386  -50.3562 H         1 UNK         0.0800 
    136 H136       -2.2075  -18.3547  -51.6851 H         1 UNK         0.1150 
    137 H137        1.6727  -20.1722  -51.7497 H         1 UNK         0.1150 
    138 H138        0.6898  -17.3645  -48.6845 H         1 UNK         0.1150 
    139 H139        3.4475  -18.7901  -50.4603 H         1 UNK         0.0800 
    140 H140        2.9712  -18.0017  -48.9812 H         1 UNK         0.0800 
    141 H141        1.3878  -19.3085  -47.3142 H         1 UNK         0.0800 
    142 H142        2.7741  -19.8662  -46.4229 H         1 UNK         0.0800 
    143 H143        2.0171  -22.2608  -46.8625 H         1 UNK         0.0600 
    144 H144        0.9491  -20.4717  -44.9346 H         1 UNK         0.3000 
    145 H145       -0.5763  -23.0499  -42.9283 H         1 UNK         0.0600 
    146 H146        0.9182  -21.9845  -41.2801 H         1 UNK         0.0600 
    147 H147        1.8736  -22.9309  -42.4104 H         1 UNK         0.0600 
    148 H148        1.8213  -21.1777  -42.5607 H         1 UNK         0.0600 
    149 H149       -0.4913  -20.2548  -42.5241 H         1 UNK         0.3000 
    150 H150       -3.6000  -19.4804  -44.1847 H         1 UNK         0.0600 
    151 H151       -4.0412  -20.3242  -41.8670 H         1 UNK         0.0600 
    152 H152       -3.9861  -18.5684  -41.9205 H         1 UNK         0.0600 
    153 H153       -2.6164  -19.4726  -41.2810 H         1 UNK         0.0600 
    154 H154       -1.7858  -17.7562  -42.8837 H         1 UNK         0.3000 
    155 H155        0.1214  -16.7966  -45.7770 H         1 UNK         0.0600 
    156 H156       -1.7595  -15.4756  -43.7381 H         1 UNK         0.0600 
    157 H157       -2.0339  -15.4980  -45.4715 H         1 UNK         0.0600 
    158 H158       -0.6406  -14.6532  -44.8159 H         1 UNK         0.0600 
    159 H159        0.5377  -16.0917  -43.0987 H         1 UNK         0.3000 
    160 H160        2.7259  -18.7420  -42.0807 H         1 UNK         0.0600 
    161 H161        4.0833  -17.0296  -43.2705 H         1 UNK         0.0600 
    162 H162        4.0741  -16.7247  -41.5409 H         1 UNK         0.0600 
    163 H163        3.0793  -15.7445  -42.6184 H         1 UNK         0.0600 
    164 H164        1.6308  -16.4842  -40.7064 H         1 UNK         0.3000 
    165 H165       -1.2080  -18.1372  -39.3110 H         1 UNK         0.0600 
    166 H166       -0.0629  -17.4487  -37.2235 H         1 UNK         0.0600 
    167 H167        0.7439  -18.8438  -37.9215 H         1 UNK         0.0600 
    168 H168        1.4607  -17.2455  -38.0884 H         1 UNK         0.0600 
    169 H169       -0.0717  -15.5180  -38.9810 H         1 UNK         0.3000 
    170 H170       -1.9654  -13.9216  -41.5457 H         1 UNK         0.0600 
    171 H171       -3.4534  -14.0782  -39.5417 H         1 UNK         0.0600 
    172 H172       -2.0791  -13.7763  -38.4852 H         1 UNK         0.0600 
    173 H173       -2.6244  -12.5316  -39.6096 H         1 UNK         0.0600 
    174 H174       -0.1010  -12.8438  -39.7145 H         1 UNK         0.3000 
    175 H175        1.8211  -11.8624  -40.8429 H         1 UNK         0.0600 
    176 H176        2.4210  -13.6372  -39.1332 H         1 UNK         0.0600 
    177 H177        3.2142  -14.5823  -40.3866 H         1 UNK         0.0600 
    178 H178        3.8611  -13.0148  -39.9145 H         1 UNK         0.0600 
    179 H179        2.2442  -13.4004  -43.1417 H         1 UNK         0.3000 
    180 H180        4.7544  -11.3567  -44.5727 H         1 UNK         0.0600 
    181 H181        4.5020  -14.4078  -44.3549 H         1 UNK         0.0600 
    182 H182        5.9419  -13.4734  -43.9653 H         1 UNK         0.0600 
    183 H183        5.3537  -13.5263  -45.6210 H         1 UNK         0.0600 
    184 H184        2.7048  -13.2036  -45.5237 H         1 UNK         0.3000 
    185 H185        0.2252  -12.1631  -45.4354 H         1 UNK         0.0600 
    186 H186       -0.1874   -9.7245  -45.5669 H         1 UNK         0.0600 
    187 H187        0.5934   -9.6512  -47.1431 H         1 UNK         0.0600 
    188 H188       -0.9115  -10.5475  -46.9358 H         1 UNK         0.0600 
    189 H189        0.9136  -11.8401  -48.2128 H         1 UNK         0.3000 
    190 H190       -1.0850  -20.4276  -46.7823 H         1 UNK         0.3000 
    191 H191       -2.0616  -21.2594  -49.3007 H         1 UNK         0.0600 
    192 H192       -3.5771  -20.5195  -46.7398 H         1 UNK         0.0600 
    193 H193       -4.2760  -20.5867  -48.3510 H         1 UNK         0.0600 
    194 H194       -3.0390  -19.4004  -47.9875 H         1 UNK         0.0600 
    195 H195       -2.3871  -22.7857  -46.0569 H         1 UNK         0.3000 
    196 H196       -3.9820  -24.9940  -46.8753 H         1 UNK         0.0600 
    197 H197       -2.0666  -24.6966  -44.5020 H         1 UNK         0.0600 
    198 H198       -3.2646  -25.9722  -44.6870 H         1 UNK         0.0600 
    199 H199       -3.7837  -24.3027  -44.5137 H         1 UNK         0.0600 
    200 H200       -0.4077  -24.6477  -46.5601 H         1 UNK         0.3000 
    201 H201        0.2775  -27.2870  -47.3290 H         1 UNK         0.0600 
    202 H202        1.8493  -25.7473  -46.1892 H         1 UNK         0.0600 
    203 H203        1.8682  -24.6807  -47.5924 H         1 UNK         0.0600 
    204 H204        2.5434  -26.3014  -47.7051 H         1 UNK         0.0600 
    205 H205       -0.3552  -24.3835  -49.2841 H         1 UNK         0.3000 
    206 H206        0.3196  -25.5738  -51.8262 H         1 UNK         0.0600 
    207 H207       -1.3161  -23.0727  -51.1643 H         1 UNK         0.0600 
    208 H208       -0.5906  -23.4803  -52.7182 H         1 UNK         0.0600 
    209 H209        0.4366  -23.1193  -51.3462 H         1 UNK         0.0600 
    210 H210       -2.2687  -26.1686  -49.7985 H         1 UNK         0.3000 
    211 H211       -4.0282  -27.4216  -49.8459 H         1 UNK         0.0600 
    212 H212       -3.2792  -28.2212  -52.7028 H         1 UNK         0.0600 
    213 H213       -4.3995  -29.0691  -51.6485 H         1 UNK         0.0600 
    214 H214       -2.6969  -28.9837  -51.2235 H         1 UNK         0.0600 
    215 H215       -3.9785  -25.6481  -52.9636 H         1 UNK         0.3000 
    216 H216       -6.8637  -25.5954  -53.2061 H         1 UNK         0.0600 
    217 H217       -6.4392  -24.1095  -55.1325 H         1 UNK         0.0600 
    218 H218       -5.3581  -25.4924  -55.1848 H         1 UNK         0.0600 
    219 H219       -4.7593  -23.9198  -54.6640 H         1 UNK         0.0600 
    220 H220       -4.4954  -23.4700  -51.7535 H         1 UNK         0.3000 
    221 H221       -4.5211  -21.7054  -50.4626 H         1 UNK         0.0600 
    222 H222       -7.4505  -22.4131  -49.8587 H         1 UNK         0.0600 
    223 H223       -6.0546  -23.1800  -49.1071 H         1 UNK         0.0600 
    224 H224       -6.3840  -21.4850  -48.8203 H         1 UNK         0.0600 
    225 H225       -6.0897  -19.6833  -49.7211 H         1 UNK         0.3000 
    226 H226       -6.5998  -17.5891  -50.2347 H         1 UNK         0.0600 
    227 H227       -8.7921  -18.6696  -50.6397 H         1 UNK         0.0600 
    228 H228       -8.5955  -17.2975  -51.7100 H         1 UNK         0.0600 
    229 H229       -8.3978  -18.9394  -52.3301 H         1 UNK         0.0600 
    230 H230       -7.3820  -17.4789  -53.4646 H         1 UNK         0.3000 
    231 H231       -4.6325  -16.7174  -54.3782 H         1 UNK         0.0600 
    232 H232       -5.8178  -15.3183  -56.0495 H         1 UNK         0.0600 
    233 H233       -6.3003  -14.8522  -54.4271 H         1 UNK         0.0600 
    234 H234       -7.3792  -15.8319  -55.4203 H         1 UNK         0.0600 
    235 H235       -6.7093  -19.3314  -54.4092 H         1 UNK         0.3000 
    236 H236       -6.9116  -19.9193  -57.2233 H         1 UNK         0.0600 
    237 H237       -7.8201  -22.0850  -56.4204 H         1 UNK         0.0600 
    238 H238       -7.3299  -21.7127  -54.7748 H         1 UNK         0.0600 
    239 H239       -8.5728  -20.7463  -55.5669 H         1 UNK         0.0600 
    240 H240       -4.5391  -20.6249  -54.7117 H         1 UNK         0.3000 
    241 H241       -2.9667  -22.4013  -56.4200 H         1 UNK         0.0600 
    242 H242       -1.8244  -18.7200  -57.3928 H         1 UNK         0.3800 
    243 H243       -3.4099  -19.0548  -56.7529 H         1 UNK         0.3800 
    244 H244       -2.8361  -22.9313  -54.1084 H         1 UNK         0.0800 
    245 H245       -1.2857  -22.3570  -54.5978 H         1 UNK         0.0800 
    246 H246       -0.5961  -19.5165  -53.9573 H         1 UNK         0.0800 
    247 H247        0.0105  -20.9854  -53.2258 H         1 UNK         0.0800 
@<TRIPOS>BOND
     1    1    2 1    
     2    1  127 1    
     3    1  128 1    
     4    1  129 1    
     5    2    3 2    
     6    2    4 am   BACKBONE|DICT|INTERRES
     7    4    5 1    
     8    4  130 1    
     9    5    6 1    
    10    5   65 1    
    11    5  131 1    
    12    6    7 1    
    13    6  132 1    
    14    6  133 1    
    15    7    8 1    
    16    8    9 1    
    17    8  134 1    
    18    8  135 1    
    19    9   10 ar   
    20    9   14 ar   
    21   10   11 ar   
    22   10  136 1    
    23   11   12 ar   
    24   11  126 1    
    25   12   13 ar   
    26   12  137 1    
    27   13   14 ar   
    28   13   15 1    
    29   14  138 1    
    30   15   16 1    
    31   15  139 1    
    32   15  140 1    
    33   16   17 1    
    34   17   18 1    
    35   17  141 1    
    36   17  142 1    
    37   18   19 1    
    38   18   67 1    
    39   18  143 1    
    40   19   20 am   BACKBONE|DICT|INTERRES
    41   19  144 1    
    42   20   21 2    
    43   20   22 1    
    44   22   23 1    
    45   22   24 1    
    46   22  145 1    
    47   23  146 1    
    48   23  147 1    
    49   23  148 1    
    50   24   25 am   BACKBONE|DICT|INTERRES
    51   24  149 1    
    52   25   26 2    
    53   25   27 1    
    54   27   28 1    
    55   27   29 1    
    56   27  150 1    
    57   28  151 1    
    58   28  152 1    
    59   28  153 1    
    60   29   30 am   BACKBONE|DICT|INTERRES
    61   29  154 1    
    62   30   31 2    
    63   30   32 1    
    64   32   33 1    
    65   32   34 1    
    66   32  155 1    
    67   33  156 1    
    68   33  157 1    
    69   33  158 1    
    70   34   35 am   BACKBONE|DICT|INTERRES
    71   34  159 1    
    72   35   36 2    
    73   35   37 1    
    74   37   38 1    
    75   37   39 1    
    76   37  160 1    
    77   38  161 1    
    78   38  162 1    
    79   38  163 1    
    80   39   40 am   BACKBONE|DICT|INTERRES
    81   39  164 1    
    82   40   41 2    
    83   40   42 1    
    84   42   43 1    
    85   42   44 1    
    86   42  165 1    
    87   43  166 1    
    88   43  167 1    
    89   43  168 1    
    90   44   45 am   BACKBONE|DICT|INTERRES
    91   44  169 1    
    92   45   46 2    
    93   45   47 1    
    94   47   48 1    
    95   47   49 1    
    96   47  170 1    
    97   48  171 1    
    98   48  172 1    
    99   48  173 1    
   100   49   50 am   BACKBONE|DICT|INTERRES
   101   49  174 1    
   102   50   51 2    
   103   50   52 1    
   104   52   53 1    
   105   52   54 1    
   106   52  175 1    
   107   53  176 1    
   108   53  177 1    
   109   53  178 1    
   110   54   55 am   BACKBONE|DICT|INTERRES
   111   54  179 1    
   112   55   56 2    
   113   55   57 1    
   114   57   58 1    
   115   57   59 1    
   116   57  180 1    
   117   58  181 1    
   118   58  182 1    
   119   58  183 1    
   120   59   60 am   BACKBONE|DICT|INTERRES
   121   59  184 1    
   122   60   61 2    
   123   60   62 1    
   124   62   63 1    
   125   62   64 1    
   126   62  185 1    
   127   63  186 1    
   128   63  187 1    
   129   63  188 1    
   130   64   65 am   BACKBONE|DICT|INTERRES
   131   64  189 1    
   132   65   66 2    
   133   67   68 2    
   134   67   69 am   BACKBONE|DICT|INTERRES
   135   69   70 1    
   136   69  190 1    
   137   70   71 1    
   138   70   72 1    
   139   70  191 1    
   140   71  192 1    
   141   71  193 1    
   142   71  194 1    
   143   72   73 2    
   144   72   74 am   BACKBONE|DICT|INTERRES
   145   74   75 1    
   146   74  195 1    
   147   75   76 1    
   148   75   77 1    
   149   75  196 1    
   150   76  197 1    
   151   76  198 1    
   152   76  199 1    
   153   77   78 2    
   154   77   79 am   BACKBONE|DICT|INTERRES
   155   79   80 1    
   156   79  200 1    
   157   80   81 1    
   158   80   82 1    
   159   80  201 1    
   160   81  202 1    
   161   81  203 1    
   162   81  204 1    
   163   82   83 2    
   164   82   84 am   BACKBONE|DICT|INTERRES
   165   84   85 1    
   166   84  205 1    
   167   85   86 1    
   168   85   87 1    
   169   85  206 1    
   170   86  207 1    
   171   86  208 1    
   172   86  209 1    
   173   87   88 2    
   174   87   89 am   BACKBONE|DICT|INTERRES
   175   89   90 1    
   176   89  210 1    
   177   90   91 1    
   178   90   92 1    
   179   90  211 1    
   180   91  212 1    
   181   91  213 1    
   182   91  214 1    
   183   92   93 2    
   184   92   94 am   BACKBONE|DICT|INTERRES
   185   94   95 1    
   186   94  215 1    
   187   95   96 1    
   188   95   97 1    
   189   95  216 1    
   190   96  217 1    
   191   96  218 1    
   192   96  219 1    
   193   97   98 2    
   194   97   99 am   BACKBONE|DICT|INTERRES
   195   99  100 1    
   196   99  220 1    
   197  100  101 1    
   198  100  102 1    
   199  100  221 1    
   200  101  222 1    
   201  101  223 1    
   202  101  224 1    
   203  102  103 2    
   204  102  104 am   BACKBONE|DICT|INTERRES
   205  104  105 1    
   206  104  225 1    
   207  105  106 1    
   208  105  107 1    
   209  105  226 1    
   210  106  227 1    
   211  106  228 1    
   212  106  229 1    
   213  107  108 2    
   214  107  109 am   BACKBONE|DICT|INTERRES
   215  109  110 1    
   216  109  230 1    
   217  110  111 1    
   218  110  112 1    
   219  110  231 1    
   220  111  232 1    
   221  111  233 1    
   222  111  234 1    
   223  112  113 2    
   224  112  114 am   BACKBONE|DICT|INTERRES
   225  114  115 1    
   226  114  235 1    
   227  115  116 1    
   228  115  117 1    
   229  115  236 1    
   230  116  237 1    
   231  116  238 1    
   232  116  239 1    
   233  117  118 2    
   234  117  119 am   BACKBONE|DICT|INTERRES
   235  119  120 1    
   236  119  240 1    
   237  120  121 1    
   238  120  124 1    
   239  120  241 1    
   240  121  122 am   BACKBONE|DICT|INTERRES
   241  121  123 2    
   242  122  242 1    
   243  122  243 1    
   244  124  125 1    
   245  124  244 1    
   246  124  245 1    
   247  125  126 1    
   248  126  246 1    
   249  126  247 1    
@<TRIPOS>SUBSTRUCTURE
     1 UNK         1 GROUP             0       ****    0 ROOT    
