@<TRIPOS>MOLECULE
3R540
247   249    1
SMALL
USER_CHARGES


@<TRIPOS>ATOM
      1 CA          8.3208  -15.3758  -45.9896 C.3       0 UNK        -0.1800 
      2 C           6.9276  -15.0863  -45.4502 C.2       0 UNK         0.5000 
      3 O           6.6062  -15.4858  -44.3302 O.2       0 UNK        -0.5000 
      4 N           6.0990  -14.3881  -46.2363 N.am      1 UNK        -0.5000 
      5 CA          4.7238  -14.0120  -45.8958 C.3       1 UNK         0.1400 
      6 C6          3.8524  -13.8034  -47.1618 C.3       23 UNK        -0.0398 
      7 S7          3.2279  -15.3832  -47.8090 S.3       23 UNK        -0.2404 
      8 C8          4.3878  -15.7409  -49.1537 C.3       23 UNK        -0.0205 
      9 C9          4.0126  -17.0540  -49.8164 C.ar      23 UNK        -0.0193 
     10 C10         3.2349  -17.0629  -50.9768 C.ar      23 UNK        -0.1150 
     11 C11         2.8755  -18.2722  -51.5775 C.ar      23 UNK        -0.0193 
     12 C12         3.3035  -19.4763  -51.0121 C.ar      23 UNK        -0.1150 
     13 C13         4.0557  -19.4816  -49.8320 C.ar      23 UNK        -0.0193 
     14 C14         4.4169  -18.2645  -49.2478 C.ar      23 UNK        -0.1150 
     15 C15         4.4851  -20.7892  -49.1752 C.3       23 UNK        -0.0205 
     16 S16         3.1477  -22.0240  -49.0579 S.3       23 UNK        -0.2404 
     17 C17         1.8446  -21.1013  -48.1682 C.3       23 UNK        -0.0398 
     18 CA          0.7914  -22.0374  -47.5276 C.3       11 UNK         0.1400 
     19 N          -0.0398  -21.3386  -46.5420 N.am      11 UNK        -0.5000 
     20 C          -0.9004  -21.9425  -45.7090 C.2       10 UNK         0.5000 
     21 O          -1.0430  -23.1634  -45.6426 O.2       10 UNK        -0.5000 
     22 CA         -1.7868  -21.0322  -44.8391 C.3       10 UNK         0.1400 
     23 CB         -1.0173  -20.5213  -43.6123 C.3       10 UNK        -0.1800 
     24 N          -2.3361  -19.9027  -45.5904 N.am      10 UNK        -0.5000 
     25 C          -3.2050  -20.0254  -46.6037 C.2       9 UNK         0.5000 
     26 O          -3.6825  -21.0979  -46.9709 O.2       9 UNK        -0.5000 
     27 CA         -3.5741  -18.7479  -47.3741 C.3       9 UNK         0.1400 
     28 CB         -4.6940  -17.9776  -46.6606 C.3       9 UNK        -0.1800 
     29 N          -2.4291  -17.8668  -47.6040 N.am      9 UNK        -0.5000 
     30 C          -1.3443  -18.1889  -48.3251 C.2       8 UNK         0.5000 
     31 O          -1.2195  -19.2556  -48.9225 O.2       8 UNK        -0.5000 
     32 CA         -0.1885  -17.1727  -48.3362 C.3       8 UNK         0.1400 
     33 CB         -0.4681  -16.0298  -49.3229 C.3       8 UNK        -0.1800 
     34 N           0.0667  -16.6310  -47.0007 N.am      8 UNK        -0.5000 
     35 C           0.4879  -17.3692  -45.9633 C.2       7 UNK         0.5000 
     36 O           0.7590  -18.5680  -46.0419 O.2       7 UNK        -0.5000 
     37 CA          0.5543  -16.6687  -44.5958 C.3       7 UNK         0.1400 
     38 CB          1.8841  -15.9270  -44.4097 C.3       7 UNK        -0.1800 
     39 N          -0.5651  -15.7464  -44.4048 N.am      7 UNK        -0.5000 
     40 C          -1.8236  -16.1443  -44.1705 C.2       6 UNK         0.5000 
     41 O          -2.1510  -17.3237  -44.0407 O.2       6 UNK        -0.5000 
     42 CA         -2.9038  -15.0485  -44.1177 C.3       6 UNK         0.1400 
     43 CB         -3.0216  -14.4662  -42.7025 C.3       6 UNK        -0.1800 
     44 N          -2.6577  -13.9707  -45.0776 N.am      6 UNK        -0.5000 
     45 C          -2.7569  -14.1224  -46.4067 C.2       5 UNK         0.5000 
     46 O          -3.0883  -15.1769  -46.9449 O.2       5 UNK        -0.5000 
     47 CA         -2.3913  -12.9185  -47.2945 C.3       5 UNK         0.1400 
     48 CB         -3.6473  -12.1041  -47.6361 C.3       5 UNK        -0.1800 
     49 N          -1.3820  -12.0293  -46.7182 N.am      5 UNK        -0.5000 
     50 C          -0.1417  -12.3891  -46.3621 C.2       4 UNK         0.5000 
     51 O           0.2809  -13.5442  -46.4471 O.2       4 UNK        -0.5000 
     52 CA          0.7788  -11.2881  -45.7936 C.3       4 UNK         0.1400 
     53 CB          0.1475   -9.8775  -45.7674 C.3       4 UNK        -0.1800 
     54 N           1.2913  -11.6377  -44.4664 N.am      4 UNK        -0.5000 
     55 C           0.5725  -11.9231  -43.3685 C.2       3 UNK         0.5000 
     56 O          -0.6594  -11.9423  -43.3522 O.2       3 UNK        -0.5000 
     57 CA          1.3482  -12.2560  -42.0750 C.3       3 UNK         0.1400 
     58 CB          0.7536  -13.4829  -41.3620 C.3       3 UNK        -0.1800 
     59 N           2.7735  -12.4932  -42.3230 N.am      3 UNK        -0.5000 
     60 C           3.7437  -11.5765  -42.1984 C.2       2 UNK         0.5000 
     61 O           3.5549  -10.4269  -41.8006 O.2       2 UNK        -0.5000 
     62 CA          5.1609  -12.0092  -42.6279 C.3       2 UNK         0.1400 
     63 CB          5.9400  -12.5706  -41.4294 C.3       2 UNK        -0.1800 
     64 N           5.1636  -13.0013  -43.7078 N.am      2 UNK        -0.5000 
     65 C           4.7003  -12.7950  -44.9474 C.2       1 UNK         0.5000 
     66 O           4.2524  -11.7130  -45.3297 O.2       1 UNK        -0.5000 
     67 C          -0.0700  -22.7581  -48.5889 C.2       11 UNK         0.5000 
     68 O           0.1906  -23.9221  -48.8949 O.2       11 UNK        -0.5000 
     69 N          -1.1122  -22.0790  -49.0892 N.am      12 UNK        -0.5000 
     70 CA         -2.0951  -22.6387  -50.0144 C.3       12 UNK         0.1400 
     71 CB         -3.0445  -21.5327  -50.4976 C.3       12 UNK        -0.1800 
     72 C          -2.8692  -23.8167  -49.3975 C.2       12 UNK         0.5000 
     73 O          -2.9816  -24.8611  -50.0366 O.2       12 UNK        -0.5000 
     74 N          -3.3352  -23.6616  -48.1496 N.am      13 UNK        -0.5000 
     75 CA         -4.0178  -24.7072  -47.3858 C.3       13 UNK         0.1400 
     76 CB         -4.5589  -24.1275  -46.0709 C.3       13 UNK        -0.1800 
     77 C          -3.1382  -25.9429  -47.1241 C.2       13 UNK         0.5000 
     78 O          -3.6307  -27.0649  -47.2409 O.2       13 UNK        -0.5000 
     79 N          -1.8449  -25.7288  -46.8430 N.am      14 UNK        -0.5000 
     80 CA         -0.8377  -26.7874  -46.7151 C.3       14 UNK         0.1400 
     81 CB          0.4672  -26.1912  -46.1662 C.3       14 UNK        -0.1800 
     82 C          -0.5844  -27.5488  -48.0341 C.2       14 UNK         0.5000 
     83 O          -0.2575  -28.7351  -47.9962 O.2       14 UNK        -0.5000 
     84 N          -0.7851  -26.8704  -49.1716 N.am      15 UNK        -0.5000 
     85 CA         -0.7522  -27.4333  -50.5233 C.3       15 UNK         0.1400 
     86 CB         -0.2455  -26.3520  -51.4937 C.3       15 UNK        -0.1800 
     87 C          -2.1180  -28.0030  -50.9748 C.2       15 UNK         0.5000 
     88 O          -2.2518  -28.3820  -52.1390 O.2       15 UNK        -0.5000 
     89 N          -3.0998  -28.0566  -50.0605 N.am      16 UNK        -0.5000 
     90 CA         -4.4706  -28.5570  -50.2208 C.3       16 UNK         0.1400 
     91 CB         -4.4884  -30.0306  -50.6792 C.3       16 UNK        -0.1800 
     92 C          -5.3911  -27.6549  -51.0711 C.2       16 UNK         0.5000 
     93 O          -6.4774  -28.0909  -51.4561 O.2       16 UNK        -0.5000 
     94 N          -4.9868  -26.4012  -51.3055 N.am      17 UNK        -0.5000 
     95 CA         -5.7870  -25.3538  -51.9343 C.3       17 UNK         0.1400 
     96 CB         -4.9030  -24.5873  -52.9343 C.3       17 UNK        -0.1800 
     97 C          -6.3461  -24.4594  -50.8146 C.2       17 UNK         0.5000 
     98 O          -5.8761  -23.3364  -50.6268 O.2       17 UNK        -0.5000 
     99 N          -7.2892  -25.0276  -50.0482 N.am      18 UNK        -0.5000 
    100 CA        -7.8845  -24.5286  -48.8031 C.3       18 UNK         0.1400 
    101 CB        -9.1274  -25.3763  -48.4835 C.3       18 UNK        -0.1800 
    102 C         -8.2121  -23.0212  -48.7909 C.2       18 UNK         0.5000 
    103 O         -9.2795  -22.6175  -49.2561 O.2       18 UNK        -0.5000 
    104 N         -7.2642  -22.2321  -48.2637 N.am      19 UNK        -0.5000 
    105 CA        -7.2912  -20.7747  -48.1174 C.3       19 UNK         0.1400 
    106 CB        -8.3481  -20.3519  -47.0767 C.3       19 UNK        -0.1800 
    107 C         -7.4166  -20.0079  -49.4526 C.2       19 UNK         0.5000 
    108 O         -7.9817  -18.9137  -49.4789 O.2       19 UNK        -0.5000 
    109 N         -6.8677  -20.5757  -50.5375 N.am      20 UNK        -0.5000 
    110 CA        -6.8985  -19.9939  -51.8849 C.3       20 UNK         0.1400 
    111 CB        -6.5452  -21.0838  -52.9079 C.3       20 UNK        -0.1800 
    112 C         -5.9749  -18.7711  -52.0663 C.2       20 UNK         0.5000 
    113 O         -6.0816  -18.0836  -53.0833 O.2       20 UNK        -0.5000 
    114 N         -5.0675  -18.5417  -51.1035 N.am      21 UNK        -0.5000 
    115 CA        -4.1111  -17.4279  -51.0255 C.3       21 UNK         0.1400 
    116 CB        -4.8425  -16.1092  -50.7057 C.3       21 UNK        -0.1800 
    117 C         -3.1808  -17.3263  -52.2519 C.2       21 UNK         0.5000 
    118 O         -2.8119  -16.2258  -52.6640 O.2       21 UNK        -0.5000 
    119 N         -2.8388  -18.4939  -52.8119 N.am      22 UNK        -0.5000 
    120 CA        -2.0218  -18.6863  -54.0216 C.3       22 UNK         0.1400 
    121 C         -2.7261  -18.2599  -55.3473 C.2       22 UNK         0.5000 
    122 N         -4.0285  -17.9953  -55.3597 N.am      22 UNK        -0.7600 
    123 O         -2.0898  -18.1989  -56.3958 O.2       22 UNK        -0.5000 
    124 C124       -0.5826  -18.1076  -53.8985 C.3       23 UNK        -0.0398 
    125 S125        0.2792  -18.6554  -52.3857 S.3       23 UNK        -0.2404 
    126 C126        2.0024  -18.2785  -52.8203 C.3       23 UNK        -0.0205 
    127 H127        8.4639  -14.9607  -46.9874 H         1 UNK         0.0600 
    128 H128        8.4857  -16.4517  -46.0423 H         1 UNK         0.0600 
    129 H129        9.0749  -14.9459  -45.3307 H         1 UNK         0.0600 
    130 H130        6.4345  -14.0556  -47.1287 H         1 UNK         0.3000 
    131 H131        4.2867  -14.8315  -45.3247 H         1 UNK         0.0600 
    132 H132        4.3871  -13.2487  -47.9341 H         1 UNK         0.0800 
    133 H133        2.9607  -13.2186  -46.9360 H         1 UNK         0.0800 
    134 H134        4.3738  -14.9263  -49.8795 H         1 UNK         0.0800 
    135 H135        5.4036  -15.7983  -48.7605 H         1 UNK         0.0800 
    136 H136        2.8984  -16.1287  -51.4040 H         1 UNK         0.1150 
    137 H137        3.0197  -20.4113  -51.4745 H         1 UNK         0.1150 
    138 H138        5.0006  -18.2544  -48.3378 H         1 UNK         0.1150 
    139 H139        5.3076  -21.2154  -49.7507 H         1 UNK         0.0800 
    140 H140        4.8725  -20.6067  -48.1716 H         1 UNK         0.0800 
    141 H141        1.3747  -20.3886  -48.8487 H         1 UNK         0.0800 
    142 H142        2.3270  -20.5053  -47.3920 H         1 UNK         0.0800 
    143 H143        1.3313  -22.8106  -46.9763 H         1 UNK         0.0600 
    144 H144        0.0504  -20.3271  -46.5039 H         1 UNK         0.3000 
    145 H145       -2.6262  -21.6323  -44.4818 H         1 UNK         0.0600 
    146 H146       -1.6616  -19.9294  -42.9619 H         1 UNK         0.0600 
    147 H147       -0.6327  -21.3526  -43.0202 H         1 UNK         0.0600 
    148 H148       -0.1678  -19.9005  -43.8956 H         1 UNK         0.0600 
    149 H149       -2.0348  -18.9762  -45.3096 H         1 UNK         0.3000 
    150 H150       -3.9530  -19.0616  -48.3471 H         1 UNK         0.0600 
    151 H151       -5.5514  -18.6193  -46.4572 H         1 UNK         0.0600 
    152 H152       -5.0486  -17.1461  -47.2700 H         1 UNK         0.0600 
    153 H153       -4.3575  -17.5732  -45.7062 H         1 UNK         0.0600 
    154 H154       -2.4882  -16.9376  -47.1948 H         1 UNK         0.3000 
    155 H155        0.7147  -17.6913  -48.6665 H         1 UNK         0.0600 
    156 H156       -0.5796  -16.4136  -50.3378 H         1 UNK         0.0600 
    157 H157        0.3517  -15.3111  -49.3359 H         1 UNK         0.0600 
    158 H158       -1.3835  -15.4937  -49.0749 H         1 UNK         0.0600 
    159 H159       -0.0848  -15.6387  -46.8632 H         1 UNK         0.3000 
    160 H160        0.4996  -17.4452  -43.8298 H         1 UNK         0.0600 
    161 H161        1.9315  -15.0296  -45.0249 H         1 UNK         0.0600 
    162 H162        2.7260  -16.5644  -44.6836 H         1 UNK         0.0600 
    163 H163        2.0315  -15.6333  -43.3719 H         1 UNK         0.0600 
    164 H164       -0.3896  -14.7678  -44.5882 H         1 UNK         0.3000 
    165 H165       -3.8596  -15.5131  -44.3687 H         1 UNK         0.0600 
    166 H166       -3.8184  -13.7245  -42.6454 H         1 UNK         0.0600 
    167 H167       -3.2518  -15.2481  -41.9776 H         1 UNK         0.0600 
    168 H168       -2.0956  -13.9887  -42.3851 H         1 UNK         0.0600 
    169 H169       -2.3385  -13.0858  -44.7047 H         1 UNK         0.3000 
    170 H170       -1.9809  -13.3142  -48.2252 H         1 UNK         0.0600 
    171 H171       -4.4095  -12.7360  -48.0945 H         1 UNK         0.0600 
    172 H172       -4.0873  -11.6513  -46.7467 H         1 UNK         0.0600 
    173 H173       -3.4210  -11.3063  -48.3437 H         1 UNK         0.0600 
    174 H174       -1.6542  -11.0658  -46.5885 H         1 UNK         0.3000 
    175 H175        1.6428  -11.2449  -46.4573 H         1 UNK         0.0600 
    176 H176       -0.7317   -9.8291  -45.1238 H         1 UNK         0.0600 
    177 H177        0.8625   -9.1418  -45.3987 H         1 UNK         0.0600 
    178 H178       -0.1485   -9.5567  -46.7670 H         1 UNK         0.0600 
    179 H179        2.3005  -11.6566  -44.3939 H         1 UNK         0.3000 
    180 H180        1.2310  -11.4001  -41.4075 H         1 UNK         0.0600 
    181 H181        0.6842  -14.3463  -42.0223 H         1 UNK         0.0600 
    182 H182       -0.2520  -13.2695  -40.9988 H         1 UNK         0.0600 
    183 H183        1.3515  -13.7671  -40.4959 H         1 UNK         0.0600 
    184 H184        3.0272  -13.4123  -42.6533 H         1 UNK         0.3000 
    185 H185        5.6816  -11.1201  -42.9892 H         1 UNK         0.0600 
    186 H186        5.9798  -11.8463  -40.6148 H         1 UNK         0.0600 
    187 H187        5.4791  -13.4789  -41.0395 H         1 UNK         0.0600 
    188 H188        6.9682  -12.8071  -41.7036 H         1 UNK         0.0600 
    189 H189        5.5702  -13.9081  -43.5014 H         1 UNK         0.3000 
    190 H190       -1.2296  -21.0998  -48.8379 H         1 UNK         0.3000 
    191 H191       -1.5502  -23.0164  -50.8819 H         1 UNK         0.0600 
    192 H192       -2.4876  -20.6961  -50.9183 H         1 UNK         0.0600 
    193 H193       -3.7072  -21.9074  -51.2766 H         1 UNK         0.0600 
    194 H194       -3.6682  -21.1522  -49.6895 H         1 UNK         0.0600 
    195 H195       -3.2349  -22.7570  -47.6954 H         1 UNK         0.3000 
    196 H196       -4.8650  -25.0421  -47.9856 H         1 UNK         0.0600 
    197 H197       -5.0971  -24.8862  -45.5015 H         1 UNK         0.0600 
    198 H198       -5.2511  -23.3059  -46.2524 H         1 UNK         0.0600 
    199 H199       -3.7549  -23.7509  -45.4384 H         1 UNK         0.0600 
    200 H200       -1.5242  -24.7741  -46.7091 H         1 UNK         0.3000 
    201 H201       -1.2093  -27.5113  -45.9870 H         1 UNK         0.0600 
    202 H202        0.3047  -25.7060  -45.2036 H         1 UNK         0.0600 
    203 H203        0.8913  -25.4520  -46.8453 H         1 UNK         0.0600 
    204 H204        1.2183  -26.9677  -46.0168 H         1 UNK         0.0600 
    205 H205       -1.0316  -25.8897  -49.1082 H         1 UNK         0.3000 
    206 H206       -0.0397  -28.2600  -50.5466 H         1 UNK         0.0600 
    207 H207        0.7172  -25.9540  -51.1722 H         1 UNK         0.0600 
    208 H208       -0.1096  -26.7566  -52.4972 H         1 UNK         0.0600 
    209 H209       -0.9417  -25.5170  -51.5697 H         1 UNK         0.0600 
    210 H210       -2.8977  -27.6865  -49.1394 H         1 UNK         0.3000 
    211 H211       -4.8996  -28.5345  -49.2184 H         1 UNK         0.0600 
    212 H212       -4.1689  -30.1391  -51.7158 H         1 UNK         0.0600 
    213 H213       -5.4922  -30.4504  -50.6054 H         1 UNK         0.0600 
    214 H214       -3.8361  -30.6452  -50.0589 H         1 UNK         0.0600 
    215 H215       -4.1147  -26.0812  -50.8892 H         1 UNK         0.3000 
    216 H216       -6.6281  -25.7787  -52.4858 H         1 UNK         0.0600 
    217 H217       -5.4746  -23.8116  -53.4433 H         1 UNK         0.0600 
    218 H218       -4.5108  -25.2558  -53.7006 H         1 UNK         0.0600 
    219 H219       -4.0533  -24.1087  -52.4470 H         1 UNK         0.0600 
    220 H220       -7.5840  -25.9562  -50.3153 H         1 UNK         0.3000 
    221 H221       -7.1630  -24.7145  -48.0068 H         1 UNK         0.0600 
    222 H222       -9.8701  -25.3177  -49.2802 H         1 UNK         0.0600 
    223 H223       -8.8660  -26.4257  -48.3459 H         1 UNK         0.0600 
    224 H224       -9.6057  -25.0392  -47.5629 H         1 UNK         0.0600 
    225 H225       -6.3959  -22.6670  -47.9872 H         1 UNK         0.3000 
    226 H226       -6.3145  -20.5053  -47.7164 H         1 UNK         0.0600 
    227 H227       -8.2126  -20.8883  -46.1376 H         1 UNK         0.0600 
    228 H228       -8.2751  -19.2871  -46.8524 H         1 UNK         0.0600 
    229 H229       -9.3618  -20.5435  -47.4299 H         1 UNK         0.0600 
    230 H230       -6.4568  -21.5031  -50.4540 H         1 UNK         0.3000 
    231 H231       -7.9182  -19.6598  -52.0870 H         1 UNK         0.0600 
    232 H232       -5.5273  -21.4477  -52.7698 H         1 UNK         0.0600 
    233 H233       -6.6222  -20.7060  -53.9282 H         1 UNK         0.0600 
    234 H234       -7.2214  -21.9349  -52.8262 H         1 UNK         0.0600 
    235 H235       -5.0604  -19.1885  -50.3303 H         1 UNK         0.3000 
    236 H236       -3.4552  -17.6440  -50.1859 H         1 UNK         0.0600 
    237 H237       -5.4858  -15.7955  -51.5283 H         1 UNK         0.0600 
    238 H238       -5.4615  -16.2099  -49.8140 H         1 UNK         0.0600 
    239 H239       -4.1329  -15.3032  -50.5147 H         1 UNK         0.0600 
    240 H240       -3.2107  -19.3370  -52.4032 H         1 UNK         0.3000 
    241 H241       -1.9152  -19.7676  -54.1135 H         1 UNK         0.0600 
    242 H242       -4.4679  -17.7329  -56.2277 H         1 UNK         0.3800 
    243 H243       -4.5834  -18.0296  -54.5122 H         1 UNK         0.3800 
    244 H244        0.0163  -18.4111  -54.7588 H         1 UNK         0.0800 
    245 H245       -0.6019  -17.0171  -53.9106 H         1 UNK         0.0800 
    246 H246        2.3700  -19.0173  -53.5338 H         1 UNK         0.0800 
    247 H247        2.0509  -17.3096  -53.3200 H         1 UNK         0.0800 
@<TRIPOS>BOND
     1    1    2 1    
     2    1  127 1    
     3    1  128 1    
     4    1  129 1    
     5    2    3 2    
     6    2    4 am   BACKBONE|DICT|INTERRES
     7    4    5 1    
     8    4  130 1    
     9    5    6 1    
    10    5   65 1    
    11    5  131 1    
    12    6    7 1    
    13    6  132 1    
    14    6  133 1    
    15    7    8 1    
    16    8    9 1    
    17    8  134 1    
    18    8  135 1    
    19    9   10 ar   
    20    9   14 ar   
    21   10   11 ar   
    22   10  136 1    
    23   11   12 ar   
    24   11  126 1    
    25   12   13 ar   
    26   12  137 1    
    27   13   14 ar   
    28   13   15 1    
    29   14  138 1    
    30   15   16 1    
    31   15  139 1    
    32   15  140 1    
    33   16   17 1    
    34   17   18 1    
    35   17  141 1    
    36   17  142 1    
    37   18   19 1    
    38   18   67 1    
    39   18  143 1    
    40   19   20 am   BACKBONE|DICT|INTERRES
    41   19  144 1    
    42   20   21 2    
    43   20   22 1    
    44   22   23 1    
    45   22   24 1    
    46   22  145 1    
    47   23  146 1    
    48   23  147 1    
    49   23  148 1    
    50   24   25 am   BACKBONE|DICT|INTERRES
    51   24  149 1    
    52   25   26 2    
    53   25   27 1    
    54   27   28 1    
    55   27   29 1    
    56   27  150 1    
    57   28  151 1    
    58   28  152 1    
    59   28  153 1    
    60   29   30 am   BACKBONE|DICT|INTERRES
    61   29  154 1    
    62   30   31 2    
    63   30   32 1    
    64   32   33 1    
    65   32   34 1    
    66   32  155 1    
    67   33  156 1    
    68   33  157 1    
    69   33  158 1    
    70   34   35 am   BACKBONE|DICT|INTERRES
    71   34  159 1    
    72   35   36 2    
    73   35   37 1    
    74   37   38 1    
    75   37   39 1    
    76   37  160 1    
    77   38  161 1    
    78   38  162 1    
    79   38  163 1    
    80   39   40 am   BACKBONE|DICT|INTERRES
    81   39  164 1    
    82   40   41 2    
    83   40   42 1    
    84   42   43 1    
    85   42   44 1    
    86   42  165 1    
    87   43  166 1    
    88   43  167 1    
    89   43  168 1    
    90   44   45 am   BACKBONE|DICT|INTERRES
    91   44  169 1    
    92   45   46 2    
    93   45   47 1    
    94   47   48 1    
    95   47   49 1    
    96   47  170 1    
    97   48  171 1    
    98   48  172 1    
    99   48  173 1    
   100   49   50 am   BACKBONE|DICT|INTERRES
   101   49  174 1    
   102   50   51 2    
   103   50   52 1    
   104   52   53 1    
   105   52   54 1    
   106   52  175 1    
   107   53  176 1    
   108   53  177 1    
   109   53  178 1    
   110   54   55 am   BACKBONE|DICT|INTERRES
   111   54  179 1    
   112   55   56 2    
   113   55   57 1    
   114   57   58 1    
   115   57   59 1    
   116   57  180 1    
   117   58  181 1    
   118   58  182 1    
   119   58  183 1    
   120   59   60 am   BACKBONE|DICT|INTERRES
   121   59  184 1    
   122   60   61 2    
   123   60   62 1    
   124   62   63 1    
   125   62   64 1    
   126   62  185 1    
   127   63  186 1    
   128   63  187 1    
   129   63  188 1    
   130   64   65 am   BACKBONE|DICT|INTERRES
   131   64  189 1    
   132   65   66 2    
   133   67   68 2    
   134   67   69 am   BACKBONE|DICT|INTERRES
   135   69   70 1    
   136   69  190 1    
   137   70   71 1    
   138   70   72 1    
   139   70  191 1    
   140   71  192 1    
   141   71  193 1    
   142   71  194 1    
   143   72   73 2    
   144   72   74 am   BACKBONE|DICT|INTERRES
   145   74   75 1    
   146   74  195 1    
   147   75   76 1    
   148   75   77 1    
   149   75  196 1    
   150   76  197 1    
   151   76  198 1    
   152   76  199 1    
   153   77   78 2    
   154   77   79 am   BACKBONE|DICT|INTERRES
   155   79   80 1    
   156   79  200 1    
   157   80   81 1    
   158   80   82 1    
   159   80  201 1    
   160   81  202 1    
   161   81  203 1    
   162   81  204 1    
   163   82   83 2    
   164   82   84 am   BACKBONE|DICT|INTERRES
   165   84   85 1    
   166   84  205 1    
   167   85   86 1    
   168   85   87 1    
   169   85  206 1    
   170   86  207 1    
   171   86  208 1    
   172   86  209 1    
   173   87   88 2    
   174   87   89 am   BACKBONE|DICT|INTERRES
   175   89   90 1    
   176   89  210 1    
   177   90   91 1    
   178   90   92 1    
   179   90  211 1    
   180   91  212 1    
   181   91  213 1    
   182   91  214 1    
   183   92   93 2    
   184   92   94 am   BACKBONE|DICT|INTERRES
   185   94   95 1    
   186   94  215 1    
   187   95   96 1    
   188   95   97 1    
   189   95  216 1    
   190   96  217 1    
   191   96  218 1    
   192   96  219 1    
   193   97   98 2    
   194   97   99 am   BACKBONE|DICT|INTERRES
   195   99  100 1    
   196   99  220 1    
   197  100  101 1    
   198  100  102 1    
   199  100  221 1    
   200  101  222 1    
   201  101  223 1    
   202  101  224 1    
   203  102  103 2    
   204  102  104 am   BACKBONE|DICT|INTERRES
   205  104  105 1    
   206  104  225 1    
   207  105  106 1    
   208  105  107 1    
   209  105  226 1    
   210  106  227 1    
   211  106  228 1    
   212  106  229 1    
   213  107  108 2    
   214  107  109 am   BACKBONE|DICT|INTERRES
   215  109  110 1    
   216  109  230 1    
   217  110  111 1    
   218  110  112 1    
   219  110  231 1    
   220  111  232 1    
   221  111  233 1    
   222  111  234 1    
   223  112  113 2    
   224  112  114 am   BACKBONE|DICT|INTERRES
   225  114  115 1    
   226  114  235 1    
   227  115  116 1    
   228  115  117 1    
   229  115  236 1    
   230  116  237 1    
   231  116  238 1    
   232  116  239 1    
   233  117  118 2    
   234  117  119 am   BACKBONE|DICT|INTERRES
   235  119  120 1    
   236  119  240 1    
   237  120  121 1    
   238  120  124 1    
   239  120  241 1    
   240  121  122 am   BACKBONE|DICT|INTERRES
   241  121  123 2    
   242  122  242 1    
   243  122  243 1    
   244  124  125 1    
   245  124  244 1    
   246  124  245 1    
   247  125  126 1    
   248  126  246 1    
   249  126  247 1    
@<TRIPOS>SUBSTRUCTURE
     1 UNK         1 GROUP             0       ****    0 ROOT    
