@<TRIPOS>MOLECULE
3R540
247   249    1
SMALL
USER_CHARGES


@<TRIPOS>ATOM
      1 CA          1.0257  -11.6934  -53.9346 C.3       0 UNK        -0.1800 
      2 C           1.7726  -11.3679  -52.6480 C.2       0 UNK         0.5000 
      3 O           2.0973  -10.2049  -52.4030 O.2       0 UNK        -0.5000 
      4 N           2.0526  -12.3911  -51.8328 N.am      1 UNK        -0.5000 
      5 CA          2.6785  -12.2721  -50.5128 C.3       1 UNK         0.1400 
      6 C6          3.3291  -13.6080  -50.0640 C.3       23 UNK        -0.0398 
      7 S7          2.2147  -15.0612  -50.0956 S.3       23 UNK        -0.2404 
      8 C8          3.0838  -16.1069  -51.3036 C.3       23 UNK        -0.0205 
      9 C9          2.4262  -17.4682  -51.4642 C.ar      23 UNK        -0.0193 
     10 C10         1.5701  -17.7177  -52.5406 C.ar      23 UNK        -0.1150 
     11 C11         1.0221  -18.9896  -52.7289 C.ar      23 UNK        -0.0193 
     12 C12         1.3146  -20.0090  -51.8162 C.ar      23 UNK        -0.1150 
     13 C13         2.1759  -19.7750  -50.7408 C.ar      23 UNK        -0.0193 
     14 C14         2.7257  -18.5004  -50.5699 C.ar      23 UNK        -0.1150 
     15 C15         2.5795  -20.9115  -49.8100 C.3       23 UNK        -0.0205 
     16 S16         1.9685  -20.6787  -48.1120 S.3       23 UNK        -0.2404 
     17 C17         0.3109  -21.4434  -48.1775 C.3       23 UNK        -0.0398 
     18 CA          0.2481  -22.7296  -47.3247 C.3       11 UNK         0.1400 
     19 N           0.4536  -22.4485  -45.9036 N.am      11 UNK        -0.5000 
     20 C           0.8255  -23.3650  -45.0035 C.2       10 UNK         0.5000 
     21 O           1.0432  -24.5438  -45.2831 O.2       10 UNK        -0.5000 
     22 CA          0.9288  -22.8920  -43.5428 C.3       10 UNK         0.1400 
     23 CB          2.2405  -22.1284  -43.3062 C.3       10 UNK        -0.1800 
     24 N          -0.2023  -22.0536  -43.1430 N.am      10 UNK        -0.5000 
     25 C          -1.4758  -22.4672  -43.0930 C.2       9 UNK         0.5000 
     26 O          -1.8316  -23.6152  -43.3607 O.2       9 UNK        -0.5000 
     27 CA         -2.5335  -21.4126  -42.7206 C.3       9 UNK         0.1400 
     28 CB         -2.5724  -21.1815  -41.2023 C.3       9 UNK        -0.1800 
     29 N          -2.3246  -20.1375  -43.4077 N.am      9 UNK        -0.5000 
     30 C          -2.4578  -19.9594  -44.7294 C.2       8 UNK         0.5000 
     31 O          -2.7672  -20.8503  -45.5169 O.2       8 UNK        -0.5000 
     32 CA         -2.1416  -18.5602  -45.2798 C.3       8 UNK         0.1400 
     33 CB         -3.3431  -17.6223  -45.0942 C.3       8 UNK        -0.1800 
     34 N          -0.9330  -17.9722  -44.6963 N.am      8 UNK        -0.5000 
     35 C           0.2828  -18.5349  -44.7781 C.2       7 UNK         0.5000 
     36 O           0.5033  -19.5934  -45.3642 O.2       7 UNK        -0.5000 
     37 CA          1.4347  -17.8428  -44.0290 C.3       7 UNK         0.1400 
     38 CB          1.9016  -16.5822  -44.7720 C.3       7 UNK        -0.1800 
     39 N           1.1061  -17.4958  -42.6461 N.am      7 UNK        -0.5000 
     40 C           0.6801  -18.3457  -41.6992 C.2       6 UNK         0.5000 
     41 O           0.5187  -19.5514  -41.8860 O.2       6 UNK        -0.5000 
     42 CA          0.3728  -17.7534  -40.3074 C.3       6 UNK         0.1400 
     43 CB          1.5027  -18.0887  -39.3225 C.3       6 UNK        -0.1800 
     44 N           0.1653  -16.3013  -40.3190 N.am      6 UNK        -0.5000 
     45 C          -0.8747  -15.6882  -40.8990 C.2       5 UNK         0.5000 
     46 O          -1.8026  -16.3023  -41.4330 O.2       5 UNK        -0.5000 
     47 CA         -0.8598  -14.1476  -40.9308 C.3       5 UNK         0.1400 
     48 CB          0.5623  -13.5432  -40.9168 C.3       5 UNK        -0.1800 
     49 N          -1.5683  -13.7416  -42.1355 N.am      5 UNK        -0.5000 
     50 C          -2.0737  -12.5468  -42.4381 C.2       4 UNK         0.5000 
     51 O          -1.9734  -11.5572  -41.7100 O.2       4 UNK        -0.5000 
     52 CA         -2.8203  -12.4625  -43.7896 C.3       4 UNK         0.1400 
     53 CB         -3.4781  -11.0892  -44.0162 C.3       4 UNK        -0.1800 
     54 N          -1.9766  -12.7684  -44.9497 N.am      4 UNK        -0.5000 
     55 C          -1.4660  -13.9616  -45.2887 C.2       3 UNK         0.5000 
     56 O          -1.5998  -14.9854  -44.6176 O.2       3 UNK        -0.5000 
     57 CA         -0.6792  -14.0342  -46.6097 C.3       3 UNK         0.1400 
     58 CB         -1.5939  -14.5241  -47.7408 C.3       3 UNK        -0.1800 
     59 N          -0.0694  -12.7702  -47.0213 N.am      3 UNK        -0.5000 
     60 C           0.9175  -12.1275  -46.3853 C.2       2 UNK         0.5000 
     61 O           1.3999  -12.4996  -45.3138 O.2       2 UNK        -0.5000 
     62 CA          1.4838  -10.8907  -47.1169 C.3       2 UNK         0.1400 
     63 CB          2.4017  -10.0401  -46.2192 C.3       2 UNK        -0.1800 
     64 N           2.2299  -11.2910  -48.3120 N.am      2 UNK        -0.5000 
     65 C           1.6883  -11.7343  -49.4562 C.2       1 UNK         0.5000 
     66 O           0.4707  -11.7600  -49.6654 O.2       1 UNK        -0.5000 
     67 C          -1.0456  -23.5398  -47.5668 C.2       11 UNK         0.5000 
     68 O          -1.0731  -24.3664  -48.4783 O.2       11 UNK        -0.5000 
     69 N          -2.0823  -23.3487  -46.7347 N.am      12 UNK        -0.5000 
     70 CA         -3.3084  -24.1537  -46.7527 C.3       12 UNK         0.1400 
     71 CB         -4.3979  -23.5064  -45.8861 C.3       12 UNK        -0.1800 
     72 C          -3.0623  -25.6068  -46.3154 C.2       12 UNK         0.5000 
     73 O          -3.6318  -26.5177  -46.9146 O.2       12 UNK        -0.5000 
     74 N          -2.1718  -25.8114  -45.3339 N.am      13 UNK        -0.5000 
     75 CA         -1.6920  -27.1332  -44.9166 C.3       13 UNK         0.1400 
     76 CB         -0.8829  -27.0017  -43.6177 C.3       13 UNK        -0.1800 
     77 C          -0.8732  -27.8495  -46.0126 C.2       13 UNK         0.5000 
     78 O          -0.8757  -29.0795  -46.0650 O.2       13 UNK        -0.5000 
     79 N          -0.2347  -27.0695  -46.8964 N.am      14 UNK        -0.5000 
     80 CA          0.4346  -27.5324  -48.1150 C.3       14 UNK         0.1400 
     81 CB          1.5875  -26.5691  -48.4458 C.3       14 UNK        -0.1800 
     82 C          -0.5294  -27.6873  -49.3157 C.2       14 UNK         0.5000 
     83 O          -0.0724  -28.0312  -50.4064 O.2       14 UNK        -0.5000 
     84 N          -1.8324  -27.4439  -49.1008 N.am      15 UNK        -0.5000 
     85 CA         -2.9448  -27.5586  -50.0495 C.3       15 UNK         0.1400 
     86 CB         -3.1087  -29.0141  -50.5372 C.3       15 UNK        -0.1800 
     87 C          -2.9009  -26.5322  -51.2012 C.2       15 UNK         0.5000 
     88 O          -3.3778  -26.8268  -52.2990 O.2       15 UNK        -0.5000 
     89 N          -2.3604  -25.3365  -50.9360 N.am      16 UNK        -0.5000 
     90 CA         -2.2579  -24.2414  -51.8975 C.3       16 UNK         0.1400 
     91 CB         -0.9832  -24.4133  -52.7483 C.3       16 UNK        -0.1800 
     92 C          -2.3041  -22.9051  -51.1431 C.2       16 UNK         0.5000 
     93 O          -1.3343  -22.1510  -51.1898 O.2       16 UNK        -0.5000 
     94 N          -3.4155  -22.6657  -50.4268 N.am      17 UNK        -0.5000 
     95 CA         -3.6602  -21.5256  -49.5313 C.3       17 UNK         0.1400 
     96 CB         -5.1314  -21.5422  -49.0877 C.3       17 UNK        -0.1800 
     97 C          -3.2993  -20.1639  -50.1514 C.2       17 UNK         0.5000 
     98 O          -3.8930  -19.7936  -51.1671 O.2       17 UNK        -0.5000 
     99 N          -2.3216  -19.4774  -49.5419 N.am      18 UNK        -0.5000 
    100 CA        -1.7081  -18.2447  -50.0364 C.3       18 UNK         0.1400 
    101 CB        -0.6021  -17.7898  -49.0731 C.3       18 UNK        -0.1800 
    102 C         -2.7382  -17.1260  -50.2392 C.2       18 UNK         0.5000 
    103 O         -3.4802  -16.8142  -49.3059 O.2       18 UNK        -0.5000 
    104 N         -2.7934  -16.5882  -51.4647 N.am      19 UNK        -0.5000 
    105 CA        -3.7113  -15.5650  -51.9862 C.3       19 UNK         0.1400 
    106 CB        -3.5581  -14.2393  -51.2153 C.3       19 UNK        -0.1800 
    107 C         -5.1928  -15.9974  -52.0626 C.2       19 UNK         0.5000 
    108 O         -5.8902  -15.5930  -52.9937 O.2       19 UNK        -0.5000 
    109 N         -5.6467  -16.8055  -51.0984 N.am      20 UNK        -0.5000 
    110 CA        -7.0036  -17.3274  -50.9690 C.3       20 UNK         0.1400 
    111 CB        -7.1514  -17.9752  -49.5835 C.3       20 UNK        -0.1800 
    112 C         -7.3898  -18.3283  -52.0726 C.2       20 UNK         0.5000 
    113 O         -8.5583  -18.3618  -52.4629 O.2       20 UNK        -0.5000 
    114 N         -6.4226  -19.1219  -52.5517 N.am      21 UNK        -0.5000 
    115 CA        -6.6387  -20.1266  -53.5911 C.3       21 UNK         0.1400 
    116 CB        -7.0734  -21.4614  -52.9554 C.3       21 UNK        -0.1800 
    117 C         -5.3941  -20.3119  -54.4670 C.2       21 UNK         0.5000 
    118 O         -5.5021  -20.2377  -55.6914 O.2       21 UNK        -0.5000 
    119 N         -4.2435  -20.5683  -53.8299 N.am      22 UNK        -0.5000 
    120 CA        -2.9461  -20.8719  -54.4611 C.3       22 UNK         0.1400 
    121 C         -2.9139  -22.1483  -55.3612 C.2       22 UNK         0.5000 
    122 N         -3.8778  -23.0559  -55.2594 N.am      22 UNK        -0.7600 
    123 O         -1.9782  -22.3506  -56.1301 O.2       22 UNK        -0.5000 
    124 C124       -2.3047  -19.6185  -55.1249 C.3       23 UNK        -0.0398 
    125 S125       -1.4901  -18.5772  -53.8695 S.3       23 UNK        -0.2404 
    126 C126        0.1829  -19.2879  -53.9609 C.3       23 UNK        -0.0205 
    127 H127        1.6158  -11.3894  -54.7990 H         1 UNK         0.0600 
    128 H128        0.0766  -11.1578  -53.9626 H         1 UNK         0.0600 
    129 H129        0.8166  -12.7603  -54.0236 H         1 UNK         0.0600 
    130 H130        1.7207  -13.3167  -52.0638 H         1 UNK         0.3000 
    131 H131        3.4796  -11.5336  -50.5927 H         1 UNK         0.0600 
    132 H132        4.1893  -13.8048  -50.7049 H         1 UNK         0.0800 
    133 H133        3.7454  -13.5222  -49.0587 H         1 UNK         0.0800 
    134 H134        3.1251  -15.5913  -52.2644 H         1 UNK         0.0800 
    135 H135        4.1182  -16.2439  -50.9844 H         1 UNK         0.0800 
    136 H136        1.3538  -16.9323  -53.2511 H         1 UNK         0.1150 
    137 H137        0.9026  -20.9971  -51.9659 H         1 UNK         0.1150 
    138 H138        3.4032  -18.3173  -49.7476 H         1 UNK         0.1150 
    139 H139        2.2463  -21.8764  -50.1956 H         1 UNK         0.0800 
    140 H140        3.6686  -20.9614  -49.7789 H         1 UNK         0.0800 
    141 H141        0.0633  -21.6502  -49.2164 H         1 UNK         0.0800 
    142 H142       -0.4173  -20.7168  -47.8179 H         1 UNK         0.0800 
    143 H143        1.0690  -23.3704  -47.6542 H         1 UNK         0.0600 
    144 H144        0.3513  -21.4787  -45.6125 H         1 UNK         0.3000 
    145 H145        0.9297  -23.7787  -42.9055 H         1 UNK         0.0600 
    146 H146        2.3524  -21.8540  -42.2571 H         1 UNK         0.0600 
    147 H147        3.1027  -22.7384  -43.5784 H         1 UNK         0.0600 
    148 H148        2.2852  -21.2125  -43.8965 H         1 UNK         0.0600 
    149 H149        0.0121  -21.0966  -42.8736 H         1 UNK         0.3000 
    150 H150       -3.5079  -21.7999  -43.0254 H         1 UNK         0.0600 
    151 H151       -2.7612  -22.1157  -40.6719 H         1 UNK         0.0600 
    152 H152       -3.3674  -20.4872  -40.9296 H         1 UNK         0.0600 
    153 H153       -1.6317  -20.7774  -40.8279 H         1 UNK         0.0600 
    154 H154       -2.0132  -19.3592  -42.8450 H         1 UNK         0.3000 
    155 H155       -1.9720  -18.6752  -46.3508 H         1 UNK         0.0600 
    156 H156       -3.4653  -17.3233  -44.0523 H         1 UNK         0.0600 
    157 H157       -3.2329  -16.7203  -45.6945 H         1 UNK         0.0600 
    158 H158       -4.2702  -18.1009  -45.4130 H         1 UNK         0.0600 
    159 H159       -1.0443  -17.0852  -44.2197 H         1 UNK         0.3000 
    160 H160        2.2690  -18.5466  -44.0004 H         1 UNK         0.0600 
    161 H161        2.8450  -16.2157  -44.3671 H         1 UNK         0.0600 
    162 H162        1.1725  -15.7767  -44.6898 H         1 UNK         0.0600 
    163 H163        2.0598  -16.7824  -45.8329 H         1 UNK         0.0600 
    164 H164        1.2081  -16.5254  -42.3922 H         1 UNK         0.3000 
    165 H165       -0.5441  -18.2264  -39.9494 H         1 UNK         0.0600 
    166 H166        1.2643  -17.7446  -38.3160 H         1 UNK         0.0600 
    167 H167        1.6648  -19.1661  -39.2657 H         1 UNK         0.0600 
    168 H168        2.4464  -17.6303  -39.6210 H         1 UNK         0.0600 
    169 H169        0.8907  -15.7381  -39.8990 H         1 UNK         0.3000 
    170 H170       -1.4140  -13.7934  -40.0598 H         1 UNK         0.0600 
    171 H171        0.5328  -12.4563  -40.9930 H         1 UNK         0.0600 
    172 H172        1.1641  -13.9133  -41.7480 H         1 UNK         0.0600 
    173 H173        1.0877  -13.7749  -39.9899 H         1 UNK         0.0600 
    174 H174       -1.7046  -14.4903  -42.8129 H         1 UNK         0.3000 
    175 H175       -3.6186  -13.2067  -43.7540 H         1 UNK         0.0600 
    176 H176       -4.0689  -11.0807  -44.9323 H         1 UNK         0.0600 
    177 H177       -2.7350  -10.2940  -44.0883 H         1 UNK         0.0600 
    178 H178       -4.1522  -10.8370  -43.1966 H         1 UNK         0.0600 
    179 H179       -1.7755  -11.9932  -45.5631 H         1 UNK         0.3000 
    180 H180        0.1212  -14.7652  -46.4826 H         1 UNK         0.0600 
    181 H181       -2.3956  -13.8138  -47.9504 H         1 UNK         0.0600 
    182 H182       -2.0608  -15.4739  -47.4772 H         1 UNK         0.0600 
    183 H183       -1.0350  -14.6797  -48.6639 H         1 UNK         0.0600 
    184 H184       -0.3275  -12.4230  -47.9403 H         1 UNK         0.3000 
    185 H185        0.6396  -10.2655  -47.4181 H         1 UNK         0.0600 
    186 H186        3.2866  -10.5946  -45.9022 H         1 UNK         0.0600 
    187 H187        2.7370   -9.1411  -46.7380 H         1 UNK         0.0600 
    188 H188        1.8766   -9.7172  -45.3193 H         1 UNK         0.0600 
    189 H189        3.2345  -11.3117  -48.2097 H         1 UNK         0.3000 
    190 H190       -2.0408  -22.6080  -46.0415 H         1 UNK         0.3000 
    191 H191       -3.6743  -24.1825  -47.7809 H         1 UNK         0.0600 
    192 H192       -4.6599  -22.5148  -46.2529 H         1 UNK         0.0600 
    193 H193       -5.3106  -24.1035  -45.8965 H         1 UNK         0.0600 
    194 H194       -4.0833  -23.4081  -44.8477 H         1 UNK         0.0600 
    195 H195       -1.7945  -25.0091  -44.8392 H         1 UNK         0.3000 
    196 H196       -2.5665  -27.7525  -44.7060 H         1 UNK         0.0600 
    197 H197       -0.5672  -27.9806  -43.2550 H         1 UNK         0.0600 
    198 H198       -1.4760  -26.5378  -42.8293 H         1 UNK         0.0600 
    199 H199        0.0147  -26.4004  -43.7576 H         1 UNK         0.0600 
    200 H200       -0.2657  -26.0685  -46.7573 H         1 UNK         0.3000 
    201 H201        0.8687  -28.5159  -47.9250 H         1 UNK         0.0600 
    202 H202        2.2502  -26.4356  -47.5903 H         1 UNK         0.0600 
    203 H203        1.2238  -25.5869  -48.7445 H         1 UNK         0.0600 
    204 H204        2.1928  -26.9533  -49.2676 H         1 UNK         0.0600 
    205 H205       -2.1085  -27.1494  -48.1718 H         1 UNK         0.3000 
    206 H206       -3.8426  -27.3132  -49.4813 H         1 UNK         0.0600 
    207 H207       -3.1508  -29.7085  -49.6981 H         1 UNK         0.0600 
    208 H208       -4.0334  -29.1358  -51.1024 H         1 UNK         0.0600 
    209 H209       -2.2882  -29.3201  -51.1866 H         1 UNK         0.0600 
    210 H210       -1.9690  -25.1507  -50.0147 H         1 UNK         0.3000 
    211 H211       -3.1216  -24.2519  -52.5657 H         1 UNK         0.0600 
    212 H212       -0.0881  -24.4398  -52.1255 H         1 UNK         0.0600 
    213 H213       -0.8690  -23.5924  -53.4571 H         1 UNK         0.0600 
    214 H214       -1.0157  -25.3369  -53.3263 H         1 UNK         0.0600 
    215 H215       -4.1526  -23.3537  -50.4678 H         1 UNK         0.3000 
    216 H216       -3.0442  -21.6713  -48.6449 H         1 UNK         0.0600 
    217 H217       -5.3206  -20.7658  -48.3452 H         1 UNK         0.0600 
    218 H218       -5.4019  -22.4953  -48.6341 H         1 UNK         0.0600 
    219 H219       -5.8087  -21.3681  -49.9245 H         1 UNK         0.0600 
    220 H220       -1.9297  -19.8485  -48.6926 H         1 UNK         0.3000 
    221 H221       -1.2409  -18.4814  -50.9919 H         1 UNK         0.0600 
    222 H222       -0.9896  -17.5535  -48.0833 H         1 UNK         0.0600 
    223 H223        0.1655  -18.5522  -48.9616 H         1 UNK         0.0600 
    224 H224       -0.1069  -16.8957  -49.4516 H         1 UNK         0.0600 
    225 H225       -2.1791  -16.9844  -52.1651 H         1 UNK         0.3000 
    226 H226       -3.3908  -15.3849  -53.0136 H         1 UNK         0.0600 
    227 H227       -2.5201  -13.9059  -51.2041 H         1 UNK         0.0600 
    228 H228       -4.1490  -13.4494  -51.6809 H         1 UNK         0.0600 
    229 H229       -3.8921  -14.3272  -50.1811 H         1 UNK         0.0600 
    230 H230       -4.9942  -17.0386  -50.3544 H         1 UNK         0.3000 
    231 H231       -7.6942  -16.4836  -51.0298 H         1 UNK         0.0600 
    232 H232       -6.4524  -18.8019  -49.4526 H         1 UNK         0.0600 
    233 H233       -8.1585  -18.3686  -49.4394 H         1 UNK         0.0600 
    234 H234       -6.9668  -17.2524  -48.7881 H         1 UNK         0.0600 
    235 H235       -5.4843  -19.0468  -52.1704 H         1 UNK         0.3000 
    236 H236       -7.4382  -19.7907  -54.2568 H         1 UNK         0.0600 
    237 H237       -8.0058  -21.3497  -52.4016 H         1 UNK         0.0600 
    238 H238       -7.2408  -22.2221  -53.7192 H         1 UNK         0.0600 
    239 H239       -6.3196  -21.8454  -52.2662 H         1 UNK         0.0600 
    240 H240       -4.2232  -20.5233  -52.8141 H         1 UNK         0.3000 
    241 H241       -2.3019  -21.1642  -53.6316 H         1 UNK         0.0600 
    242 H242       -4.6628  -22.9094  -54.6472 H         1 UNK         0.3800 
    243 H243       -3.8393  -23.8805  -55.8377 H         1 UNK         0.3800 
    244 H244       -1.5618  -19.8799  -55.8798 H         1 UNK         0.0800 
    245 H245       -3.0523  -19.0240  -55.6508 H         1 UNK         0.0800 
    246 H246        0.6876  -18.9008  -54.8476 H         1 UNK         0.0800 
    247 H247        0.1103  -20.3682  -54.1006 H         1 UNK         0.0800 
@<TRIPOS>BOND
     1    1    2 1    
     2    1  127 1    
     3    1  128 1    
     4    1  129 1    
     5    2    3 2    
     6    2    4 am   BACKBONE|DICT|INTERRES
     7    4    5 1    
     8    4  130 1    
     9    5    6 1    
    10    5   65 1    
    11    5  131 1    
    12    6    7 1    
    13    6  132 1    
    14    6  133 1    
    15    7    8 1    
    16    8    9 1    
    17    8  134 1    
    18    8  135 1    
    19    9   10 ar   
    20    9   14 ar   
    21   10   11 ar   
    22   10  136 1    
    23   11   12 ar   
    24   11  126 1    
    25   12   13 ar   
    26   12  137 1    
    27   13   14 ar   
    28   13   15 1    
    29   14  138 1    
    30   15   16 1    
    31   15  139 1    
    32   15  140 1    
    33   16   17 1    
    34   17   18 1    
    35   17  141 1    
    36   17  142 1    
    37   18   19 1    
    38   18   67 1    
    39   18  143 1    
    40   19   20 am   BACKBONE|DICT|INTERRES
    41   19  144 1    
    42   20   21 2    
    43   20   22 1    
    44   22   23 1    
    45   22   24 1    
    46   22  145 1    
    47   23  146 1    
    48   23  147 1    
    49   23  148 1    
    50   24   25 am   BACKBONE|DICT|INTERRES
    51   24  149 1    
    52   25   26 2    
    53   25   27 1    
    54   27   28 1    
    55   27   29 1    
    56   27  150 1    
    57   28  151 1    
    58   28  152 1    
    59   28  153 1    
    60   29   30 am   BACKBONE|DICT|INTERRES
    61   29  154 1    
    62   30   31 2    
    63   30   32 1    
    64   32   33 1    
    65   32   34 1    
    66   32  155 1    
    67   33  156 1    
    68   33  157 1    
    69   33  158 1    
    70   34   35 am   BACKBONE|DICT|INTERRES
    71   34  159 1    
    72   35   36 2    
    73   35   37 1    
    74   37   38 1    
    75   37   39 1    
    76   37  160 1    
    77   38  161 1    
    78   38  162 1    
    79   38  163 1    
    80   39   40 am   BACKBONE|DICT|INTERRES
    81   39  164 1    
    82   40   41 2    
    83   40   42 1    
    84   42   43 1    
    85   42   44 1    
    86   42  165 1    
    87   43  166 1    
    88   43  167 1    
    89   43  168 1    
    90   44   45 am   BACKBONE|DICT|INTERRES
    91   44  169 1    
    92   45   46 2    
    93   45   47 1    
    94   47   48 1    
    95   47   49 1    
    96   47  170 1    
    97   48  171 1    
    98   48  172 1    
    99   48  173 1    
   100   49   50 am   BACKBONE|DICT|INTERRES
   101   49  174 1    
   102   50   51 2    
   103   50   52 1    
   104   52   53 1    
   105   52   54 1    
   106   52  175 1    
   107   53  176 1    
   108   53  177 1    
   109   53  178 1    
   110   54   55 am   BACKBONE|DICT|INTERRES
   111   54  179 1    
   112   55   56 2    
   113   55   57 1    
   114   57   58 1    
   115   57   59 1    
   116   57  180 1    
   117   58  181 1    
   118   58  182 1    
   119   58  183 1    
   120   59   60 am   BACKBONE|DICT|INTERRES
   121   59  184 1    
   122   60   61 2    
   123   60   62 1    
   124   62   63 1    
   125   62   64 1    
   126   62  185 1    
   127   63  186 1    
   128   63  187 1    
   129   63  188 1    
   130   64   65 am   BACKBONE|DICT|INTERRES
   131   64  189 1    
   132   65   66 2    
   133   67   68 2    
   134   67   69 am   BACKBONE|DICT|INTERRES
   135   69   70 1    
   136   69  190 1    
   137   70   71 1    
   138   70   72 1    
   139   70  191 1    
   140   71  192 1    
   141   71  193 1    
   142   71  194 1    
   143   72   73 2    
   144   72   74 am   BACKBONE|DICT|INTERRES
   145   74   75 1    
   146   74  195 1    
   147   75   76 1    
   148   75   77 1    
   149   75  196 1    
   150   76  197 1    
   151   76  198 1    
   152   76  199 1    
   153   77   78 2    
   154   77   79 am   BACKBONE|DICT|INTERRES
   155   79   80 1    
   156   79  200 1    
   157   80   81 1    
   158   80   82 1    
   159   80  201 1    
   160   81  202 1    
   161   81  203 1    
   162   81  204 1    
   163   82   83 2    
   164   82   84 am   BACKBONE|DICT|INTERRES
   165   84   85 1    
   166   84  205 1    
   167   85   86 1    
   168   85   87 1    
   169   85  206 1    
   170   86  207 1    
   171   86  208 1    
   172   86  209 1    
   173   87   88 2    
   174   87   89 am   BACKBONE|DICT|INTERRES
   175   89   90 1    
   176   89  210 1    
   177   90   91 1    
   178   90   92 1    
   179   90  211 1    
   180   91  212 1    
   181   91  213 1    
   182   91  214 1    
   183   92   93 2    
   184   92   94 am   BACKBONE|DICT|INTERRES
   185   94   95 1    
   186   94  215 1    
   187   95   96 1    
   188   95   97 1    
   189   95  216 1    
   190   96  217 1    
   191   96  218 1    
   192   96  219 1    
   193   97   98 2    
   194   97   99 am   BACKBONE|DICT|INTERRES
   195   99  100 1    
   196   99  220 1    
   197  100  101 1    
   198  100  102 1    
   199  100  221 1    
   200  101  222 1    
   201  101  223 1    
   202  101  224 1    
   203  102  103 2    
   204  102  104 am   BACKBONE|DICT|INTERRES
   205  104  105 1    
   206  104  225 1    
   207  105  106 1    
   208  105  107 1    
   209  105  226 1    
   210  106  227 1    
   211  106  228 1    
   212  106  229 1    
   213  107  108 2    
   214  107  109 am   BACKBONE|DICT|INTERRES
   215  109  110 1    
   216  109  230 1    
   217  110  111 1    
   218  110  112 1    
   219  110  231 1    
   220  111  232 1    
   221  111  233 1    
   222  111  234 1    
   223  112  113 2    
   224  112  114 am   BACKBONE|DICT|INTERRES
   225  114  115 1    
   226  114  235 1    
   227  115  116 1    
   228  115  117 1    
   229  115  236 1    
   230  116  237 1    
   231  116  238 1    
   232  116  239 1    
   233  117  118 2    
   234  117  119 am   BACKBONE|DICT|INTERRES
   235  119  120 1    
   236  119  240 1    
   237  120  121 1    
   238  120  124 1    
   239  120  241 1    
   240  121  122 am   BACKBONE|DICT|INTERRES
   241  121  123 2    
   242  122  242 1    
   243  122  243 1    
   244  124  125 1    
   245  124  244 1    
   246  124  245 1    
   247  125  126 1    
   248  126  246 1    
   249  126  247 1    
@<TRIPOS>SUBSTRUCTURE
     1 UNK         1 GROUP             0       ****    0 ROOT    
