@<TRIPOS>MOLECULE
3R540
247   249    1
SMALL
USER_CHARGES


@<TRIPOS>ATOM
      1 CA          5.2000  -14.9612  -46.8811 C.3       0 UNK        -0.1800 
      2 C           3.7036  -14.7620  -46.6971 C.2       0 UNK         0.5000 
      3 O           3.1847  -15.0007  -45.6076 O.2       0 UNK        -0.5000 
      4 N           3.0342  -14.3009  -47.7647 N.am      1 UNK        -0.5000 
      5 CA          1.5772  -14.1676  -47.9493 C.3       1 UNK         0.1400 
      6 C6          1.2647  -13.3923  -49.2595 C.3       23 UNK        -0.0398 
      7 S7         -0.2769  -13.9210  -50.0872 S.3       23 UNK        -0.2404 
      8 C8          0.3347  -14.5981  -51.6708 C.3       23 UNK        -0.0205 
      9 C9          0.5984  -16.0957  -51.5922 C.ar      23 UNK        -0.0193 
     10 C10        -0.1998  -16.9923  -52.3112 C.ar      23 UNK        -0.1150 
     11 C11         0.0193  -18.3705  -52.2210 C.ar      23 UNK        -0.0193 
     12 C12         1.0291  -18.8528  -51.3847 C.ar      23 UNK        -0.1150 
     13 C13         1.8301  -17.9668  -50.6588 C.ar      23 UNK        -0.0193 
     14 C14         1.6317  -16.5906  -50.7927 C.ar      23 UNK        -0.1150 
     15 C15         2.8641  -18.4966  -49.6772 C.3       23 UNK        -0.0205 
     16 S16         2.4922  -18.0373  -47.9474 S.3       23 UNK        -0.2404 
     17 C17         0.6991  -18.3661  -47.8003 C.3       23 UNK        -0.0398 
     18 CA          0.3926  -19.8733  -47.6684 C.3       11 UNK         0.1400 
     19 N           0.7550  -20.4008  -46.3529 N.am      11 UNK        -0.5000 
     20 C           0.7854  -21.7003  -46.0347 C.2       10 UNK         0.5000 
     21 O           0.5613  -22.6039  -46.8401 O.2       10 UNK        -0.5000 
     22 CA          1.0566  -22.0451  -44.5587 C.3       10 UNK         0.1400 
     23 CB          2.5586  -21.9846  -44.2440 C.3       10 UNK        -0.1800 
     24 N           0.3200  -21.1759  -43.6383 N.am      10 UNK        -0.5000 
     25 C          -1.0175  -21.1359  -43.5492 C.2       9 UNK         0.5000 
     26 O          -1.7647  -21.8684  -44.1978 O.2       9 UNK        -0.5000 
     27 CA         -1.6273  -20.0739  -42.6156 C.3       9 UNK         0.1400 
     28 CB         -1.5843  -20.5410  -41.1534 C.3       9 UNK        -0.1800 
     29 N          -0.9792  -18.7672  -42.7408 N.am      9 UNK        -0.5000 
     30 C          -0.9879  -18.0210  -43.8557 C.2       8 UNK         0.5000 
     31 O          -1.5854  -18.3371  -44.8824 O.2       8 UNK        -0.5000 
     32 CA         -0.1486  -16.7318  -43.8463 C.3       8 UNK         0.1400 
     33 CB         -0.9060  -15.5922  -43.1500 C.3       8 UNK        -0.1800 
     34 N           1.1538  -16.9173  -43.2115 N.am      8 UNK        -0.5000 
     35 C           2.0993  -17.7671  -43.6358 C.2       7 UNK         0.5000 
     36 O           1.9817  -18.4834  -44.6278 O.2       7 UNK        -0.5000 
     37 CA          3.3498  -17.9026  -42.7517 C.3       7 UNK         0.1400 
     38 CB          4.3130  -16.7233  -42.9530 C.3       7 UNK        -0.1800 
     39 N           2.9965  -18.0209  -41.3372 N.am      7 UNK        -0.5000 
     40 C           2.3652  -19.0762  -40.8029 C.2       6 UNK         0.5000 
     41 O           2.0454  -20.0789  -41.4416 O.2       6 UNK        -0.5000 
     42 CA          2.0014  -18.9772  -39.3106 C.3       6 UNK         0.1400 
     43 CB          3.1917  -19.3943  -38.4341 C.3       6 UNK        -0.1800 
     44 N           1.5637  -17.6338  -38.9275 N.am      6 UNK        -0.5000 
     45 C           0.4167  -17.0697  -39.3316 C.2       5 UNK         0.5000 
     46 O          -0.4046  -17.6314  -40.0558 O.2       5 UNK        -0.5000 
     47 CA          0.1776  -15.6119  -38.8937 C.3       5 UNK         0.1400 
     48 CB         -0.3688  -15.5569  -37.4592 C.3       5 UNK        -0.1800 
     49 N           1.3799  -14.7767  -38.9941 N.am      5 UNK        -0.5000 
     50 C           2.0230  -14.5298  -40.1417 C.2       4 UNK         0.5000 
     51 O           1.6742  -14.9950  -41.2298 O.2       4 UNK        -0.5000 
     52 CA          3.2810  -13.6558  -40.0714 C.3       4 UNK         0.1400 
     53 CB          4.4671  -14.4558  -39.4990 C.3       4 UNK        -0.1800 
     54 N           3.5699  -13.2228  -41.4322 N.am      4 UNK        -0.5000 
     55 C           4.4217  -12.2729  -41.8239 C.2       3 UNK         0.5000 
     56 O           5.1128  -11.6060  -41.0529 O.2       3 UNK        -0.5000 
     57 CA          4.5111  -12.0268  -43.3420 C.3       3 UNK         0.1400 
     58 CB          5.6365  -12.8740  -43.9535 C.3       3 UNK        -0.1800 
     59 N           3.2566  -12.3086  -44.0505 N.am      3 UNK        -0.5000 
     60 C           2.1744  -11.5157  -44.0054 C.2       2 UNK         0.5000 
     61 O           2.1241  -10.4800  -43.3400 O.2       2 UNK        -0.5000 
     62 CA          0.9695  -11.9316  -44.8707 C.3       2 UNK         0.1400 
     63 CB          0.0189  -10.7630  -45.1945 C.3       2 UNK        -0.1800 
     64 N           1.4318  -12.5505  -46.1104 N.am      2 UNK        -0.5000 
     65 C           0.8193  -13.5549  -46.7482 C.2       1 UNK         0.5000 
     66 O          -0.2711  -14.0183  -46.4113 O.2       1 UNK        -0.5000 
     67 C          -1.0719  -20.1834  -48.0373 C.2       11 UNK         0.5000 
     68 O          -1.3253  -20.5832  -49.1714 O.2       11 UNK        -0.5000 
     69 N          -2.0041  -20.0496  -47.0831 N.am      12 UNK        -0.5000 
     70 CA         -3.4140  -20.4096  -47.2534 C.3       12 UNK         0.1400 
     71 CB         -4.2293  -19.9315  -46.0436 C.3       12 UNK        -0.1800 
     72 C          -3.6210  -21.9165  -47.4883 C.2       12 UNK         0.5000 
     73 O          -4.4608  -22.2893  -48.3084 O.2       12 UNK        -0.5000 
     74 N          -2.8308  -22.7547  -46.8031 N.am      13 UNK        -0.5000 
     75 CA         -2.7869  -24.2011  -47.0158 C.3       13 UNK         0.1400 
     76 CB         -1.9760  -24.8733  -45.8979 C.3       13 UNK        -0.1800 
     77 C          -2.2355  -24.5654  -48.4069 C.2       13 UNK         0.5000 
     78 O          -2.8263  -25.4051  -49.0856 O.2       13 UNK        -0.5000 
     79 N          -1.1573  -23.8897  -48.8328 N.am      14 UNK        -0.5000 
     80 CA         -0.5648  -24.0167  -50.1689 C.3       14 UNK         0.1400 
     81 CB          0.7662  -23.2514  -50.2199 C.3       14 UNK        -0.1800 
     82 C          -1.5045  -23.5437  -51.2950 C.2       14 UNK         0.5000 
     83 O          -1.5084  -24.1373  -52.3734 O.2       14 UNK        -0.5000 
     84 N          -2.3044  -22.5057  -51.0157 N.am      15 UNK        -0.5000 
     85 CA         -3.3596  -21.9879  -51.8868 C.3       15 UNK         0.1400 
     86 CB         -3.7822  -20.5940  -51.3944 C.3       15 UNK        -0.1800 
     87 C          -4.5998  -22.8969  -51.9566 C.2       15 UNK         0.5000 
     88 O          -5.4294  -22.7005  -52.8463 O.2       15 UNK        -0.5000 
     89 N          -4.7287  -23.8320  -51.0027 N.am      16 UNK        -0.5000 
     90 CA         -5.8954  -24.6776  -50.7326 C.3       16 UNK         0.1400 
     91 CB         -6.1018  -25.7115  -51.8574 C.3       16 UNK        -0.1800 
     92 C          -7.1441  -23.8248  -50.4262 C.2       16 UNK         0.5000 
     93 O          -8.1991  -24.0169  -51.0309 O.2       16 UNK        -0.5000 
     94 N          -6.9536  -22.8441  -49.5294 N.am      17 UNK        -0.5000 
     95 CA         -7.8740  -21.7738  -49.1190 C.3       17 UNK         0.1400 
     96 CB         -9.2088  -22.3393  -48.5920 C.3       17 UNK        -0.1800 
     97 C          -8.0843  -20.6727  -50.1829 C.2       17 UNK         0.5000 
     98 O          -8.8032  -19.7111  -49.9082 O.2       17 UNK        -0.5000 
     99 N          -7.4209  -20.8152  -51.3403 N.am      18 UNK        -0.5000 
    100 CA        -7.4349  -19.9869  -52.5483 C.3       18 UNK         0.1400 
    101 CB        -7.0732  -18.5201  -52.2456 C.3       18 UNK        -0.1800 
    102 C         -8.7587  -20.0908  -53.3400 C.2       18 UNK         0.5000 
    103 O         -9.8282  -20.1777  -52.7383 O.2       18 UNK        -0.5000 
    104 N         -8.7436  -20.0738  -54.6803 N.am      19 UNK        -0.5000 
    105 CA        -7.6040  -20.0716  -55.6077 C.3       19 UNK         0.1400 
    106 CB        -7.8935  -19.0413  -56.7140 C.3       19 UNK        -0.1800 
    107 C         -7.3677  -21.4846  -56.1907 C.2       19 UNK         0.5000 
    108 O         -6.8854  -21.6104  -57.3166 O.2       19 UNK        -0.5000 
    109 N         -7.7641  -22.5228  -55.4398 N.am      20 UNK        -0.5000 
    110 CA        -7.8178  -23.9181  -55.8790 C.3       20 UNK         0.1400 
    111 CB        -8.6212  -24.7295  -54.8507 C.3       20 UNK        -0.1800 
    112 C         -6.4515  -24.5748  -56.1578 C.2       20 UNK         0.5000 
    113 O         -6.3936  -25.4802  -56.9919 O.2       20 UNK        -0.5000 
    114 N         -5.3904  -24.1247  -55.4770 N.am      21 UNK        -0.5000 
    115 CA        -4.0227  -24.6048  -55.6694 C.3       21 UNK         0.1400 
    116 CB        -3.6240  -25.5365  -54.5091 C.3       21 UNK        -0.1800 
    117 C         -3.0791  -23.4136  -55.9137 C.2       21 UNK         0.5000 
    118 O         -3.2921  -22.6822  -56.8815 O.2       21 UNK        -0.5000 
    119 N         -2.0422  -23.2489  -55.0797 N.am      22 UNK        -0.5000 
    120 CA        -0.9256  -22.3020  -55.2687 C.3       22 UNK         0.1400 
    121 C          0.0628  -22.7107  -56.4092 C.2       22 UNK         0.5000 
    122 N          0.0887  -23.9676  -56.8377 N.am      22 UNK        -0.7600 
    123 O          0.8342  -21.8951  -56.9060 O.2       22 UNK        -0.5000 
    124 C124       -1.3896  -20.8161  -55.3460 C.3       23 UNK        -0.0398 
    125 S125       -0.1648  -19.6451  -54.6620 S.3       23 UNK        -0.2404 
    126 C126       -0.8478  -19.3400  -53.0074 C.3       23 UNK        -0.0205 
    127 H127        5.3895  -15.7049  -47.6552 H         1 UNK         0.0600 
    128 H128        5.6614  -15.3113  -45.9579 H         1 UNK         0.0600 
    129 H129        5.6806  -14.0268  -47.1704 H         1 UNK         0.0600 
    130 H130        3.5781  -14.1026  -48.5918 H         1 UNK         0.3000 
    131 H131        1.2107  -15.1902  -48.0568 H         1 UNK         0.0600 
    132 H132        1.2111  -12.3166  -49.0812 H         1 UNK         0.0800 
    133 H133        2.0838  -13.5109  -49.9689 H         1 UNK         0.0800 
    134 H134       -0.4161  -14.3918  -52.4351 H         1 UNK         0.0800 
    135 H135        1.2364  -14.0782  -51.9963 H         1 UNK         0.0800 
    136 H136       -0.9947  -16.6199  -52.9420 H         1 UNK         0.1150 
    137 H137        1.1774  -19.9192  -51.2877 H         1 UNK         0.1150 
    138 H138        2.2533  -15.9103  -50.2305 H         1 UNK         0.1150 
    139 H139        2.9390  -19.5829  -49.7439 H         1 UNK         0.0800 
    140 H140        3.8467  -18.1055  -49.9441 H         1 UNK         0.0800 
    141 H141        0.1787  -17.9216  -48.6492 H         1 UNK         0.0800 
    142 H142        0.3266  -17.8283  -46.9276 H         1 UNK         0.0800 
    143 H143        1.0026  -20.4038  -48.4017 H         1 UNK         0.0600 
    144 H144        1.0246  -19.7158  -45.6497 H         1 UNK         0.3000 
    145 H145        0.7183  -23.0697  -44.3914 H         1 UNK         0.0600 
    146 H146        2.7584  -22.2957  -43.2185 H         1 UNK         0.0600 
    147 H147        3.1216  -22.6477  -44.9018 H         1 UNK         0.0600 
    148 H148        2.9591  -20.9788  -44.3708 H         1 UNK         0.0600 
    149 H149        0.8726  -20.5647  -43.0458 H         1 UNK         0.3000 
    150 H150       -2.6749  -19.9507  -42.8974 H         1 UNK         0.0600 
    151 H151       -2.0752  -21.5081  -41.0377 H         1 UNK         0.0600 
    152 H152       -2.0982  -19.8359  -40.4999 H         1 UNK         0.0600 
    153 H153       -0.5612  -20.6465  -40.7926 H         1 UNK         0.0600 
    154 H154       -0.5076  -18.4113  -41.9156 H         1 UNK         0.3000 
    155 H155        0.0303  -16.4383  -44.8826 H         1 UNK         0.0600 
    156 H156       -1.8665  -15.4101  -43.6335 H         1 UNK         0.0600 
    157 H157       -0.3398  -14.6625  -43.1921 H         1 UNK         0.0600 
    158 H158       -1.0998  -15.8176  -42.1010 H         1 UNK         0.0600 
    159 H159        1.3421  -16.3396  -42.3953 H         1 UNK         0.3000 
    160 H160        3.8709  -18.8161  -43.0464 H         1 UNK         0.0600 
    161 H161        3.8395  -15.7688  -42.7265 H         1 UNK         0.0600 
    162 H162        4.6538  -16.6792  -43.9878 H         1 UNK         0.0600 
    163 H163        5.1979  -16.8196  -42.3241 H         1 UNK         0.0600 
    164 H164        3.1817  -17.2216  -40.7518 H         1 UNK         0.3000 
    165 H165        1.1794  -19.6710  -39.1216 H         1 UNK         0.0600 
    166 H166        2.9206  -19.4005  -37.3783 H         1 UNK         0.0600 
    167 H167        3.5287  -20.4004  -38.6879 H         1 UNK         0.0600 
    168 H168        4.0415  -18.7221  -38.5591 H         1 UNK         0.0600 
    169 H169        2.1825  -17.1004  -38.3351 H         1 UNK         0.3000 
    170 H170       -0.5774  -15.1897  -39.5604 H         1 UNK         0.0600 
    171 H171       -1.2725  -16.1603  -37.3628 H         1 UNK         0.0600 
    172 H172        0.3556  -15.9322  -36.7355 H         1 UNK         0.0600 
    173 H173       -0.6294  -14.5370  -37.1757 H         1 UNK         0.0600 
    174 H174        1.7219  -14.3676  -38.1364 H         1 UNK         0.3000 
    175 H175        3.0745  -12.7830  -39.4493 H         1 UNK         0.0600 
    176 H176        4.7042  -15.3217  -40.1180 H         1 UNK         0.0600 
    177 H177        5.3650  -13.8420  -39.4295 H         1 UNK         0.0600 
    178 H178        4.2504  -14.8184  -38.4937 H         1 UNK         0.0600 
    179 H179        3.0064  -13.6976  -42.1272 H         1 UNK         0.3000 
    180 H180        4.7629  -10.9745  -43.4903 H         1 UNK         0.0600 
    181 H181        5.4308  -13.9410  -43.8622 H         1 UNK         0.0600 
    182 H182        6.5875  -12.6797  -43.4559 H         1 UNK         0.0600 
    183 H183        5.7720  -12.6436  -45.0099 H         1 UNK         0.0600 
    184 H184        3.2096  -13.1748  -44.5776 H         1 UNK         0.3000 
    185 H185        0.4192  -12.6680  -44.2826 H         1 UNK         0.0600 
    186 H186       -0.3759  -10.3118  -44.2834 H         1 UNK         0.0600 
    187 H187        0.5262   -9.9802  -45.7594 H         1 UNK         0.0600 
    188 H188       -0.8350  -11.1003  -45.7821 H         1 UNK         0.0600 
    189 H189        2.3342  -12.2436  -46.4463 H         1 UNK         0.3000 
    190 H190       -1.7429  -19.6463  -46.1862 H         1 UNK         0.3000 
    191 H191       -3.7849  -19.8858  -48.1365 H         1 UNK         0.0600 
    192 H192       -3.8885  -20.3962  -45.1185 H         1 UNK         0.0600 
    193 H193       -5.2859  -20.1740  -46.1641 H         1 UNK         0.0600 
    194 H194       -4.1558  -18.8507  -45.9219 H         1 UNK         0.0600 
    195 H195       -2.2117  -22.3746  -46.0940 H         1 UNK         0.3000 
    196 H196       -3.8107  -24.5765  -46.9570 H         1 UNK         0.0600 
    197 H197       -1.9723  -25.9573  -46.0182 H         1 UNK         0.0600 
    198 H198       -2.4018  -24.6556  -44.9182 H         1 UNK         0.0600 
    199 H199       -0.9384  -24.5417  -45.8905 H         1 UNK         0.0600 
    200 H200       -0.6993  -23.2492  -48.1904 H         1 UNK         0.3000 
    201 H201       -0.3549  -25.0746  -50.3389 H         1 UNK         0.0600 
    202 H202        1.4577  -23.6106  -49.4576 H         1 UNK         0.0600 
    203 H203        0.6240  -22.1824  -50.0649 H         1 UNK         0.0600 
    204 H204        1.2524  -23.3791  -51.1879 H         1 UNK         0.0600 
    205 H205       -2.1524  -22.0050  -50.1441 H         1 UNK         0.3000 
    206 H206       -2.9557  -21.8902  -52.8931 H         1 UNK         0.0600 
    207 H207       -2.9265  -19.9528  -51.1920 H         1 UNK         0.0600 
    208 H208       -4.3906  -20.0901  -52.1447 H         1 UNK         0.0600 
    209 H209       -4.3700  -20.6491  -50.4779 H         1 UNK         0.0600 
    210 H210       -3.9825  -23.9076  -50.3230 H         1 UNK         0.3000 
    211 H211       -5.6741  -25.2293  -49.8179 H         1 UNK         0.0600 
    212 H212       -6.2548  -25.2377  -52.8253 H         1 UNK         0.0600 
    213 H213       -6.9676  -26.3440  -51.6584 H         1 UNK         0.0600 
    214 H214       -5.2359  -26.3676  -51.9436 H         1 UNK         0.0600 
    215 H215       -6.0220  -22.7603  -49.1227 H         1 UNK         0.3000 
    216 H216       -7.3798  -21.2803  -48.2808 H         1 UNK         0.0600 
    217 H217       -9.8035  -21.5556  -48.1214 H         1 UNK         0.0600 
    218 H218       -9.0425  -23.1133  -47.8428 H         1 UNK         0.0600 
    219 H219       -9.8148  -22.7663  -49.3911 H         1 UNK         0.0600 
    220 H220       -6.8951  -21.6728  -51.4437 H         1 UNK         0.3000 
    221 H221       -6.6304  -20.4136  -53.1403 H         1 UNK         0.0600 
    222 H222       -7.8683  -18.0088  -51.7025 H         1 UNK         0.0600 
    223 H223       -6.1623  -18.4476  -51.6518 H         1 UNK         0.0600 
    224 H224       -6.9058  -17.9648  -53.1691 H         1 UNK         0.0600 
    225 H225       -9.6400  -20.1425  -55.1403 H         1 UNK         0.3000 
    226 H226       -6.6803  -19.7541  -55.1270 H         1 UNK         0.0600 
    227 H227       -8.0733  -18.0520  -56.2927 H         1 UNK         0.0600 
    228 H228       -7.0494  -18.9491  -57.3987 H         1 UNK         0.0600 
    229 H229       -8.7680  -19.3179  -57.3042 H         1 UNK         0.0600 
    230 H230       -8.1532  -22.3329  -54.5289 H         1 UNK         0.3000 
    231 H231       -8.3707  -23.9408  -56.8206 H         1 UNK         0.0600 
    232 H232       -8.6333  -25.7905  -55.1041 H         1 UNK         0.0600 
    233 H233       -9.6580  -24.3951  -54.8122 H         1 UNK         0.0600 
    234 H234       -8.2067  -24.6334  -53.8478 H         1 UNK         0.0600 
    235 H235       -5.5190  -23.3898  -54.7891 H         1 UNK         0.3000 
    236 H236       -3.9585  -25.1964  -56.5847 H         1 UNK         0.0600 
    237 H237       -3.6868  -25.0390  -53.5444 H         1 UNK         0.0600 
    238 H238       -4.2809  -26.4054  -54.4700 H         1 UNK         0.0600 
    239 H239       -2.6071  -25.9121  -54.6280 H         1 UNK         0.0600 
    240 H240       -1.9460  -23.8623  -54.2748 H         1 UNK         0.3000 
    241 H241       -0.3404  -22.4086  -54.3546 H         1 UNK         0.0600 
    242 H242        0.7327  -24.2269  -57.5687 H         1 UNK         0.3800 
    243 H243       -0.5177  -24.6635  -56.4354 H         1 UNK         0.3800 
    244 H244       -1.6066  -20.5330  -56.3773 H         1 UNK         0.0800 
    245 H245       -2.3284  -20.6789  -54.8094 H         1 UNK         0.0800 
    246 H246       -0.9247  -20.2874  -52.4721 H         1 UNK         0.0800 
    247 H247       -1.8593  -18.9423  -53.1001 H         1 UNK         0.0800 
@<TRIPOS>BOND
     1    1    2 1    
     2    1  127 1    
     3    1  128 1    
     4    1  129 1    
     5    2    3 2    
     6    2    4 am   BACKBONE|DICT|INTERRES
     7    4    5 1    
     8    4  130 1    
     9    5    6 1    
    10    5   65 1    
    11    5  131 1    
    12    6    7 1    
    13    6  132 1    
    14    6  133 1    
    15    7    8 1    
    16    8    9 1    
    17    8  134 1    
    18    8  135 1    
    19    9   10 ar   
    20    9   14 ar   
    21   10   11 ar   
    22   10  136 1    
    23   11   12 ar   
    24   11  126 1    
    25   12   13 ar   
    26   12  137 1    
    27   13   14 ar   
    28   13   15 1    
    29   14  138 1    
    30   15   16 1    
    31   15  139 1    
    32   15  140 1    
    33   16   17 1    
    34   17   18 1    
    35   17  141 1    
    36   17  142 1    
    37   18   19 1    
    38   18   67 1    
    39   18  143 1    
    40   19   20 am   BACKBONE|DICT|INTERRES
    41   19  144 1    
    42   20   21 2    
    43   20   22 1    
    44   22   23 1    
    45   22   24 1    
    46   22  145 1    
    47   23  146 1    
    48   23  147 1    
    49   23  148 1    
    50   24   25 am   BACKBONE|DICT|INTERRES
    51   24  149 1    
    52   25   26 2    
    53   25   27 1    
    54   27   28 1    
    55   27   29 1    
    56   27  150 1    
    57   28  151 1    
    58   28  152 1    
    59   28  153 1    
    60   29   30 am   BACKBONE|DICT|INTERRES
    61   29  154 1    
    62   30   31 2    
    63   30   32 1    
    64   32   33 1    
    65   32   34 1    
    66   32  155 1    
    67   33  156 1    
    68   33  157 1    
    69   33  158 1    
    70   34   35 am   BACKBONE|DICT|INTERRES
    71   34  159 1    
    72   35   36 2    
    73   35   37 1    
    74   37   38 1    
    75   37   39 1    
    76   37  160 1    
    77   38  161 1    
    78   38  162 1    
    79   38  163 1    
    80   39   40 am   BACKBONE|DICT|INTERRES
    81   39  164 1    
    82   40   41 2    
    83   40   42 1    
    84   42   43 1    
    85   42   44 1    
    86   42  165 1    
    87   43  166 1    
    88   43  167 1    
    89   43  168 1    
    90   44   45 am   BACKBONE|DICT|INTERRES
    91   44  169 1    
    92   45   46 2    
    93   45   47 1    
    94   47   48 1    
    95   47   49 1    
    96   47  170 1    
    97   48  171 1    
    98   48  172 1    
    99   48  173 1    
   100   49   50 am   BACKBONE|DICT|INTERRES
   101   49  174 1    
   102   50   51 2    
   103   50   52 1    
   104   52   53 1    
   105   52   54 1    
   106   52  175 1    
   107   53  176 1    
   108   53  177 1    
   109   53  178 1    
   110   54   55 am   BACKBONE|DICT|INTERRES
   111   54  179 1    
   112   55   56 2    
   113   55   57 1    
   114   57   58 1    
   115   57   59 1    
   116   57  180 1    
   117   58  181 1    
   118   58  182 1    
   119   58  183 1    
   120   59   60 am   BACKBONE|DICT|INTERRES
   121   59  184 1    
   122   60   61 2    
   123   60   62 1    
   124   62   63 1    
   125   62   64 1    
   126   62  185 1    
   127   63  186 1    
   128   63  187 1    
   129   63  188 1    
   130   64   65 am   BACKBONE|DICT|INTERRES
   131   64  189 1    
   132   65   66 2    
   133   67   68 2    
   134   67   69 am   BACKBONE|DICT|INTERRES
   135   69   70 1    
   136   69  190 1    
   137   70   71 1    
   138   70   72 1    
   139   70  191 1    
   140   71  192 1    
   141   71  193 1    
   142   71  194 1    
   143   72   73 2    
   144   72   74 am   BACKBONE|DICT|INTERRES
   145   74   75 1    
   146   74  195 1    
   147   75   76 1    
   148   75   77 1    
   149   75  196 1    
   150   76  197 1    
   151   76  198 1    
   152   76  199 1    
   153   77   78 2    
   154   77   79 am   BACKBONE|DICT|INTERRES
   155   79   80 1    
   156   79  200 1    
   157   80   81 1    
   158   80   82 1    
   159   80  201 1    
   160   81  202 1    
   161   81  203 1    
   162   81  204 1    
   163   82   83 2    
   164   82   84 am   BACKBONE|DICT|INTERRES
   165   84   85 1    
   166   84  205 1    
   167   85   86 1    
   168   85   87 1    
   169   85  206 1    
   170   86  207 1    
   171   86  208 1    
   172   86  209 1    
   173   87   88 2    
   174   87   89 am   BACKBONE|DICT|INTERRES
   175   89   90 1    
   176   89  210 1    
   177   90   91 1    
   178   90   92 1    
   179   90  211 1    
   180   91  212 1    
   181   91  213 1    
   182   91  214 1    
   183   92   93 2    
   184   92   94 am   BACKBONE|DICT|INTERRES
   185   94   95 1    
   186   94  215 1    
   187   95   96 1    
   188   95   97 1    
   189   95  216 1    
   190   96  217 1    
   191   96  218 1    
   192   96  219 1    
   193   97   98 2    
   194   97   99 am   BACKBONE|DICT|INTERRES
   195   99  100 1    
   196   99  220 1    
   197  100  101 1    
   198  100  102 1    
   199  100  221 1    
   200  101  222 1    
   201  101  223 1    
   202  101  224 1    
   203  102  103 2    
   204  102  104 am   BACKBONE|DICT|INTERRES
   205  104  105 1    
   206  104  225 1    
   207  105  106 1    
   208  105  107 1    
   209  105  226 1    
   210  106  227 1    
   211  106  228 1    
   212  106  229 1    
   213  107  108 2    
   214  107  109 am   BACKBONE|DICT|INTERRES
   215  109  110 1    
   216  109  230 1    
   217  110  111 1    
   218  110  112 1    
   219  110  231 1    
   220  111  232 1    
   221  111  233 1    
   222  111  234 1    
   223  112  113 2    
   224  112  114 am   BACKBONE|DICT|INTERRES
   225  114  115 1    
   226  114  235 1    
   227  115  116 1    
   228  115  117 1    
   229  115  236 1    
   230  116  237 1    
   231  116  238 1    
   232  116  239 1    
   233  117  118 2    
   234  117  119 am   BACKBONE|DICT|INTERRES
   235  119  120 1    
   236  119  240 1    
   237  120  121 1    
   238  120  124 1    
   239  120  241 1    
   240  121  122 am   BACKBONE|DICT|INTERRES
   241  121  123 2    
   242  122  242 1    
   243  122  243 1    
   244  124  125 1    
   245  124  244 1    
   246  124  245 1    
   247  125  126 1    
   248  126  246 1    
   249  126  247 1    
@<TRIPOS>SUBSTRUCTURE
     1 UNK         1 GROUP             0       ****    0 ROOT    
