@<TRIPOS>MOLECULE
3R540
247   249    1
SMALL
USER_CHARGES


@<TRIPOS>ATOM
      1 CA          0.8435   -9.6076  -51.1039 C.3       0 UNK        -0.1800 
      2 C           0.4653  -11.0030  -50.6281 C.2       0 UNK         0.5000 
      3 O           1.3238  -11.8824  -50.5663 O.2       0 UNK        -0.5000 
      4 N          -0.8127  -11.2066  -50.2904 N.am      1 UNK        -0.5000 
      5 CA         -1.3617  -12.4772  -49.8089 C.3       1 UNK         0.1400 
      6 C6         -1.7759  -13.4202  -50.9723 C.3       23 UNK        -0.0398 
      7 S7         -1.5517  -15.1803  -50.5522 S.3       23 UNK        -0.2404 
      8 C8          0.1548  -15.4386  -51.1194 C.3       23 UNK        -0.0205 
      9 C9          0.6559  -16.8263  -50.7564 C.ar      23 UNK        -0.0193 
     10 C10         0.4214  -17.9049  -51.6127 C.ar      23 UNK        -0.1150 
     11 C11         0.9060  -19.1771  -51.2972 C.ar      23 UNK        -0.0193 
     12 C12         1.6324  -19.3640  -50.1187 C.ar      23 UNK        -0.1150 
     13 C13         1.8606  -18.2967  -49.2414 C.ar      23 UNK        -0.0193 
     14 C14         1.3682  -17.0301  -49.5712 C.ar      23 UNK        -0.1150 
     15 C15         2.6660  -18.4625  -47.9543 C.3       23 UNK        -0.0205 
     16 S16         2.5993  -20.1207  -47.1988 S.3       23 UNK        -0.2404 
     17 C17         0.8650  -20.2186  -46.6327 C.3       23 UNK        -0.0398 
     18 CA          0.2027  -21.5680  -47.0154 C.3       11 UNK         0.1400 
     19 N           0.9497  -22.7017  -46.4790 N.am      11 UNK        -0.5000 
     20 C           1.2801  -23.8064  -47.1559 C.2       10 UNK         0.5000 
     21 O           0.9741  -24.0067  -48.3304 O.2       10 UNK        -0.5000 
     22 CA          2.1033  -24.8720  -46.4018 C.3       10 UNK         0.1400 
     23 CB          3.5627  -24.8574  -46.8822 C.3       10 UNK        -0.1800 
     24 N           2.0884  -24.7111  -44.9455 N.am      10 UNK        -0.5000 
     25 C           1.0120  -24.8918  -44.1699 C.2       9 UNK         0.5000 
     26 O          -0.0887  -25.2327  -44.5998 O.2       9 UNK        -0.5000 
     27 CA          1.1770  -24.5680  -42.6742 C.3       9 UNK         0.1400 
     28 CB          1.6951  -25.7945  -41.9098 C.3       9 UNK        -0.1800 
     29 N           2.0516  -23.4198  -42.4114 N.am      9 UNK        -0.5000 
     30 C           1.8166  -22.1707  -42.8348 C.2       8 UNK         0.5000 
     31 O           0.8721  -21.8649  -43.5650 O.2       8 UNK        -0.5000 
     32 CA          2.7982  -21.0798  -42.3781 C.3       8 UNK         0.1400 
     33 CB          3.5369  -20.4643  -43.5748 C.3       8 UNK        -0.1800 
     34 N           2.0930  -20.0234  -41.6572 N.am      8 UNK        -0.5000 
     35 C           1.5691  -20.1533  -40.4345 C.2       7 UNK         0.5000 
     36 O           1.6671  -21.1798  -39.7604 O.2       7 UNK        -0.5000 
     37 CA          0.8148  -18.9446  -39.8503 C.3       7 UNK         0.1400 
     38 CB          1.7944  -17.9089  -39.2653 C.3       7 UNK        -0.1800 
     39 N          -0.1615  -18.3107  -40.7479 N.am      7 UNK        -0.5000 
     40 C           0.0422  -17.5967  -41.8645 C.2       6 UNK         0.5000 
     41 O           1.1433  -17.4420  -42.3984 O.2       6 UNK        -0.5000 
     42 CA         -1.2150  -16.9112  -42.4336 C.3       6 UNK         0.1400 
     43 CB         -1.7103  -15.8085  -41.4810 C.3       6 UNK        -0.1800 
     44 N          -0.9922  -16.3117  -43.7469 N.am      6 UNK        -0.5000 
     45 C          -1.0715  -16.9676  -44.9121 C.2       5 UNK         0.5000 
     46 O          -1.2685  -18.1787  -45.0026 O.2       5 UNK        -0.5000 
     47 CA         -0.9783  -16.1290  -46.2016 C.3       5 UNK         0.1400 
     48 CB         -2.3907  -15.9003  -46.7622 C.3       5 UNK        -0.1800 
     49 N          -0.3388  -14.8274  -46.0023 N.am      5 UNK        -0.5000 
     50 C           0.9845  -14.6479  -45.8774 C.2       4 UNK         0.5000 
     51 O           1.8042  -15.5594  -45.9727 O.2       4 UNK        -0.5000 
     52 CA          1.4920  -13.2175  -45.5989 C.3       4 UNK         0.1400 
     53 CB          2.0230  -12.5805  -46.8930 C.3       4 UNK        -0.1800 
     54 N           0.4892  -12.3250  -45.0154 N.am      4 UNK        -0.5000 
     55 C          -0.1032  -12.4835  -43.8231 C.2       3 UNK         0.5000 
     56 O           0.1645  -13.3982  -43.0454 O.2       3 UNK        -0.5000 
     57 CA         -1.2205  -11.4804  -43.4663 C.3       3 UNK         0.1400 
     58 CB         -0.6692  -10.3528  -42.5812 C.3       3 UNK        -0.1800 
     59 N          -1.8777  -10.8929  -44.6409 N.am      3 UNK        -0.5000 
     60 C          -2.5604  -11.5879  -45.5624 C.2       2 UNK         0.5000 
     61 O          -2.7241  -12.8060  -45.4961 O.2       2 UNK        -0.5000 
     62 CA         -3.0847  -10.8218  -46.7918 C.3       2 UNK         0.1400 
     63 CB         -3.0828   -9.2890  -46.6244 C.3       2 UNK        -0.1800 
     64 N          -2.2540  -11.1726  -47.9422 N.am      2 UNK        -0.5000 
     65 C          -2.4674  -12.2093  -48.7658 C.2       1 UNK         0.5000 
     66 O          -3.4782  -12.9112  -48.7290 O.2       1 UNK        -0.5000 
     67 C          -1.2476  -21.6452  -46.5056 C.2       11 UNK         0.5000 
     68 O          -2.1784  -21.6869  -47.3140 O.2       11 UNK        -0.5000 
     69 N          -1.3996  -21.6703  -45.1742 N.am      12 UNK        -0.5000 
     70 CA         -2.6679  -21.5510  -44.4651 C.3       12 UNK         0.1400 
     71 CB         -2.4098  -20.9414  -43.0754 C.3       12 UNK        -0.1800 
     72 C          -3.4027  -22.8928  -44.3407 C.2       12 UNK         0.5000 
     73 O          -4.5224  -23.0158  -44.8350 O.2       12 UNK        -0.5000 
     74 N          -2.7763  -23.8691  -43.6674 N.am      13 UNK        -0.5000 
     75 CA         -3.3902  -25.1568  -43.3199 C.3       13 UNK         0.1400 
     76 CB         -2.5414  -25.8740  -42.2584 C.3       13 UNK        -0.1800 
     77 C          -3.6262  -26.0586  -44.5437 C.2       13 UNK         0.5000 
     78 O          -4.6563  -26.7288  -44.6205 O.2       13 UNK        -0.5000 
     79 N          -2.6892  -26.0174  -45.4991 N.am      14 UNK        -0.5000 
     80 CA         -2.7981  -26.6559  -46.8118 C.3       14 UNK         0.1400 
     81 CB         -1.4016  -26.7049  -47.4487 C.3       14 UNK        -0.1800 
     82 C          -3.7907  -25.9418  -47.7541 C.2       14 UNK         0.5000 
     83 O          -4.1652  -26.5163  -48.7763 O.2       14 UNK        -0.5000 
     84 N          -4.1779  -24.7044  -47.4048 N.am      15 UNK        -0.5000 
     85 CA         -5.1060  -23.8084  -48.1032 C.3       15 UNK         0.1400 
     86 CB         -6.5212  -24.4181  -48.1654 C.3       15 UNK        -0.1800 
     87 C          -4.6119  -23.3293  -49.4824 C.2       15 UNK         0.5000 
     88 O          -5.4041  -22.7896  -50.2546 O.2       15 UNK        -0.5000 
     89 N          -3.3123  -23.4882  -49.7655 N.am      16 UNK        -0.5000 
     90 CA         -2.6797  -23.0945  -51.0238 C.3       16 UNK         0.1400 
     91 CB         -1.2407  -23.6252  -51.0562 C.3       16 UNK        -0.1800 
     92 C          -2.7001  -21.5745  -51.2529 C.2       16 UNK         0.5000 
     93 O          -2.8482  -21.1382  -52.3948 O.2       16 UNK        -0.5000 
     94 N          -2.5788  -20.7960  -50.1689 N.am      17 UNK        -0.5000 
     95 CA         -2.6670  -19.3375  -50.2064 C.3       17 UNK         0.1400 
     96 CB         -2.0108  -18.7580  -48.9503 C.3       17 UNK        -0.1800 
     97 C          -4.1162  -18.8451  -50.3486 C.2       17 UNK         0.5000 
     98 O          -4.3514  -17.8497  -51.0316 O.2       17 UNK        -0.5000 
     99 N          -5.0653  -19.5724  -49.7414 N.am      18 UNK        -0.5000 
    100 CA        -6.5026  -19.3102  -49.8450 C.3       18 UNK         0.1400 
    101 CB        -7.2516  -20.1184  -48.7741 C.3       18 UNK        -0.1800 
    102 C         -7.0449  -19.6179  -51.2532 C.2       18 UNK         0.5000 
    103 O         -7.8512  -18.8506  -51.7797 O.2       18 UNK        -0.5000 
    104 N         -6.5580  -20.7144  -51.8499 N.am      19 UNK        -0.5000 
    105 CA        -6.8243  -21.1086  -53.2338 C.3       19 UNK         0.1400 
    106 CB        -6.4186  -22.5807  -53.4097 C.3       19 UNK        -0.1800 
    107 C         -6.0899  -20.2329  -54.2692 C.2       19 UNK         0.5000 
    108 O         -6.4873  -20.2262  -55.4348 O.2       19 UNK        -0.5000 
    109 N         -5.0292  -19.5372  -53.8300 N.am      20 UNK        -0.5000 
    110 CA        -4.0841  -18.7423  -54.6208 C.3       20 UNK         0.1400 
    111 CB        -4.7714  -17.4981  -55.2193 C.3       20 UNK        -0.1800 
    112 C         -3.3513  -19.6069  -55.6679 C.2       20 UNK         0.5000 
    113 O         -3.2604  -19.2363  -56.8395 O.2       20 UNK        -0.5000 
    114 N         -2.8701  -20.7726  -55.2161 N.am      21 UNK        -0.5000 
    115 CA        -2.2141  -21.7886  -56.0397 C.3       21 UNK         0.1400 
    116 CB        -2.2053  -23.1147  -55.2633 C.3       21 UNK        -0.1800 
    117 C         -0.7840  -21.4023  -56.4627 C.2       21 UNK         0.5000 
    118 O         -0.3036  -21.8854  -57.4890 O.2       21 UNK        -0.5000 
    119 N         -0.1293  -20.5563  -55.6602 N.am      22 UNK        -0.5000 
    120 CA         1.2242  -20.0384  -55.8992 C.3       22 UNK         0.1400 
    121 C          1.2403  -18.9718  -57.0272 C.2       22 UNK         0.5000 
    122 N          2.1956  -19.0397  -57.9443 N.am      22 UNK        -0.7600 
    123 O          0.4205  -18.0568  -57.0513 O.2       22 UNK        -0.5000 
    124 C124        1.8491  -19.4666  -54.6023 C.3       23 UNK        -0.0398 
    125 S125        2.0327  -20.7349  -53.3014 S.3       23 UNK        -0.2404 
    126 C126        0.6276  -20.3617  -52.2075 C.3       23 UNK        -0.0205 
    127 H127       -0.0128   -8.9327  -51.1053 H         1 UNK         0.0600 
    128 H128        1.2426   -9.6526  -52.1171 H         1 UNK         0.0600 
    129 H129        1.6089   -9.1845  -50.4533 H         1 UNK         0.0600 
    130 H130       -1.4790  -10.4496  -50.3704 H         1 UNK         0.3000 
    131 H131       -0.5733  -12.9733  -49.2386 H         1 UNK         0.0600 
    132 H132       -2.8103  -13.2514  -51.2760 H         1 UNK         0.0800 
    133 H133       -1.1798  -13.2136  -51.8622 H         1 UNK         0.0800 
    134 H134        0.8039  -14.6808  -50.6774 H         1 UNK         0.0800 
    135 H135        0.2051  -15.2954  -52.1998 H         1 UNK         0.0800 
    136 H136       -0.1446  -17.7511  -52.5204 H         1 UNK         0.1150 
    137 H137        2.0160  -20.3481  -49.8910 H         1 UNK         0.1150 
    138 H138        1.5479  -16.1959  -48.9068 H         1 UNK         0.1150 
    139 H139        2.3333  -17.7412  -47.2086 H         1 UNK         0.0800 
    140 H140        3.7077  -18.2241  -48.1710 H         1 UNK         0.0800 
    141 H141        0.3008  -19.3836  -47.0463 H         1 UNK         0.0800 
    142 H142        0.8585  -20.0674  -45.5525 H         1 UNK         0.0800 
    143 H143        0.1701  -21.6215  -48.1060 H         1 UNK         0.0600 
    144 H144        1.2139  -22.6326  -45.5050 H         1 UNK         0.3000 
    145 H145        1.6715  -25.8461  -46.6411 H         1 UNK         0.0600 
    146 H146        3.6213  -25.0124  -47.9604 H         1 UNK         0.0600 
    147 H147        4.1427  -25.6505  -46.4098 H         1 UNK         0.0600 
    148 H148        4.0483  -23.9060  -46.6610 H         1 UNK         0.0600 
    149 H149        2.9500  -24.4145  -44.5114 H         1 UNK         0.3000 
    150 H150        0.1884  -24.3198  -42.2834 H         1 UNK         0.0600 
    151 H151        2.7014  -26.0719  -42.2262 H         1 UNK         0.0600 
    152 H152        1.0493  -26.6584  -42.0734 H         1 UNK         0.0600 
    153 H153        1.7193  -25.6085  -40.8359 H         1 UNK         0.0600 
    154 H154        2.8434  -23.5891  -41.8077 H         1 UNK         0.3000 
    155 H155        3.5405  -21.5234  -41.7113 H         1 UNK         0.0600 
    156 H156        4.3243  -19.7875  -43.2431 H         1 UNK         0.0600 
    157 H157        2.8604  -19.8952  -44.2121 H         1 UNK         0.0600 
    158 H158        4.0049  -21.2331  -44.1910 H         1 UNK         0.0600 
    159 H159        1.9297  -19.1483  -42.1481 H         1 UNK         0.3000 
    160 H160        0.2253  -19.3295  -39.0165 H         1 UNK         0.0600 
    161 H161        2.4360  -17.4738  -40.0319 H         1 UNK         0.0600 
    162 H162        2.4454  -18.3677  -38.5200 H         1 UNK         0.0600 
    163 H163        1.2608  -17.0956  -38.7735 H         1 UNK         0.0600 
    164 H164       -1.1167  -18.3933  -40.4287 H         1 UNK         0.3000 
    165 H165       -2.0031  -17.6613  -42.5217 H         1 UNK         0.0600 
    166 H166       -2.5685  -15.2807  -41.8976 H         1 UNK         0.0600 
    167 H167       -2.0237  -16.2227  -40.5222 H         1 UNK         0.0600 
    168 H168       -0.9315  -15.0729  -41.2777 H         1 UNK         0.0600 
    169 H169       -0.7426  -15.3312  -43.7536 H         1 UNK         0.3000 
    170 H170       -0.4041  -16.7003  -46.9344 H         1 UNK         0.0600 
    171 H171       -2.3623  -15.3506  -47.7018 H         1 UNK         0.0600 
    172 H172       -3.0138  -15.3395  -46.0658 H         1 UNK         0.0600 
    173 H173       -2.8998  -16.8455  -46.9494 H         1 UNK         0.0600 
    174 H174       -0.9610  -14.0361  -45.8881 H         1 UNK         0.3000 
    175 H175        2.3186  -13.2988  -44.8901 H         1 UNK         0.0600 
    176 H176        2.7905  -13.2055  -47.3517 H         1 UNK         0.0600 
    177 H177        1.2307  -12.4441  -47.6295 H         1 UNK         0.0600 
    178 H178        2.4732  -11.6068  -46.6994 H         1 UNK         0.0600 
    179 H179        0.2067  -11.5375  -45.5784 H         1 UNK         0.3000 
    180 H180       -1.9769  -12.0249  -42.8971 H         1 UNK         0.0600 
    181 H181        0.0775   -9.7566  -43.1071 H         1 UNK         0.0600 
    182 H182       -0.1958  -10.7560  -41.6849 H         1 UNK         0.0600 
    183 H183       -1.4647   -9.6835  -42.2532 H         1 UNK         0.0600 
    184 H184       -1.7806   -9.8950  -44.7608 H         1 UNK         0.3000 
    185 H185       -4.1155  -11.1409  -46.9596 H         1 UNK         0.0600 
    186 H186       -3.6673   -8.9867  -45.7542 H         1 UNK         0.0600 
    187 H187       -2.0761   -8.8845  -46.5123 H         1 UNK         0.0600 
    188 H188       -3.5327   -8.8067  -47.4924 H         1 UNK         0.0600 
    189 H189       -1.3949  -10.6528  -48.0481 H         1 UNK         0.3000 
    190 H190       -0.5668  -21.6731  -44.5879 H         1 UNK         0.3000 
    191 H191       -3.3120  -20.8627  -45.0172 H         1 UNK         0.0600 
    192 H192       -1.9442  -19.9613  -43.1600 H         1 UNK         0.0600 
    193 H193       -3.3420  -20.8128  -42.5242 H         1 UNK         0.0600 
    194 H194       -1.7496  -21.5626  -42.4691 H         1 UNK         0.0600 
    195 H195       -1.8344  -23.7102  -43.3444 H         1 UNK         0.3000 
    196 H196       -4.3661  -24.9471  -42.8765 H         1 UNK         0.0600 
    197 H197       -3.0400  -26.7813  -41.9151 H         1 UNK         0.0600 
    198 H198       -2.3814  -25.2422  -41.3847 H         1 UNK         0.0600 
    199 H199       -1.5668  -26.1694  -42.6448 H         1 UNK         0.0600 
    200 H200       -1.8277  -25.5132  -45.3028 H         1 UNK         0.3000 
    201 H201       -3.1505  -27.6799  -46.6718 H         1 UNK         0.0600 
    202 H202       -1.4231  -27.2300  -48.4044 H         1 UNK         0.0600 
    203 H203       -0.6907  -27.2251  -46.8064 H         1 UNK         0.0600 
    204 H204       -1.0161  -25.7028  -47.6337 H         1 UNK         0.0600 
    205 H205       -3.8258  -24.3383  -46.5299 H         1 UNK         0.3000 
    206 H206       -5.1667  -22.9087  -47.4898 H         1 UNK         0.0600 
    207 H207       -6.8583  -24.7296  -47.1766 H         1 UNK         0.0600 
    208 H208       -7.2458  -23.6942  -48.5396 H         1 UNK         0.0600 
    209 H209       -6.5607  -25.2861  -48.8237 H         1 UNK         0.0600 
    210 H210       -2.7191  -23.9029  -49.0626 H         1 UNK         0.3000 
    211 H211       -3.2360  -23.5607  -51.8396 H         1 UNK         0.0600 
    212 H212       -0.6303  -23.1712  -50.2753 H         1 UNK         0.0600 
    213 H213       -0.7645  -23.4085  -52.0130 H         1 UNK         0.0600 
    214 H214       -1.2129  -24.7061  -50.9175 H         1 UNK         0.0600 
    215 H215       -2.4693  -21.2276  -49.2561 H         1 UNK         0.3000 
    216 H216       -2.1124  -18.9767  -51.0740 H         1 UNK         0.0600 
    217 H217       -1.9935  -17.6701  -48.9942 H         1 UNK         0.0600 
    218 H218       -0.9788  -19.0905  -48.8712 H         1 UNK         0.0600 
    219 H219       -2.5348  -19.0504  -48.0398 H         1 UNK         0.0600 
    220 H220       -4.7876  -20.3959  -49.2296 H         1 UNK         0.3000 
    221 H221       -6.6697  -18.2492  -49.6470 H         1 UNK         0.0600 
    222 H222       -7.1294  -21.1920  -48.9156 H         1 UNK         0.0600 
    223 H223       -6.8992  -19.8694  -47.7731 H         1 UNK         0.0600 
    224 H224       -8.3208  -19.9052  -48.8045 H         1 UNK         0.0600 
    225 H225       -5.9684  -21.3426  -51.3090 H         1 UNK         0.3000 
    226 H226       -7.8963  -21.0198  -53.4209 H         1 UNK         0.0600 
    227 H227       -6.6330  -22.9294  -54.4207 H         1 UNK         0.0600 
    228 H228       -5.3523  -22.7260  -53.2309 H         1 UNK         0.0600 
    229 H229       -6.9638  -23.2256  -52.7202 H         1 UNK         0.0600 
    230 H230       -4.7869  -19.6436  -52.8551 H         1 UNK         0.3000 
    231 H231       -3.3214  -18.3927  -53.9232 H         1 UNK         0.0600 
    232 H232       -5.5224  -17.7647  -55.9634 H         1 UNK         0.0600 
    233 H233       -4.0436  -16.8492  -55.7077 H         1 UNK         0.0600 
    234 H234       -5.2614  -16.9100  -54.4432 H         1 UNK         0.0600 
    235 H235       -2.9703  -20.9835  -54.2249 H         1 UNK         0.3000 
    236 H236       -2.8032  -21.9273  -56.9487 H         1 UNK         0.0600 
    237 H237       -1.6319  -23.0337  -54.3392 H         1 UNK         0.0600 
    238 H238       -3.2170  -23.4270  -55.0033 H         1 UNK         0.0600 
    239 H239       -1.7603  -23.9136  -55.8578 H         1 UNK         0.0600 
    240 H240       -0.6194  -20.1862  -54.8619 H         1 UNK         0.3000 
    241 H241        1.8437  -20.8784  -56.2210 H         1 UNK         0.0600 
    242 H242        2.2254  -18.3429  -58.6728 H         1 UNK         0.3800 
    243 H243        2.8824  -19.7786  -57.9406 H         1 UNK         0.3800 
    244 H244        1.2660  -18.6241  -54.2306 H         1 UNK         0.0800 
    245 H245        2.8457  -19.0721  -54.8079 H         1 UNK         0.0800 
    246 H246       -0.2741  -20.1926  -52.7961 H         1 UNK         0.0800 
    247 H247        0.4270  -21.2397  -51.5936 H         1 UNK         0.0800 
@<TRIPOS>BOND
     1    1    2 1    
     2    1  127 1    
     3    1  128 1    
     4    1  129 1    
     5    2    3 2    
     6    2    4 am   BACKBONE|DICT|INTERRES
     7    4    5 1    
     8    4  130 1    
     9    5    6 1    
    10    5   65 1    
    11    5  131 1    
    12    6    7 1    
    13    6  132 1    
    14    6  133 1    
    15    7    8 1    
    16    8    9 1    
    17    8  134 1    
    18    8  135 1    
    19    9   10 ar   
    20    9   14 ar   
    21   10   11 ar   
    22   10  136 1    
    23   11   12 ar   
    24   11  126 1    
    25   12   13 ar   
    26   12  137 1    
    27   13   14 ar   
    28   13   15 1    
    29   14  138 1    
    30   15   16 1    
    31   15  139 1    
    32   15  140 1    
    33   16   17 1    
    34   17   18 1    
    35   17  141 1    
    36   17  142 1    
    37   18   19 1    
    38   18   67 1    
    39   18  143 1    
    40   19   20 am   BACKBONE|DICT|INTERRES
    41   19  144 1    
    42   20   21 2    
    43   20   22 1    
    44   22   23 1    
    45   22   24 1    
    46   22  145 1    
    47   23  146 1    
    48   23  147 1    
    49   23  148 1    
    50   24   25 am   BACKBONE|DICT|INTERRES
    51   24  149 1    
    52   25   26 2    
    53   25   27 1    
    54   27   28 1    
    55   27   29 1    
    56   27  150 1    
    57   28  151 1    
    58   28  152 1    
    59   28  153 1    
    60   29   30 am   BACKBONE|DICT|INTERRES
    61   29  154 1    
    62   30   31 2    
    63   30   32 1    
    64   32   33 1    
    65   32   34 1    
    66   32  155 1    
    67   33  156 1    
    68   33  157 1    
    69   33  158 1    
    70   34   35 am   BACKBONE|DICT|INTERRES
    71   34  159 1    
    72   35   36 2    
    73   35   37 1    
    74   37   38 1    
    75   37   39 1    
    76   37  160 1    
    77   38  161 1    
    78   38  162 1    
    79   38  163 1    
    80   39   40 am   BACKBONE|DICT|INTERRES
    81   39  164 1    
    82   40   41 2    
    83   40   42 1    
    84   42   43 1    
    85   42   44 1    
    86   42  165 1    
    87   43  166 1    
    88   43  167 1    
    89   43  168 1    
    90   44   45 am   BACKBONE|DICT|INTERRES
    91   44  169 1    
    92   45   46 2    
    93   45   47 1    
    94   47   48 1    
    95   47   49 1    
    96   47  170 1    
    97   48  171 1    
    98   48  172 1    
    99   48  173 1    
   100   49   50 am   BACKBONE|DICT|INTERRES
   101   49  174 1    
   102   50   51 2    
   103   50   52 1    
   104   52   53 1    
   105   52   54 1    
   106   52  175 1    
   107   53  176 1    
   108   53  177 1    
   109   53  178 1    
   110   54   55 am   BACKBONE|DICT|INTERRES
   111   54  179 1    
   112   55   56 2    
   113   55   57 1    
   114   57   58 1    
   115   57   59 1    
   116   57  180 1    
   117   58  181 1    
   118   58  182 1    
   119   58  183 1    
   120   59   60 am   BACKBONE|DICT|INTERRES
   121   59  184 1    
   122   60   61 2    
   123   60   62 1    
   124   62   63 1    
   125   62   64 1    
   126   62  185 1    
   127   63  186 1    
   128   63  187 1    
   129   63  188 1    
   130   64   65 am   BACKBONE|DICT|INTERRES
   131   64  189 1    
   132   65   66 2    
   133   67   68 2    
   134   67   69 am   BACKBONE|DICT|INTERRES
   135   69   70 1    
   136   69  190 1    
   137   70   71 1    
   138   70   72 1    
   139   70  191 1    
   140   71  192 1    
   141   71  193 1    
   142   71  194 1    
   143   72   73 2    
   144   72   74 am   BACKBONE|DICT|INTERRES
   145   74   75 1    
   146   74  195 1    
   147   75   76 1    
   148   75   77 1    
   149   75  196 1    
   150   76  197 1    
   151   76  198 1    
   152   76  199 1    
   153   77   78 2    
   154   77   79 am   BACKBONE|DICT|INTERRES
   155   79   80 1    
   156   79  200 1    
   157   80   81 1    
   158   80   82 1    
   159   80  201 1    
   160   81  202 1    
   161   81  203 1    
   162   81  204 1    
   163   82   83 2    
   164   82   84 am   BACKBONE|DICT|INTERRES
   165   84   85 1    
   166   84  205 1    
   167   85   86 1    
   168   85   87 1    
   169   85  206 1    
   170   86  207 1    
   171   86  208 1    
   172   86  209 1    
   173   87   88 2    
   174   87   89 am   BACKBONE|DICT|INTERRES
   175   89   90 1    
   176   89  210 1    
   177   90   91 1    
   178   90   92 1    
   179   90  211 1    
   180   91  212 1    
   181   91  213 1    
   182   91  214 1    
   183   92   93 2    
   184   92   94 am   BACKBONE|DICT|INTERRES
   185   94   95 1    
   186   94  215 1    
   187   95   96 1    
   188   95   97 1    
   189   95  216 1    
   190   96  217 1    
   191   96  218 1    
   192   96  219 1    
   193   97   98 2    
   194   97   99 am   BACKBONE|DICT|INTERRES
   195   99  100 1    
   196   99  220 1    
   197  100  101 1    
   198  100  102 1    
   199  100  221 1    
   200  101  222 1    
   201  101  223 1    
   202  101  224 1    
   203  102  103 2    
   204  102  104 am   BACKBONE|DICT|INTERRES
   205  104  105 1    
   206  104  225 1    
   207  105  106 1    
   208  105  107 1    
   209  105  226 1    
   210  106  227 1    
   211  106  228 1    
   212  106  229 1    
   213  107  108 2    
   214  107  109 am   BACKBONE|DICT|INTERRES
   215  109  110 1    
   216  109  230 1    
   217  110  111 1    
   218  110  112 1    
   219  110  231 1    
   220  111  232 1    
   221  111  233 1    
   222  111  234 1    
   223  112  113 2    
   224  112  114 am   BACKBONE|DICT|INTERRES
   225  114  115 1    
   226  114  235 1    
   227  115  116 1    
   228  115  117 1    
   229  115  236 1    
   230  116  237 1    
   231  116  238 1    
   232  116  239 1    
   233  117  118 2    
   234  117  119 am   BACKBONE|DICT|INTERRES
   235  119  120 1    
   236  119  240 1    
   237  120  121 1    
   238  120  124 1    
   239  120  241 1    
   240  121  122 am   BACKBONE|DICT|INTERRES
   241  121  123 2    
   242  122  242 1    
   243  122  243 1    
   244  124  125 1    
   245  124  244 1    
   246  124  245 1    
   247  125  126 1    
   248  126  246 1    
   249  126  247 1    
@<TRIPOS>SUBSTRUCTURE
     1 UNK         1 GROUP             0       ****    0 ROOT    
