@<TRIPOS>MOLECULE
3R540
247   249    1
SMALL
USER_CHARGES


@<TRIPOS>ATOM
      1 CA         -0.0644  -13.0284  -52.3245 C.3       0 UNK        -0.1800 
      2 C           0.2843  -13.8206  -51.0733 C.2       0 UNK         0.5000 
      3 O           0.0546  -15.0275  -51.0389 O.2       0 UNK        -0.5000 
      4 N           0.8012  -13.1279  -50.0473 N.am      1 UNK        -0.5000 
      5 CA          1.3096  -13.5748  -48.7342 C.3       1 UNK         0.1400 
      6 C6          2.7597  -14.1335  -48.7608 C.3       23 UNK        -0.0398 
      7 S7          3.0432  -15.6323  -49.7634 S.3       23 UNK        -0.2404 
      8 C8          2.7644  -16.9494  -48.5362 C.3       23 UNK        -0.0205 
      9 C9          3.1127  -18.3314  -49.0693 C.ar      23 UNK        -0.0193 
     10 C10         2.5976  -18.7803  -50.2885 C.ar      23 UNK        -0.1150 
     11 C11         2.9082  -20.0551  -50.7718 C.ar      23 UNK        -0.0193 
     12 C12         3.7406  -20.8874  -50.0154 C.ar      23 UNK        -0.1150 
     13 C13         4.2673  -20.4486  -48.7965 C.ar      23 UNK        -0.0193 
     14 C14         3.9478  -19.1713  -48.3297 C.ar      23 UNK        -0.1150 
     15 C15         5.2120  -21.3347  -47.9968 C.3       23 UNK        -0.0205 
     16 S16         4.3606  -22.7134  -47.1691 S.3       23 UNK        -0.2404 
     17 C17         3.2524  -21.8489  -46.0021 C.3       23 UNK        -0.0398 
     18 CA          1.8829  -22.5525  -45.8695 C.3       11 UNK         0.1400 
     19 N           1.1522  -22.1035  -44.6852 N.am      11 UNK        -0.5000 
     20 C           0.1125  -22.7574  -44.1502 C.2       10 UNK         0.5000 
     21 O          -0.2802  -23.8552  -44.5450 O.2       10 UNK        -0.5000 
     22 CA         -0.6325  -22.0583  -42.9986 C.3       10 UNK         0.1400 
     23 CB          0.0336  -22.3773  -41.6522 C.3       10 UNK        -0.1800 
     24 N          -0.7272  -20.6068  -43.1718 N.am      10 UNK        -0.5000 
     25 C          -1.3842  -20.0043  -44.1738 C.2       9 UNK         0.5000 
     26 O          -1.9997  -20.6126  -45.0471 O.2       9 UNK        -0.5000 
     27 CA         -1.3070  -18.4704  -44.2412 C.3       9 UNK         0.1400 
     28 CB         -2.2571  -17.8286  -43.2190 C.3       9 UNK        -0.1800 
     29 N           0.0478  -17.9652  -44.0344 N.am      9 UNK        -0.5000 
     30 C           1.0949  -18.2179  -44.8315 C.2       8 UNK         0.5000 
     31 O           1.0281  -18.8757  -45.8692 O.2       8 UNK        -0.5000 
     32 CA          2.4621  -17.7092  -44.3431 C.3       8 UNK         0.1400 
     33 CB          2.6363  -16.2083  -44.6174 C.3       8 UNK        -0.1800 
     34 N           2.6561  -17.9671  -42.9169 N.am      8 UNK        -0.5000 
     35 C           2.7803  -19.1863  -42.3744 C.2       7 UNK         0.5000 
     36 O           2.7838  -20.2296  -43.0277 O.2       7 UNK        -0.5000 
     37 CA          2.8794  -19.2453  -40.8393 C.3       7 UNK         0.1400 
     38 CB          4.3274  -19.0170  -40.3811 C.3       7 UNK        -0.1800 
     39 N           2.0029  -18.2718  -40.1840 N.am      7 UNK        -0.5000 
     40 C           0.6639  -18.3391  -40.1910 C.2       6 UNK         0.5000 
     41 O           0.0286  -19.2432  -40.7308 O.2       6 UNK        -0.5000 
     42 CA         -0.0910  -17.1722  -39.5279 C.3       6 UNK         0.1400 
     43 CB         -0.1746  -17.3731  -38.0075 C.3       6 UNK        -0.1800 
     44 N           0.5052  -15.8646  -39.8181 N.am      6 UNK        -0.5000 
     45 C           0.6003  -15.3372  -41.0448 C.2       5 UNK         0.5000 
     46 O           0.2063  -15.9055  -42.0664 O.2       5 UNK        -0.5000 
     47 CA          1.2868  -13.9720  -41.1594 C.3       5 UNK         0.1400 
     48 CB          2.8173  -14.1270  -41.0726 C.3       5 UNK        -0.1800 
     49 N           0.9121  -13.3857  -42.4406 N.am      5 UNK        -0.5000 
     50 C           1.0408  -12.1032  -42.7923 C.2       4 UNK         0.5000 
     51 O           1.5030  -11.2334  -42.0526 O.2       4 UNK        -0.5000 
     52 CA          0.5781  -11.7240  -44.2111 C.3       4 UNK         0.1400 
     53 CB          1.7671  -11.7569  -45.1835 C.3       4 UNK        -0.1800 
     54 N          -0.4961  -12.5832  -44.7233 N.am      4 UNK        -0.5000 
     55 C          -1.7813  -12.4751  -44.3474 C.2       3 UNK         0.5000 
     56 O          -2.1648  -11.6615  -43.5055 O.2       3 UNK        -0.5000 
     57 CA         -2.8173  -13.4003  -45.0201 C.3       3 UNK         0.1400 
     58 CB         -4.1045  -12.6475  -45.4034 C.3       3 UNK        -0.1800 
     59 N          -2.2758  -14.0528  -46.2116 N.am      3 UNK        -0.5000 
     60 C          -2.4299  -15.3446  -46.5219 C.2       2 UNK         0.5000 
     61 O          -3.1506  -16.1095  -45.8820 O.2       2 UNK        -0.5000 
     62 CA         -1.6647  -15.8925  -47.7483 C.3       2 UNK         0.1400 
     63 CB         -2.6457  -16.3805  -48.8264 C.3       2 UNK        -0.1800 
     64 N          -0.7118  -14.9777  -48.3855 N.am      2 UNK        -0.5000 
     65 C           0.3709  -14.4190  -47.8367 C.2       1 UNK         0.5000 
     66 O           0.6275  -14.5105  -46.6368 O.2       1 UNK        -0.5000 
     67 C           1.0162  -22.4277  -47.1417 C.2       11 UNK         0.5000 
     68 O           0.9279  -23.3901  -47.9044 O.2       11 UNK        -0.5000 
     69 N           0.3456  -21.2794  -47.3229 N.am      12 UNK        -0.5000 
     70 CA         -0.5573  -21.0238  -48.4486 C.3       12 UNK         0.1400 
     71 CB         -1.0092  -19.5572  -48.4341 C.3       12 UNK        -0.1800 
     72 C          -1.7715  -21.9715  -48.4918 C.2       12 UNK         0.5000 
     73 O          -2.1805  -22.3856  -49.5766 O.2       12 UNK        -0.5000 
     74 N          -2.2901  -22.3462  -47.3127 N.am      13 UNK        -0.5000 
     75 CA         -3.3943  -23.2906  -47.1176 C.3       13 UNK         0.1400 
     76 CB         -3.7286  -23.3888  -45.6219 C.3       13 UNK        -0.1800 
     77 C          -3.1594  -24.6944  -47.7106 C.2       13 UNK         0.5000 
     78 O          -4.1342  -25.3947  -47.9858 O.2       13 UNK        -0.5000 
     79 N          -1.8940  -25.0731  -47.9484 N.am      14 UNK        -0.5000 
     80 CA         -1.5088  -26.3153  -48.6241 C.3       14 UNK         0.1400 
     81 CB          0.0139  -26.4924  -48.5371 C.3       14 UNK        -0.1800 
     82 C          -1.9788  -26.3935  -50.0926 C.2       14 UNK         0.5000 
     83 O          -2.1052  -27.4980  -50.6222 O.2       14 UNK        -0.5000 
     84 N          -2.2614  -25.2387  -50.7156 N.am      15 UNK        -0.5000 
     85 CA         -2.8527  -25.1373  -52.0517 C.3       15 UNK         0.1400 
     86 CB         -2.4604  -23.7864  -52.6683 C.3       15 UNK        -0.1800 
     87 C          -4.3851  -25.3447  -52.0589 C.2       15 UNK         0.5000 
     88 O          -4.9801  -25.3482  -53.1380 O.2       15 UNK        -0.5000 
     89 N          -4.9983  -25.5285  -50.8772 N.am      16 UNK        -0.5000 
     90 CA         -6.4066  -25.8582  -50.6400 C.3       16 UNK         0.1400 
     91 CB         -6.6943  -27.3100  -51.0835 C.3       16 UNK        -0.1800 
     92 C          -7.3602  -24.8141  -51.2529 C.2       16 UNK         0.5000 
     93 O          -7.4052  -23.6839  -50.7687 O.2       16 UNK        -0.5000 
     94 N          -8.0836  -25.1838  -52.3179 N.am      17 UNK        -0.5000 
     95 CA         -8.9918  -24.3054  -53.0603 C.3       17 UNK         0.1400 
     96 CB         -9.7625  -25.1442  -54.0910 C.3       17 UNK        -0.1800 
     97 C          -8.2866  -23.1188  -53.7498 C.2       17 UNK         0.5000 
     98 O          -8.9283  -22.0966  -53.9941 O.2       17 UNK        -0.5000 
     99 N          -6.9854  -23.2644  -54.0337 N.am      18 UNK        -0.5000 
    100 CA        -6.1406  -22.2425  -54.6481 C.3       18 UNK         0.1400 
    101 CB        -5.2302  -22.9176  -55.6884 C.3       18 UNK        -0.1800 
    102 C         -5.3253  -21.4417  -53.6123 C.2       18 UNK         0.5000 
    103 O         -4.4426  -20.6845  -54.0133 O.2       18 UNK        -0.5000 
    104 N         -5.6102  -21.5982  -52.3086 N.am      19 UNK        -0.5000 
    105 CA        -4.9068  -20.9137  -51.2156 C.3       19 UNK         0.1400 
    106 CB        -5.3744  -21.4726  -49.8671 C.3       19 UNK        -0.1800 
    107 C         -5.0331  -19.3805  -51.2288 C.2       19 UNK         0.5000 
    108 O         -4.1429  -18.7071  -50.7103 O.2       19 UNK        -0.5000 
    109 N         -6.1037  -18.8545  -51.8408 N.am      20 UNK        -0.5000 
    110 CA        -6.3345  -17.4300  -52.0823 C.3       20 UNK         0.1400 
    111 CB        -7.7223  -17.2515  -52.7199 C.3       20 UNK        -0.1800 
    112 C         -5.2196  -16.8270  -52.9609 C.2       20 UNK         0.5000 
    113 O         -5.2323  -17.0108  -54.1789 O.2       20 UNK        -0.5000 
    114 N         -4.2521  -16.1748  -52.3006 N.am      21 UNK        -0.5000 
    115 CA        -2.9949  -15.6431  -52.8427 C.3       21 UNK         0.1400 
    116 CB        -3.2581  -14.5542  -53.9050 C.3       21 UNK        -0.1800 
    117 C         -2.0073  -16.7309  -53.3290 C.2       21 UNK         0.5000 
    118 O         -1.0796  -16.4090  -54.0722 O.2       21 UNK        -0.5000 
    119 N         -2.2093  -17.9799  -52.8805 N.am      22 UNK        -0.5000 
    120 CA        -1.3976  -19.1751  -53.1606 C.3       22 UNK         0.1400 
    121 C         -1.1665  -19.4379  -54.6804 C.2       22 UNK         0.5000 
    122 N         -2.1940  -19.8647  -55.3994 N.am      22 UNK        -0.7600 
    123 O         -0.0739  -19.2613  -55.2145 O.2       22 UNK        -0.5000 
    124 C124       -0.0974  -19.1817  -52.3177 C.3       23 UNK        -0.0398 
    125 S125        0.5979  -20.8587  -52.1126 S.3       23 UNK        -0.2404 
    126 C126        2.3864  -20.5162  -52.1277 C.3       23 UNK        -0.0205 
    127 H127        0.1982  -13.5983  -53.2162 H         1 UNK         0.0600 
    128 H128        0.4686  -12.0781  -52.3616 H         1 UNK         0.0600 
    129 H129       -1.1343  -12.8236  -52.3514 H         1 UNK         0.0600 
    130 H130        0.8986  -12.1318  -50.1869 H         1 UNK         0.3000 
    131 H131        1.3824  -12.6357  -48.1854 H         1 UNK         0.0600 
    132 H132        3.1235  -14.3066  -47.7462 H         1 UNK         0.0800 
    133 H133        3.4182  -13.3629  -49.1631 H         1 UNK         0.0800 
    134 H134        1.7213  -16.9517  -48.2187 H         1 UNK         0.0800 
    135 H135        3.3671  -16.7308  -47.6552 H         1 UNK         0.0800 
    136 H136        1.9655  -18.1222  -50.8651 H         1 UNK         0.1150 
    137 H137        3.9934  -21.8734  -50.3795 H         1 UNK         0.1150 
    138 H138        4.3532  -18.8296  -47.3878 H         1 UNK         0.1150 
    139 H139        5.9697  -21.7431  -48.6671 H         1 UNK         0.0800 
    140 H140        5.7525  -20.7507  -47.2502 H         1 UNK         0.0800 
    141 H141        3.1203  -20.8035  -46.2796 H         1 UNK         0.0800 
    142 H142        3.7573  -21.8379  -45.0352 H         1 UNK         0.0800 
    143 H143        2.0824  -23.6170  -45.7248 H         1 UNK         0.0600 
    144 H144        1.4542  -21.2325  -44.2627 H         1 UNK         0.3000 
    145 H145       -1.6495  -22.4554  -42.9764 H         1 UNK         0.0600 
    146 H146       -0.5406  -21.9670  -40.8214 H         1 UNK         0.0600 
    147 H147        1.0429  -21.9689  -41.5966 H         1 UNK         0.0600 
    148 H148        0.1053  -23.4545  -41.4964 H         1 UNK         0.0600 
    149 H149       -0.2916  -20.0349  -42.4535 H         1 UNK         0.3000 
    150 H150       -1.6218  -18.1704  -45.2415 H         1 UNK         0.0600 
    151 H151       -3.2848  -18.1526  -43.3868 H         1 UNK         0.0600 
    152 H152       -2.2430  -16.7414  -43.2980 H         1 UNK         0.0600 
    153 H153       -1.9900  -18.0915  -42.1955 H         1 UNK         0.0600 
    154 H154        0.1862  -17.3724  -43.2199 H         1 UNK         0.3000 
    155 H155        3.2355  -18.2481  -44.8946 H         1 UNK         0.0600 
    156 H156        2.5494  -15.9955  -45.6806 H         1 UNK         0.0600 
    157 H157        3.6169  -15.8570  -44.2969 H         1 UNK         0.0600 
    158 H158        1.8816  -15.6089  -44.1100 H         1 UNK         0.0600 
    159 H159        2.6219  -17.1691  -42.3020 H         1 UNK         0.3000 
    160 H160        2.5758  -20.2457  -40.5237 H         1 UNK         0.0600 
    161 H161        4.6835  -18.0206  -40.6458 H         1 UNK         0.0600 
    162 H162        5.0009  -19.7401  -40.8431 H         1 UNK         0.0600 
    163 H163        4.4214  -19.1315  -39.3010 H         1 UNK         0.0600 
    164 H164        2.4463  -17.4954  -39.7161 H         1 UNK         0.3000 
    165 H165       -1.1078  -17.1705  -39.9263 H         1 UNK         0.0600 
    166 H166       -0.7851  -16.5999  -37.5407 H         1 UNK         0.0600 
    167 H167       -0.6299  -18.3345  -37.7657 H         1 UNK         0.0600 
    168 H168        0.8112  -17.3501  -37.5414 H         1 UNK         0.0600 
    169 H169        0.8561  -15.3426  -39.0279 H         1 UNK         0.3000 
    170 H170        0.9281  -13.3315  -40.3512 H         1 UNK         0.0600 
    171 H171        3.2056  -14.7438  -41.8837 H         1 UNK         0.0600 
    172 H172        3.3184  -13.1604  -41.1223 H         1 UNK         0.0600 
    173 H173        3.1151  -14.5927  -40.1325 H         1 UNK         0.0600 
    174 H174        0.4803  -14.0397  -43.0815 H         1 UNK         0.3000 
    175 H175        0.2107  -10.6962  -44.1708 H         1 UNK         0.0600 
    176 H176        2.1755  -12.7627  -45.2897 H         1 UNK         0.0600 
    177 H177        1.4755  -11.4001  -46.1704 H         1 UNK         0.0600 
    178 H178        2.5748  -11.1123  -44.8344 H         1 UNK         0.0600 
    179 H179       -0.2183  -13.3159  -45.3698 H         1 UNK         0.3000 
    180 H180       -3.0705  -14.1518  -44.2694 H         1 UNK         0.0600 
    181 H181       -4.8385  -13.3231  -45.8428 H         1 UNK         0.0600 
    182 H182       -3.9043  -11.8548  -46.1251 H         1 UNK         0.0600 
    183 H183       -4.5714  -12.1900  -44.5303 H         1 UNK         0.0600 
    184 H184       -1.6817  -13.4899  -46.8025 H         1 UNK         0.3000 
    185 H185       -1.0907  -16.7506  -47.3939 H         1 UNK         0.0600 
    186 H186       -3.2473  -15.5603  -49.2189 H         1 UNK         0.0600 
    187 H187       -2.1184  -16.8406  -49.6628 H         1 UNK         0.0600 
    188 H188       -3.3301  -17.1309  -48.4280 H         1 UNK         0.0600 
    189 H189       -0.7686  -14.9127  -49.3981 H         1 UNK         0.3000 
    190 H190        0.4879  -20.5101  -46.6733 H         1 UNK         0.3000 
    191 H191        0.0166  -21.1916  -49.3593 H         1 UNK         0.0600 
    192 H192       -0.1574  -18.8829  -48.5258 H         1 UNK         0.0600 
    193 H193       -1.5389  -19.3092  -47.5141 H         1 UNK         0.0600 
    194 H194       -1.6821  -19.3489  -49.2670 H         1 UNK         0.0600 
    195 H195       -1.9366  -21.8944  -46.4734 H         1 UNK         0.3000 
    196 H196       -4.2668  -22.8763  -47.6220 H         1 UNK         0.0600 
    197 H197       -4.0145  -22.4186  -45.2158 H         1 UNK         0.0600 
    198 H198       -2.8829  -23.7601  -45.0442 H         1 UNK         0.0600 
    199 H199       -4.5650  -24.0677  -45.4509 H         1 UNK         0.0600 
    200 H200       -1.1438  -24.4319  -47.7204 H         1 UNK         0.3000 
    201 H201       -1.9780  -27.1415  -48.0861 H         1 UNK         0.0600 
    202 H202        0.3630  -26.4361  -47.5058 H         1 UNK         0.0600 
    203 H203        0.5393  -25.7297  -49.1128 H         1 UNK         0.0600 
    204 H204        0.3160  -27.4634  -48.9314 H         1 UNK         0.0600 
    205 H205       -2.1353  -24.3640  -50.2155 H         1 UNK         0.3000 
    206 H206       -2.4262  -25.9203  -52.6819 H         1 UNK         0.0600 
    207 H207       -2.8859  -22.9562  -52.1109 H         1 UNK         0.0600 
    208 H208       -1.3780  -23.6563  -52.6816 H         1 UNK         0.0600 
    209 H209       -2.8074  -23.7041  -53.6977 H         1 UNK         0.0600 
    210 H210       -4.4362  -25.4692  -50.0359 H         1 UNK         0.3000 
    211 H211       -6.5567  -25.8086  -49.5606 H         1 UNK         0.0600 
    212 H212       -6.5122  -27.4636  -52.1477 H         1 UNK         0.0600 
    213 H213       -7.7285  -27.5881  -50.8765 H         1 UNK         0.0600 
    214 H214       -6.0607  -28.0112  -50.5401 H         1 UNK         0.0600 
    215 H215       -7.9686  -26.1215  -52.6739 H         1 UNK         0.3000 
    216 H216       -9.7098  -23.8900  -52.3502 H         1 UNK         0.0600 
    217 H217      -10.4718  -24.5279  -54.6451 H         1 UNK         0.0600 
    218 H218      -10.3326  -25.9379  -53.6078 H         1 UNK         0.0600 
    219 H219       -9.0911  -25.6051  -54.8167 H         1 UNK         0.0600 
    220 H220       -6.5163  -24.1249  -53.7672 H         1 UNK         0.3000 
    221 H221       -6.7606  -21.5179  -55.1797 H         1 UNK         0.0600 
    222 H222       -4.5752  -23.6592  -55.2328 H         1 UNK         0.0600 
    223 H223       -5.8195  -23.4222  -56.4541 H         1 UNK         0.0600 
    224 H224       -4.5989  -22.1886  -56.1978 H         1 UNK         0.0600 
    225 H225       -6.3421  -22.2442  -52.0375 H         1 UNK         0.3000 
    226 H226       -3.8430  -21.1278  -51.3161 H         1 UNK         0.0600 
    227 H227       -5.1623  -22.5392  -49.7959 H         1 UNK         0.0600 
    228 H228       -4.8572  -20.9822  -49.0412 H         1 UNK         0.0600 
    229 H229       -6.4448  -21.3270  -49.7187 H         1 UNK         0.0600 
    230 H230       -6.7648  -19.4919  -52.2588 H         1 UNK         0.3000 
    231 H231       -6.3393  -16.9182  -51.1176 H         1 UNK         0.0600 
    232 H232       -7.9243  -16.1994  -52.9247 H         1 UNK         0.0600 
    233 H233       -8.5099  -17.6102  -52.0570 H         1 UNK         0.0600 
    234 H234       -7.8073  -17.7922  -53.6636 H         1 UNK         0.0600 
    235 H235       -4.3249  -16.1439  -51.2931 H         1 UNK         0.3000 
    236 H236       -2.5008  -15.1571  -52.0011 H         1 UNK         0.0600 
    237 H237       -3.6897  -14.9697  -54.8155 H         1 UNK         0.0600 
    238 H238       -3.9377  -13.7903  -53.5275 H         1 UNK         0.0600 
    239 H239       -2.3334  -14.0514  -54.1891 H         1 UNK         0.0600 
    240 H240       -2.9932  -18.1301  -52.2552 H         1 UNK         0.3000 
    241 H241       -2.0065  -20.0067  -52.8027 H         1 UNK         0.0600 
    242 H242       -2.0768  -20.0380  -56.3842 H         1 UNK         0.3800 
    243 H243       -3.0886  -20.0634  -54.9499 H         1 UNK         0.3800 
    244 H244       -0.3028  -18.7977  -51.3179 H         1 UNK         0.0800 
    245 H245        0.6390  -18.5054  -52.7542 H         1 UNK         0.0800 
    246 H246        2.6201  -19.7702  -52.8885 H         1 UNK         0.0800 
    247 H247        2.9019  -21.4269  -52.4361 H         1 UNK         0.0800 
@<TRIPOS>BOND
     1    1    2 1    
     2    1  127 1    
     3    1  128 1    
     4    1  129 1    
     5    2    3 2    
     6    2    4 am   BACKBONE|DICT|INTERRES
     7    4    5 1    
     8    4  130 1    
     9    5    6 1    
    10    5   65 1    
    11    5  131 1    
    12    6    7 1    
    13    6  132 1    
    14    6  133 1    
    15    7    8 1    
    16    8    9 1    
    17    8  134 1    
    18    8  135 1    
    19    9   10 ar   
    20    9   14 ar   
    21   10   11 ar   
    22   10  136 1    
    23   11   12 ar   
    24   11  126 1    
    25   12   13 ar   
    26   12  137 1    
    27   13   14 ar   
    28   13   15 1    
    29   14  138 1    
    30   15   16 1    
    31   15  139 1    
    32   15  140 1    
    33   16   17 1    
    34   17   18 1    
    35   17  141 1    
    36   17  142 1    
    37   18   19 1    
    38   18   67 1    
    39   18  143 1    
    40   19   20 am   BACKBONE|DICT|INTERRES
    41   19  144 1    
    42   20   21 2    
    43   20   22 1    
    44   22   23 1    
    45   22   24 1    
    46   22  145 1    
    47   23  146 1    
    48   23  147 1    
    49   23  148 1    
    50   24   25 am   BACKBONE|DICT|INTERRES
    51   24  149 1    
    52   25   26 2    
    53   25   27 1    
    54   27   28 1    
    55   27   29 1    
    56   27  150 1    
    57   28  151 1    
    58   28  152 1    
    59   28  153 1    
    60   29   30 am   BACKBONE|DICT|INTERRES
    61   29  154 1    
    62   30   31 2    
    63   30   32 1    
    64   32   33 1    
    65   32   34 1    
    66   32  155 1    
    67   33  156 1    
    68   33  157 1    
    69   33  158 1    
    70   34   35 am   BACKBONE|DICT|INTERRES
    71   34  159 1    
    72   35   36 2    
    73   35   37 1    
    74   37   38 1    
    75   37   39 1    
    76   37  160 1    
    77   38  161 1    
    78   38  162 1    
    79   38  163 1    
    80   39   40 am   BACKBONE|DICT|INTERRES
    81   39  164 1    
    82   40   41 2    
    83   40   42 1    
    84   42   43 1    
    85   42   44 1    
    86   42  165 1    
    87   43  166 1    
    88   43  167 1    
    89   43  168 1    
    90   44   45 am   BACKBONE|DICT|INTERRES
    91   44  169 1    
    92   45   46 2    
    93   45   47 1    
    94   47   48 1    
    95   47   49 1    
    96   47  170 1    
    97   48  171 1    
    98   48  172 1    
    99   48  173 1    
   100   49   50 am   BACKBONE|DICT|INTERRES
   101   49  174 1    
   102   50   51 2    
   103   50   52 1    
   104   52   53 1    
   105   52   54 1    
   106   52  175 1    
   107   53  176 1    
   108   53  177 1    
   109   53  178 1    
   110   54   55 am   BACKBONE|DICT|INTERRES
   111   54  179 1    
   112   55   56 2    
   113   55   57 1    
   114   57   58 1    
   115   57   59 1    
   116   57  180 1    
   117   58  181 1    
   118   58  182 1    
   119   58  183 1    
   120   59   60 am   BACKBONE|DICT|INTERRES
   121   59  184 1    
   122   60   61 2    
   123   60   62 1    
   124   62   63 1    
   125   62   64 1    
   126   62  185 1    
   127   63  186 1    
   128   63  187 1    
   129   63  188 1    
   130   64   65 am   BACKBONE|DICT|INTERRES
   131   64  189 1    
   132   65   66 2    
   133   67   68 2    
   134   67   69 am   BACKBONE|DICT|INTERRES
   135   69   70 1    
   136   69  190 1    
   137   70   71 1    
   138   70   72 1    
   139   70  191 1    
   140   71  192 1    
   141   71  193 1    
   142   71  194 1    
   143   72   73 2    
   144   72   74 am   BACKBONE|DICT|INTERRES
   145   74   75 1    
   146   74  195 1    
   147   75   76 1    
   148   75   77 1    
   149   75  196 1    
   150   76  197 1    
   151   76  198 1    
   152   76  199 1    
   153   77   78 2    
   154   77   79 am   BACKBONE|DICT|INTERRES
   155   79   80 1    
   156   79  200 1    
   157   80   81 1    
   158   80   82 1    
   159   80  201 1    
   160   81  202 1    
   161   81  203 1    
   162   81  204 1    
   163   82   83 2    
   164   82   84 am   BACKBONE|DICT|INTERRES
   165   84   85 1    
   166   84  205 1    
   167   85   86 1    
   168   85   87 1    
   169   85  206 1    
   170   86  207 1    
   171   86  208 1    
   172   86  209 1    
   173   87   88 2    
   174   87   89 am   BACKBONE|DICT|INTERRES
   175   89   90 1    
   176   89  210 1    
   177   90   91 1    
   178   90   92 1    
   179   90  211 1    
   180   91  212 1    
   181   91  213 1    
   182   91  214 1    
   183   92   93 2    
   184   92   94 am   BACKBONE|DICT|INTERRES
   185   94   95 1    
   186   94  215 1    
   187   95   96 1    
   188   95   97 1    
   189   95  216 1    
   190   96  217 1    
   191   96  218 1    
   192   96  219 1    
   193   97   98 2    
   194   97   99 am   BACKBONE|DICT|INTERRES
   195   99  100 1    
   196   99  220 1    
   197  100  101 1    
   198  100  102 1    
   199  100  221 1    
   200  101  222 1    
   201  101  223 1    
   202  101  224 1    
   203  102  103 2    
   204  102  104 am   BACKBONE|DICT|INTERRES
   205  104  105 1    
   206  104  225 1    
   207  105  106 1    
   208  105  107 1    
   209  105  226 1    
   210  106  227 1    
   211  106  228 1    
   212  106  229 1    
   213  107  108 2    
   214  107  109 am   BACKBONE|DICT|INTERRES
   215  109  110 1    
   216  109  230 1    
   217  110  111 1    
   218  110  112 1    
   219  110  231 1    
   220  111  232 1    
   221  111  233 1    
   222  111  234 1    
   223  112  113 2    
   224  112  114 am   BACKBONE|DICT|INTERRES
   225  114  115 1    
   226  114  235 1    
   227  115  116 1    
   228  115  117 1    
   229  115  236 1    
   230  116  237 1    
   231  116  238 1    
   232  116  239 1    
   233  117  118 2    
   234  117  119 am   BACKBONE|DICT|INTERRES
   235  119  120 1    
   236  119  240 1    
   237  120  121 1    
   238  120  124 1    
   239  120  241 1    
   240  121  122 am   BACKBONE|DICT|INTERRES
   241  121  123 2    
   242  122  242 1    
   243  122  243 1    
   244  124  125 1    
   245  124  244 1    
   246  124  245 1    
   247  125  126 1    
   248  126  246 1    
   249  126  247 1    
@<TRIPOS>SUBSTRUCTURE
     1 UNK         1 GROUP             0       ****    0 ROOT    
